MODEL 1
REMARK VINA RESULT:     -12.0      0.000      0.000
REMARK  Name = 24771824
REMARK  4 active torsions:
REMARK  status: ('A' for Active; 'I' for Inactive)
REMARK    1  A    between atoms: C_11  and  C_18
REMARK    2  A    between atoms: C_21  and  O_24
REMARK    3  A    between atoms: O_24  and  C_26
REMARK    4  A    between atoms: C_28  and  C_34
REMARK                            x       y       z     vdW  Elec       q    Type
REMARK                         _______ _______ _______ _____ _____    ______ ____
ROOT
ATOM      1  O   UNL     1      33.622 -23.344 -16.361  0.00  0.00    -0.252 OA
ATOM      2  N   UNL     1      33.699 -21.698 -17.984  0.00  0.00    -0.263 N 
ATOM      3  N   UNL     1      31.628 -22.443 -17.130  0.00  0.00    -0.252 N 
ATOM      4  N   UNL     1      31.135 -24.066 -15.455  0.00  0.00    -0.133 NA
ATOM      5  N   UNL     1      30.235 -24.752 -14.699  0.00  0.00    -0.145 NA
ATOM      6  C   UNL     1      35.701 -21.895 -19.438  0.00  0.00    +0.044 C 
ATOM      7  C   UNL     1      33.586 -20.822 -20.311  0.00  0.00    +0.044 C 
ATOM      8  C   UNL     1      35.168 -21.721 -18.018  0.00  0.00    +0.099 C 
ATOM      9  C   UNL     1      33.073 -20.698 -18.872  0.00  0.00    +0.099 C 
ATOM     10  C   UNL     1      35.090 -20.864 -20.347  0.00  0.00    -0.041 C 
ATOM     11  C   UNL     1      35.822 -20.036 -21.106  0.00  0.00    -0.008 C 
ATOM     12  C   UNL     1      33.016 -22.566 -17.103  0.00  0.00    +0.309 C 
ATOM     13  C   UNL     1      30.688 -23.154 -16.344  0.00  0.00    +0.157 C 
ATOM     14  C   UNL     1      29.347 -22.879 -16.527  0.00  0.00    +0.038 C 
ATOM     15  C   UNL     1      28.432 -23.577 -15.758  0.00  0.00    +0.025 C 
ATOM     16  C   UNL     1      28.918 -24.503 -14.857  0.00  0.00    +0.122 C 
ATOM     17  H   UNL     1      31.260 -21.787 -17.766  0.00  0.00    +0.158 HD
ENDROOT
BRANCH  11  18
ATOM     18  C   UNL     1      35.290 -19.007 -22.013  0.00  0.00    +0.002 C 
ATOM     19  C   UNL     1      35.710 -17.683 -21.887  0.00  0.00    +0.038 C 
ATOM     20  C   UNL     1      34.368 -19.356 -23.000  0.00  0.00    +0.000 C 
ATOM     21  C   UNL     1      35.207 -16.707 -22.749  0.00  0.00    +0.147 C 
ATOM     22  C   UNL     1      33.865 -18.381 -23.860  0.00  0.00    +0.003 C 
ATOM     23  C   UNL     1      34.285 -17.056 -23.735  0.00  0.00    +0.038 C 
BRANCH  21  24
ATOM     24  O   UNL     1      35.616 -15.415 -22.626  0.00  0.00    -0.436 OA
BRANCH  24  26
ATOM     25  N   UNL     1      34.282 -13.529 -22.949  0.00  0.00    -0.210 NA
ATOM     26  C   UNL     1      34.713 -14.500 -22.112  0.00  0.00    +0.230 C 
ATOM     27  C   UNL     1      34.305 -14.625 -20.794  0.00  0.00    +0.058 C 
ATOM     28  C   UNL     1      32.931 -12.681 -21.133  0.00  0.00    +0.091 C 
ATOM     29  C   UNL     1      33.397 -13.694 -20.302  0.00  0.00    +0.010 C 
ATOM     30  C   UNL     1      33.400 -12.642 -22.436  0.00  0.00    +0.106 C 
BRANCH  28  34
ATOM     31  F   UNL     1      32.213 -10.399 -21.078  0.00  0.00    -0.166 F 
ATOM     32  F   UNL     1      30.667 -11.919 -21.000  0.00  0.00    -0.166 F 
ATOM     33  F   UNL     1      31.943 -11.580 -19.272  0.00  0.00    -0.166 F 
ATOM     34  C   UNL     1      31.961 -11.669 -20.635  0.00  0.00    +0.420 C 
ENDBRANCH  28  34
ENDBRANCH  24  26
ENDBRANCH  21  24
ENDBRANCH  11  18
TORSDOF 4
ENDMDL
MODEL 2
REMARK VINA RESULT:     -11.8      5.547     12.066
REMARK  Name = 24771824
REMARK  4 active torsions:
REMARK  status: ('A' for Active; 'I' for Inactive)
REMARK    1  A    between atoms: C_11  and  C_18
REMARK    2  A    between atoms: C_21  and  O_24
REMARK    3  A    between atoms: O_24  and  C_26
REMARK    4  A    between atoms: C_28  and  C_34
REMARK                            x       y       z     vdW  Elec       q    Type
REMARK                         _______ _______ _______ _____ _____    ______ ____
ROOT
ATOM      1  O   UNL     1      31.490  -7.493 -19.906  0.00  0.00    -0.252 OA
ATOM      2  N   UNL     1      32.429  -9.330 -20.953  0.00  0.00    -0.263 N 
ATOM      3  N   UNL     1      31.890  -7.391 -22.188  0.00  0.00    -0.252 N 
ATOM      4  N   UNL     1      30.959  -5.313 -21.483  0.00  0.00    -0.133 NA
ATOM      5  N   UNL     1      30.529  -4.053 -21.763  0.00  0.00    -0.145 NA
ATOM      6  C   UNL     1      31.870 -11.461 -19.809  0.00  0.00    +0.044 C 
ATOM      7  C   UNL     1      32.381 -11.432 -22.284  0.00  0.00    +0.044 C 
ATOM      8  C   UNL     1      32.510 -10.079 -19.691  0.00  0.00    +0.099 C 
ATOM      9  C   UNL     1      32.983 -10.031 -22.128  0.00  0.00    +0.099 C 
ATOM     10  C   UNL     1      32.447 -12.195 -20.988  0.00  0.00    -0.041 C 
ATOM     11  C   UNL     1      32.994 -13.415 -20.890  0.00  0.00    -0.008 C 
ATOM     12  C   UNL     1      31.893  -8.023 -20.945  0.00  0.00    +0.309 C 
ATOM     13  C   UNL     1      31.445  -6.079 -22.483  0.00  0.00    +0.157 C 
ATOM     14  C   UNL     1      31.528  -5.643 -23.790  0.00  0.00    +0.038 C 
ATOM     15  C   UNL     1      31.092  -4.361 -24.075  0.00  0.00    +0.025 C 
ATOM     16  C   UNL     1      30.600  -3.600 -23.032  0.00  0.00    +0.122 C 
ATOM     17  H   UNL     1      32.237  -7.916 -22.946  0.00  0.00    +0.158 HD
ENDROOT
BRANCH  11  18
ATOM     18  C   UNL     1      33.575 -14.188 -22.000  0.00  0.00    +0.002 C 
ATOM     19  C   UNL     1      34.620 -15.079 -21.756  0.00  0.00    +0.038 C 
ATOM     20  C   UNL     1      33.080 -14.030 -23.294  0.00  0.00    +0.000 C 
ATOM     21  C   UNL     1      35.170 -15.813 -22.807  0.00  0.00    +0.147 C 
ATOM     22  C   UNL     1      33.630 -14.763 -24.345  0.00  0.00    +0.003 C 
ATOM     23  C   UNL     1      34.675 -15.655 -24.101  0.00  0.00    +0.038 C 
BRANCH  21  24
ATOM     24  O   UNL     1      36.190 -16.682 -22.570  0.00  0.00    -0.436 OA
BRANCH  24  26
ATOM     25  N   UNL     1      36.917 -18.225 -20.979  0.00  0.00    -0.210 NA
ATOM     26  C   UNL     1      35.922 -17.790 -21.783  0.00  0.00    +0.230 C 
ATOM     27  C   UNL     1      34.671 -18.381 -21.860  0.00  0.00    +0.058 C 
ATOM     28  C   UNL     1      35.426 -19.969 -20.218  0.00  0.00    +0.091 C 
ATOM     29  C   UNL     1      34.426 -19.492 -21.060  0.00  0.00    +0.010 C 
ATOM     30  C   UNL     1      36.643 -19.306 -20.215  0.00  0.00    +0.106 C 
BRANCH  28  34
ATOM     31  F   UNL     1      33.900 -21.290 -18.933  0.00  0.00    -0.166 F 
ATOM     32  F   UNL     1      35.496 -22.345 -19.956  0.00  0.00    -0.166 F 
ATOM     33  F   UNL     1      35.945 -21.130 -18.209  0.00  0.00    -0.166 F 
ATOM     34  C   UNL     1      35.195 -21.156 -19.352  0.00  0.00    +0.420 C 
ENDBRANCH  28  34
ENDBRANCH  24  26
ENDBRANCH  21  24
ENDBRANCH  11  18
TORSDOF 4
ENDMDL
MODEL 3
REMARK VINA RESULT:     -11.5      4.652     10.522
REMARK  Name = 24771824
REMARK  4 active torsions:
REMARK  status: ('A' for Active; 'I' for Inactive)
REMARK    1  A    between atoms: C_11  and  C_18
REMARK    2  A    between atoms: C_21  and  O_24
REMARK    3  A    between atoms: O_24  and  C_26
REMARK    4  A    between atoms: C_28  and  C_34
REMARK                            x       y       z     vdW  Elec       q    Type
REMARK                         _______ _______ _______ _____ _____    ______ ____
ROOT
ATOM      1  O   UNL     1      33.061 -12.090 -23.427  0.00  0.00    -0.252 OA
ATOM      2  N   UNL     1      33.529 -14.126 -22.433  0.00  0.00    -0.263 N 
ATOM      3  N   UNL     1      32.819 -12.291 -21.129  0.00  0.00    -0.252 N 
ATOM      4  N   UNL     1      32.215 -10.075 -21.768  0.00  0.00    -0.133 NA
ATOM      5  N   UNL     1      31.785  -8.826 -21.445  0.00  0.00    -0.145 NA
ATOM      6  C   UNL     1      35.223 -15.430 -23.697  0.00  0.00    +0.044 C 
ATOM      7  C   UNL     1      34.950 -15.760 -21.206  0.00  0.00    +0.044 C 
ATOM      8  C   UNL     1      33.858 -14.745 -23.726  0.00  0.00    +0.099 C 
ATOM      9  C   UNL     1      33.600 -15.037 -21.274  0.00  0.00    +0.099 C 
ATOM     10  C   UNL     1      35.296 -16.380 -22.533  0.00  0.00    -0.041 C 
ATOM     11  C   UNL     1      35.621 -17.674 -22.668  0.00  0.00    -0.008 C 
ATOM     12  C   UNL     1      33.136 -12.770 -22.399  0.00  0.00    +0.309 C 
ATOM     13  C   UNL     1      32.370 -10.991 -20.789  0.00  0.00    +0.157 C 
ATOM     14  C   UNL     1      32.110 -10.720 -19.460  0.00  0.00    +0.038 C 
ATOM     15  C   UNL     1      31.671  -9.449 -19.132  0.00  0.00    +0.025 C 
ATOM     16  C   UNL     1      31.523  -8.533 -20.155  0.00  0.00    +0.122 C 
ATOM     17  H   UNL     1      32.918 -12.928 -20.385  0.00  0.00    +0.158 HD
ENDROOT
BRANCH  11  18
ATOM     18  C   UNL     1      35.711 -18.655 -21.576  0.00  0.00    +0.002 C 
ATOM     19  C   UNL     1      34.597 -19.422 -21.235  0.00  0.00    +0.038 C 
ATOM     20  C   UNL     1      36.910 -18.819 -20.883  0.00  0.00    +0.000 C 
ATOM     21  C   UNL     1      34.683 -20.354 -20.200  0.00  0.00    +0.147 C 
ATOM     22  C   UNL     1      36.996 -19.751 -19.849  0.00  0.00    +0.003 C 
ATOM     23  C   UNL     1      35.882 -20.518 -19.507  0.00  0.00    +0.038 C 
BRANCH  21  24
ATOM     24  O   UNL     1      33.596 -21.102 -19.867  0.00  0.00    -0.436 OA
BRANCH  24  26
ATOM     25  N   UNL     1      32.423 -22.048 -18.086  0.00  0.00    -0.210 NA
ATOM     26  C   UNL     1      33.618 -21.764 -18.651  0.00  0.00    +0.230 C 
ATOM     27  C   UNL     1      34.840 -22.096 -18.089  0.00  0.00    +0.058 C 
ATOM     28  C   UNL     1      33.626 -23.071 -16.256  0.00  0.00    +0.091 C 
ATOM     29  C   UNL     1      34.836 -22.761 -16.868  0.00  0.00    +0.010 C 
ATOM     30  C   UNL     1      32.458 -22.695 -16.900  0.00  0.00    +0.106 C 
BRANCH  28  34
ATOM     31  F   UNL     1      32.367 -24.316 -14.646  0.00  0.00    -0.166 F 
ATOM     32  F   UNL     1      34.464 -24.826 -14.863  0.00  0.00    -0.166 F 
ATOM     33  F   UNL     1      33.896 -22.963 -13.896  0.00  0.00    -0.166 F 
ATOM     34  C   UNL     1      33.588 -23.780 -14.948  0.00  0.00    +0.420 C 
ENDBRANCH  28  34
ENDBRANCH  24  26
ENDBRANCH  21  24
ENDBRANCH  11  18
TORSDOF 4
ENDMDL
MODEL 4
REMARK VINA RESULT:     -11.1      3.287      4.405
REMARK  Name = 24771824
REMARK  4 active torsions:
REMARK  status: ('A' for Active; 'I' for Inactive)
REMARK    1  A    between atoms: C_11  and  C_18
REMARK    2  A    between atoms: C_21  and  O_24
REMARK    3  A    between atoms: O_24  and  C_26
REMARK    4  A    between atoms: C_28  and  C_34
REMARK                            x       y       z     vdW  Elec       q    Type
REMARK                         _______ _______ _______ _____ _____    ______ ____
ROOT
ATOM      1  O   UNL     1      33.824 -24.319 -14.933  0.00  0.00    -0.252 OA
ATOM      2  N   UNL     1      34.658 -23.050 -16.678  0.00  0.00    -0.263 N 
ATOM      3  N   UNL     1      35.894 -23.305 -14.683  0.00  0.00    -0.252 N 
ATOM      4  N   UNL     1      35.405 -24.538 -12.702  0.00  0.00    -0.133 NA
ATOM      5  N   UNL     1      35.747 -24.958 -11.454  0.00  0.00    -0.145 NA
ATOM      6  C   UNL     1      32.860 -22.045 -18.063  0.00  0.00    +0.044 C 
ATOM      7  C   UNL     1      35.124 -20.934 -17.902  0.00  0.00    +0.044 C 
ATOM      8  C   UNL     1      33.483 -23.327 -17.516  0.00  0.00    +0.099 C 
ATOM      9  C   UNL     1      35.702 -22.231 -17.324  0.00  0.00    +0.099 C 
ATOM     10  C   UNL     1      33.911 -21.214 -18.747  0.00  0.00    -0.041 C 
ATOM     11  C   UNL     1      33.788 -20.779 -20.009  0.00  0.00    -0.008 C 
ATOM     12  C   UNL     1      34.726 -23.606 -15.381  0.00  0.00    +0.309 C 
ATOM     13  C   UNL     1      36.255 -23.741 -13.383  0.00  0.00    +0.157 C 
ATOM     14  C   UNL     1      37.467 -23.325 -12.871  0.00  0.00    +0.038 C 
ATOM     15  C   UNL     1      37.815 -23.752 -11.602  0.00  0.00    +0.025 C 
ATOM     16  C   UNL     1      36.926 -24.566 -10.928  0.00  0.00    +0.122 C 
ATOM     17  H   UNL     1      36.542 -22.725 -15.145  0.00  0.00    +0.158 HD
ENDROOT
BRANCH  11  18
ATOM     18  C   UNL     1      34.774 -19.965 -20.737  0.00  0.00    +0.002 C 
ATOM     19  C   UNL     1      34.435 -19.391 -21.962  0.00  0.00    +0.038 C 
ATOM     20  C   UNL     1      36.047 -19.767 -20.202  0.00  0.00    +0.000 C 
ATOM     21  C   UNL     1      35.369 -18.617 -22.651  0.00  0.00    +0.147 C 
ATOM     22  C   UNL     1      36.981 -18.995 -20.891  0.00  0.00    +0.003 C 
ATOM     23  C   UNL     1      36.642 -18.420 -22.117  0.00  0.00    +0.038 C 
BRANCH  21  24
ATOM     24  O   UNL     1      35.039 -18.057 -23.847  0.00  0.00    -0.436 OA
BRANCH  24  26
ATOM     25  N   UNL     1      34.049 -16.260 -24.957  0.00  0.00    -0.210 NA
ATOM     26  C   UNL     1      34.683 -16.719 -23.854  0.00  0.00    +0.230 C 
ATOM     27  C   UNL     1      34.986 -15.937 -22.752  0.00  0.00    +0.058 C 
ATOM     28  C   UNL     1      33.964 -14.087 -23.900  0.00  0.00    +0.091 C 
ATOM     29  C   UNL     1      34.617 -14.596 -22.783  0.00  0.00    +0.010 C 
ATOM     30  C   UNL     1      33.706 -14.952 -24.951  0.00  0.00    +0.106 C 
BRANCH  28  34
ATOM     31  F   UNL     1      34.570 -11.784 -23.674  0.00  0.00    -0.166 F 
ATOM     32  F   UNL     1      33.098 -12.270 -25.192  0.00  0.00    -0.166 F 
ATOM     33  F   UNL     1      32.555 -12.353 -23.088  0.00  0.00    -0.166 F 
ATOM     34  C   UNL     1      33.558 -12.657 -23.964  0.00  0.00    +0.420 C 
ENDBRANCH  28  34
ENDBRANCH  24  26
ENDBRANCH  21  24
ENDBRANCH  11  18
TORSDOF 4
ENDMDL
MODEL 5
REMARK VINA RESULT:     -11.1      6.485     11.372
REMARK  Name = 24771824
REMARK  4 active torsions:
REMARK  status: ('A' for Active; 'I' for Inactive)
REMARK    1  A    between atoms: C_11  and  C_18
REMARK    2  A    between atoms: C_21  and  O_24
REMARK    3  A    between atoms: O_24  and  C_26
REMARK    4  A    between atoms: C_28  and  C_34
REMARK                            x       y       z     vdW  Elec       q    Type
REMARK                         _______ _______ _______ _____ _____    ______ ____
ROOT
ATOM      1  O   UNL     1      35.468 -15.169 -23.485  0.00  0.00    -0.252 OA
ATOM      2  N   UNL     1      35.209 -16.900 -21.972  0.00  0.00    -0.263 N 
ATOM      3  N   UNL     1      34.072 -14.855 -21.660  0.00  0.00    -0.252 N 
ATOM      4  N   UNL     1      34.047 -12.875 -22.989  0.00  0.00    -0.133 NA
ATOM      5  N   UNL     1      33.607 -11.609 -23.218  0.00  0.00    -0.145 NA
ATOM      6  C   UNL     1      37.208 -18.369 -21.861  0.00  0.00    +0.044 C 
ATOM      7  C   UNL     1      35.676 -18.138 -19.864  0.00  0.00    +0.044 C 
ATOM      8  C   UNL     1      36.105 -17.778 -22.738  0.00  0.00    +0.099 C 
ATOM      9  C   UNL     1      34.609 -17.518 -20.773  0.00  0.00    +0.099 C 
ATOM     10  C   UNL     1      36.605 -19.025 -20.649  0.00  0.00    -0.041 C 
ATOM     11  C   UNL     1      36.855 -20.297 -20.309  0.00  0.00    -0.008 C 
ATOM     12  C   UNL     1      34.957 -15.593 -22.445  0.00  0.00    +0.309 C 
ATOM     13  C   UNL     1      33.610 -13.536 -21.896  0.00  0.00    +0.157 C 
ATOM     14  C   UNL     1      32.729 -12.984 -20.988  0.00  0.00    +0.038 C 
ATOM     15  C   UNL     1      32.281 -11.696 -21.221  0.00  0.00    +0.025 C 
ATOM     16  C   UNL     1      32.745 -11.045 -22.347  0.00  0.00    +0.122 C 
ATOM     17  H   UNL     1      33.729 -15.301 -20.852  0.00  0.00    +0.158 HD
ENDROOT
BRANCH  11  18
ATOM     18  C   UNL     1      36.301 -20.999 -19.141  0.00  0.00    +0.002 C 
ATOM     19  C   UNL     1      36.937 -20.899 -17.903  0.00  0.00    +0.038 C 
ATOM     20  C   UNL     1      35.141 -21.761 -19.270  0.00  0.00    +0.000 C 
ATOM     21  C   UNL     1      36.411 -21.563 -16.795  0.00  0.00    +0.147 C 
ATOM     22  C   UNL     1      34.615 -22.425 -18.162  0.00  0.00    +0.003 C 
ATOM     23  C   UNL     1      35.251 -22.326 -16.924  0.00  0.00    +0.038 C 
BRANCH  21  24
ATOM     24  O   UNL     1      37.031 -21.467 -15.587  0.00  0.00    -0.436 OA
BRANCH  24  26
ATOM     25  N   UNL     1      38.139 -23.449 -15.056  0.00  0.00    -0.210 NA
ATOM     26  C   UNL     1      37.108 -22.610 -14.809  0.00  0.00    +0.230 C 
ATOM     27  C   UNL     1      36.145 -22.828 -13.838  0.00  0.00    +0.058 C 
ATOM     28  C   UNL     1      37.293 -24.871 -13.293  0.00  0.00    +0.091 C 
ATOM     29  C   UNL     1      36.246 -23.983 -13.069  0.00  0.00    +0.010 C 
ATOM     30  C   UNL     1      38.204 -24.561 -14.290  0.00  0.00    +0.106 C 
BRANCH  28  34
ATOM     31  F   UNL     1      36.594 -26.164 -11.405  0.00  0.00    -0.166 F 
ATOM     32  F   UNL     1      37.156 -27.257 -13.192  0.00  0.00    -0.166 F 
ATOM     33  F   UNL     1      38.686 -26.288 -11.988  0.00  0.00    -0.166 F 
ATOM     34  C   UNL     1      37.426 -26.116 -12.490  0.00  0.00    +0.420 C 
ENDBRANCH  28  34
ENDBRANCH  24  26
ENDBRANCH  21  24
ENDBRANCH  11  18
TORSDOF 4
ENDMDL
MODEL 6
REMARK VINA RESULT:     -10.9      4.872     10.628
REMARK  Name = 24771824
REMARK  4 active torsions:
REMARK  status: ('A' for Active; 'I' for Inactive)
REMARK    1  A    between atoms: C_11  and  C_18
REMARK    2  A    between atoms: C_21  and  O_24
REMARK    3  A    between atoms: O_24  and  C_26
REMARK    4  A    between atoms: C_28  and  C_34
REMARK                            x       y       z     vdW  Elec       q    Type
REMARK                         _______ _______ _______ _____ _____    ______ ____
ROOT
ATOM      1  O   UNL     1      32.891  -9.819 -23.788  0.00  0.00    -0.252 OA
ATOM      2  N   UNL     1      32.984 -12.120 -23.566  0.00  0.00    -0.263 N 
ATOM      3  N   UNL     1      32.447 -10.757 -21.714  0.00  0.00    -0.252 N 
ATOM      4  N   UNL     1      32.219  -8.390 -21.545  0.00  0.00    -0.133 NA
ATOM      5  N   UNL     1      31.949  -7.276 -20.812  0.00  0.00    -0.145 NA
ATOM      6  C   UNL     1      34.564 -13.164 -25.171  0.00  0.00    +0.044 C 
ATOM      7  C   UNL     1      34.057 -14.283 -22.962  0.00  0.00    +0.044 C 
ATOM      8  C   UNL     1      33.318 -12.300 -24.986  0.00  0.00    +0.099 C 
ATOM      9  C   UNL     1      32.834 -13.373 -22.799  0.00  0.00    +0.099 C 
ATOM     10  C   UNL     1      34.411 -14.455 -24.415  0.00  0.00    -0.041 C 
ATOM     11  C   UNL     1      34.556 -15.658 -24.990  0.00  0.00    -0.008 C 
ATOM     12  C   UNL     1      32.789 -10.814 -23.065  0.00  0.00    +0.309 C 
ATOM     13  C   UNL     1      32.165  -9.600 -20.948  0.00  0.00    +0.157 C 
ATOM     14  C   UNL     1      31.845  -9.765 -19.615  0.00  0.00    +0.038 C 
ATOM     15  C   UNL     1      31.570  -8.631 -18.869  0.00  0.00    +0.025 C 
ATOM     16  C   UNL     1      31.634  -7.408 -19.507  0.00  0.00    +0.122 C 
ATOM     17  H   UNL     1      32.397 -11.619 -21.240  0.00  0.00    +0.158 HD
ENDROOT
BRANCH  11  18
ATOM     18  C   UNL     1      34.420 -16.956 -24.311  0.00  0.00    +0.002 C 
ATOM     19  C   UNL     1      35.104 -17.193 -23.119  0.00  0.00    +0.038 C 
ATOM     20  C   UNL     1      33.609 -17.949 -24.859  0.00  0.00    +0.000 C 
ATOM     21  C   UNL     1      34.974 -18.423 -22.474  0.00  0.00    +0.147 C 
ATOM     22  C   UNL     1      33.479 -19.178 -24.215  0.00  0.00    +0.003 C 
ATOM     23  C   UNL     1      34.163 -19.416 -23.022  0.00  0.00    +0.038 C 
BRANCH  21  24
ATOM     24  O   UNL     1      35.641 -18.655 -21.310  0.00  0.00    -0.436 OA
BRANCH  24  26
ATOM     25  N   UNL     1      36.050 -20.385 -19.800  0.00  0.00    -0.210 NA
ATOM     26  C   UNL     1      35.145 -19.635 -20.467  0.00  0.00    +0.230 C 
ATOM     27  C   UNL     1      33.773 -19.791 -20.353  0.00  0.00    +0.058 C 
ATOM     28  C   UNL     1      34.200 -21.573 -18.795  0.00  0.00    +0.091 C 
ATOM     29  C   UNL     1      33.299 -20.781 -19.500  0.00  0.00    +0.010 C 
ATOM     30  C   UNL     1      35.553 -21.337 -18.979  0.00  0.00    +0.106 C 
BRANCH  28  34
ATOM     31  F   UNL     1      33.708 -23.887 -18.441  0.00  0.00    -0.166 F 
ATOM     32  F   UNL     1      34.482 -22.776 -16.747  0.00  0.00    -0.166 F 
ATOM     33  F   UNL     1      32.449 -22.428 -17.434  0.00  0.00    -0.166 F 
ATOM     34  C   UNL     1      33.724 -22.642 -17.877  0.00  0.00    +0.420 C 
ENDBRANCH  28  34
ENDBRANCH  24  26
ENDBRANCH  21  24
ENDBRANCH  11  18
TORSDOF 4
ENDMDL
MODEL 7
REMARK VINA RESULT:     -10.6      5.185     10.693
REMARK  Name = 24771824
REMARK  4 active torsions:
REMARK  status: ('A' for Active; 'I' for Inactive)
REMARK    1  A    between atoms: C_11  and  C_18
REMARK    2  A    between atoms: C_21  and  O_24
REMARK    3  A    between atoms: O_24  and  C_26
REMARK    4  A    between atoms: C_28  and  C_34
REMARK                            x       y       z     vdW  Elec       q    Type
REMARK                         _______ _______ _______ _____ _____    ______ ____
ROOT
ATOM      1  O   UNL     1      33.882 -12.111 -23.504  0.00  0.00    -0.252 OA
ATOM      2  N   UNL     1      33.827 -14.210 -22.532  0.00  0.00    -0.263 N 
ATOM      3  N   UNL     1      32.923 -12.342 -21.406  0.00  0.00    -0.252 N 
ATOM      4  N   UNL     1      32.757 -10.059 -22.073  0.00  0.00    -0.133 NA
ATOM      5  N   UNL     1      32.367  -8.779 -21.827  0.00  0.00    -0.145 NA
ATOM      6  C   UNL     1      35.698 -15.654 -23.290  0.00  0.00    +0.044 C 
ATOM      7  C   UNL     1      34.637 -16.015 -21.024  0.00  0.00    +0.044 C 
ATOM      8  C   UNL     1      34.480 -14.827 -23.695  0.00  0.00    +0.099 C 
ATOM      9  C   UNL     1      33.449 -15.151 -21.460  0.00  0.00    +0.099 C 
ATOM     10  C   UNL     1      35.318 -16.636 -22.215  0.00  0.00    -0.041 C 
ATOM     11  C   UNL     1      35.546 -17.953 -22.317  0.00  0.00    -0.008 C 
ATOM     12  C   UNL     1      33.571 -12.820 -22.543  0.00  0.00    +0.309 C 
ATOM     13  C   UNL     1      32.514 -11.011 -21.146  0.00  0.00    +0.157 C 
ATOM     14  C   UNL     1      31.882 -10.746 -19.947  0.00  0.00    +0.038 C 
ATOM     15  C   UNL     1      31.485  -9.444 -19.698  0.00  0.00    +0.025 C 
ATOM     16  C   UNL     1      31.747  -8.493 -20.663  0.00  0.00    +0.122 C 
ATOM     17  H   UNL     1      32.726 -13.005 -20.704  0.00  0.00    +0.158 HD
ENDROOT
BRANCH  11  18
ATOM     18  C   UNL     1      35.201 -18.965 -21.306  0.00  0.00    +0.002 C 
ATOM     19  C   UNL     1      36.199 -19.510 -20.498  0.00  0.00    +0.038 C 
ATOM     20  C   UNL     1      33.878 -19.379 -21.156  0.00  0.00    +0.000 C 
ATOM     21  C   UNL     1      35.873 -20.468 -19.538  0.00  0.00    +0.147 C 
ATOM     22  C   UNL     1      33.552 -20.337 -20.197  0.00  0.00    +0.003 C 
ATOM     23  C   UNL     1      34.550 -20.882 -19.388  0.00  0.00    +0.038 C 
BRANCH  21  24
ATOM     24  O   UNL     1      36.846 -21.000 -18.749  0.00  0.00    -0.436 OA
BRANCH  24  26
ATOM     25  N   UNL     1      35.291 -22.313 -17.610  0.00  0.00    -0.210 NA
ATOM     26  C   UNL     1      36.455 -21.626 -17.578  0.00  0.00    +0.230 C 
ATOM     27  C   UNL     1      37.262 -21.518 -16.457  0.00  0.00    +0.058 C 
ATOM     28  C   UNL     1      35.657 -22.875 -15.287  0.00  0.00    +0.091 C 
ATOM     29  C   UNL     1      36.849 -22.157 -15.293  0.00  0.00    +0.010 C 
ATOM     30  C   UNL     1      34.921 -22.921 -16.460  0.00  0.00    +0.106 C 
BRANCH  28  34
ATOM     31  F   UNL     1      35.684 -23.033 -12.900  0.00  0.00    -0.166 F 
ATOM     32  F   UNL     1      33.829 -23.548 -13.899  0.00  0.00    -0.166 F 
ATOM     33  F   UNL     1      35.537 -24.887 -14.027  0.00  0.00    -0.166 F 
ATOM     34  C   UNL     1      35.186 -23.567 -14.057  0.00  0.00    +0.420 C 
ENDBRANCH  28  34
ENDBRANCH  24  26
ENDBRANCH  21  24
ENDBRANCH  11  18
TORSDOF 4
ENDMDL
MODEL 8
REMARK VINA RESULT:     -10.6      4.296     10.253
REMARK  Name = 24771824
REMARK  4 active torsions:
REMARK  status: ('A' for Active; 'I' for Inactive)
REMARK    1  A    between atoms: C_11  and  C_18
REMARK    2  A    between atoms: C_21  and  O_24
REMARK    3  A    between atoms: O_24  and  C_26
REMARK    4  A    between atoms: C_28  and  C_34
REMARK                            x       y       z     vdW  Elec       q    Type
REMARK                         _______ _______ _______ _____ _____    ______ ____
ROOT
ATOM      1  O   UNL     1      34.959 -14.816 -23.432  0.00  0.00    -0.252 OA
ATOM      2  N   UNL     1      34.938 -16.575 -21.930  0.00  0.00    -0.263 N 
ATOM      3  N   UNL     1      33.804 -14.564 -21.437  0.00  0.00    -0.252 N 
ATOM      4  N   UNL     1      33.562 -12.566 -22.715  0.00  0.00    -0.133 NA
ATOM      5  N   UNL     1      33.067 -11.308 -22.862  0.00  0.00    -0.145 NA
ATOM      6  C   UNL     1      36.967 -17.995 -22.106  0.00  0.00    +0.044 C 
ATOM      7  C   UNL     1      35.702 -17.833 -19.923  0.00  0.00    +0.044 C 
ATOM      8  C   UNL     1      35.746 -17.419 -22.822  0.00  0.00    +0.099 C 
ATOM      9  C   UNL     1      34.512 -17.226 -20.676  0.00  0.00    +0.099 C 
ATOM     10  C   UNL     1      36.541 -18.684 -20.838  0.00  0.00    -0.041 C 
ATOM     11  C   UNL     1      36.862 -19.955 -20.557  0.00  0.00    -0.008 C 
ATOM     12  C   UNL     1      34.597 -15.268 -22.342  0.00  0.00    +0.309 C 
ATOM     13  C   UNL     1      33.286 -13.254 -21.586  0.00  0.00    +0.157 C 
ATOM     14  C   UNL     1      32.517 -12.738 -20.562  0.00  0.00    +0.038 C 
ATOM     15  C   UNL     1      32.013 -11.458 -20.712  0.00  0.00    +0.025 C 
ATOM     16  C   UNL     1      32.313 -10.778 -21.877  0.00  0.00    +0.122 C 
ATOM     17  H   UNL     1      33.579 -15.031 -20.599  0.00  0.00    +0.158 HD
ENDROOT
BRANCH  11  18
ATOM     18  C   UNL     1      36.480 -20.688 -19.340  0.00  0.00    +0.002 C 
ATOM     19  C   UNL     1      35.387 -21.554 -19.363  0.00  0.00    +0.038 C 
ATOM     20  C   UNL     1      37.211 -20.518 -18.164  0.00  0.00    +0.000 C 
ATOM     21  C   UNL     1      35.026 -22.251 -18.209  0.00  0.00    +0.147 C 
ATOM     22  C   UNL     1      36.850 -21.214 -17.011  0.00  0.00    +0.003 C 
ATOM     23  C   UNL     1      35.756 -22.081 -17.034  0.00  0.00    +0.038 C 
BRANCH  21  24
ATOM     24  O   UNL     1      33.959 -23.096 -18.231  0.00  0.00    -0.436 OA
BRANCH  24  26
ATOM     25  N   UNL     1      31.887 -22.706 -17.235  0.00  0.00    -0.210 NA
ATOM     26  C   UNL     1      33.157 -23.150 -17.104  0.00  0.00    +0.230 C 
ATOM     27  C   UNL     1      33.687 -23.648 -15.925  0.00  0.00    +0.058 C 
ATOM     28  C   UNL     1      31.547 -23.245 -14.903  0.00  0.00    +0.091 C 
ATOM     29  C   UNL     1      32.861 -23.693 -14.807  0.00  0.00    +0.010 C 
ATOM     30  C   UNL     1      31.113 -22.765 -16.128  0.00  0.00    +0.106 C 
BRANCH  28  34
ATOM     31  F   UNL     1      30.111 -24.513 -13.470  0.00  0.00    -0.166 F 
ATOM     32  F   UNL     1      31.241 -22.904 -12.555  0.00  0.00    -0.166 F 
ATOM     33  F   UNL     1      29.565 -22.445 -13.862  0.00  0.00    -0.166 F 
ATOM     34  C   UNL     1      30.640 -23.278 -13.724  0.00  0.00    +0.420 C 
ENDBRANCH  28  34
ENDBRANCH  24  26
ENDBRANCH  21  24
ENDBRANCH  11  18
TORSDOF 4
ENDMDL
MODEL 9
REMARK VINA RESULT:     -10.5      6.439     12.849
REMARK  Name = 24771824
REMARK  4 active torsions:
REMARK  status: ('A' for Active; 'I' for Inactive)
REMARK    1  A    between atoms: C_11  and  C_18
REMARK    2  A    between atoms: C_21  and  O_24
REMARK    3  A    between atoms: O_24  and  C_26
REMARK    4  A    between atoms: C_28  and  C_34
REMARK                            x       y       z     vdW  Elec       q    Type
REMARK                         _______ _______ _______ _____ _____    ______ ____
ROOT
ATOM      1  O   UNL     1      32.141  -6.381 -20.070  0.00  0.00    -0.252 OA
ATOM      2  N   UNL     1      32.755  -8.050 -21.550  0.00  0.00    -0.263 N 
ATOM      3  N   UNL     1      32.490  -5.826 -22.295  0.00  0.00    -0.252 N 
ATOM      4  N   UNL     1      31.911  -3.847 -21.096  0.00  0.00    -0.133 NA
ATOM      5  N   UNL     1      31.675  -2.508 -21.067  0.00  0.00    -0.145 NA
ATOM      6  C   UNL     1      31.904 -10.280 -20.869  0.00  0.00    +0.044 C 
ATOM      7  C   UNL     1      32.346  -9.768 -23.304  0.00  0.00    +0.044 C 
ATOM      8  C   UNL     1      32.753  -9.068 -20.490  0.00  0.00    +0.099 C 
ATOM      9  C   UNL     1      33.162  -8.541 -22.882  0.00  0.00    +0.099 C 
ATOM     10  C   UNL     1      32.328 -10.805 -22.213  0.00  0.00    -0.041 C 
ATOM     11  C   UNL     1      32.682 -12.082 -22.419  0.00  0.00    -0.008 C 
ATOM     12  C   UNL     1      32.428  -6.715 -21.223  0.00  0.00    +0.309 C 
ATOM     13  C   UNL     1      32.245  -4.430 -22.268  0.00  0.00    +0.157 C 
ATOM     14  C   UNL     1      32.360  -3.727 -23.450  0.00  0.00    +0.038 C 
ATOM     15  C   UNL     1      32.120  -2.364 -23.419  0.00  0.00    +0.025 C 
ATOM     16  C   UNL     1      31.780  -1.796 -22.208  0.00  0.00    +0.122 C 
ATOM     17  H   UNL     1      32.730  -6.210 -23.169  0.00  0.00    +0.158 HD
ENDROOT
BRANCH  11  18
ATOM     18  C   UNL     1      33.105 -12.659 -23.704  0.00  0.00    +0.002 C 
ATOM     19  C   UNL     1      33.178 -14.044 -23.854  0.00  0.00    +0.038 C 
ATOM     20  C   UNL     1      33.432 -11.823 -24.771  0.00  0.00    +0.000 C 
ATOM     21  C   UNL     1      33.578 -14.592 -25.073  0.00  0.00    +0.147 C 
ATOM     22  C   UNL     1      33.832 -12.371 -25.989  0.00  0.00    +0.003 C 
ATOM     23  C   UNL     1      33.905 -13.757 -26.140  0.00  0.00    +0.038 C 
BRANCH  21  24
ATOM     24  O   UNL     1      33.649 -15.943 -25.221  0.00  0.00    -0.436 OA
BRANCH  24  26
ATOM     25  N   UNL     1      35.025 -15.972 -23.338  0.00  0.00    -0.210 NA
ATOM     26  C   UNL     1      34.275 -16.668 -24.221  0.00  0.00    +0.230 C 
ATOM     27  C   UNL     1      34.101 -18.042 -24.178  0.00  0.00    +0.058 C 
ATOM     28  C   UNL     1      35.520 -18.066 -22.235  0.00  0.00    +0.091 C 
ATOM     29  C   UNL     1      34.739 -18.748 -23.163  0.00  0.00    +0.010 C 
ATOM     30  C   UNL     1      35.630 -16.691 -22.365  0.00  0.00    +0.106 C 
BRANCH  28  34
ATOM     31  F   UNL     1      36.105 -18.188 -19.918  0.00  0.00    -0.166 F 
ATOM     32  F   UNL     1      35.761 -20.067 -20.947  0.00  0.00    -0.166 F 
ATOM     33  F   UNL     1      37.560 -18.918 -21.360  0.00  0.00    -0.166 F 
ATOM     34  C   UNL     1      36.217 -18.793 -21.140  0.00  0.00    +0.420 C 
ENDBRANCH  28  34
ENDBRANCH  24  26
ENDBRANCH  21  24
ENDBRANCH  11  18
TORSDOF 4
ENDMDL
