MODEL 1
REMARK VINA RESULT:     -11.8      0.000      0.000
REMARK  Name = 11626560
REMARK  5 active torsions:
REMARK  status: ('A' for Active; 'I' for Inactive)
REMARK    1  A    between atoms: C_2  and  C_10
REMARK    2  A    between atoms: C_5  and  O_23
REMARK    3  A    between atoms: N_7  and  C_13
REMARK    4  A    between atoms: O_23  and  C_24
REMARK    5  A    between atoms: C_24  and  C_29
REMARK                            x       y       z     vdW  Elec       q    Type
REMARK                         _______ _______ _______ _____ _____    ______ ____
ROOT
ATOM      1  N   UNL     1      32.793 -21.833 -18.934  0.00  0.00    -0.226 NA
ATOM      2  C   UNL     1      34.798 -20.617 -19.533  0.00  0.00    +0.025 C 
ATOM      3  C   UNL     1      35.521 -21.334 -18.583  0.00  0.00    +0.041 C 
ATOM      4  C   UNL     1      33.448 -20.904 -19.666  0.00  0.00    +0.101 C 
ATOM      5  C   UNL     1      34.884 -22.298 -17.811  0.00  0.00    +0.170 C 
ATOM      6  C   UNL     1      33.530 -22.508 -18.023  0.00  0.00    +0.160 C 
ATOM      7  N   UNL     1      32.879 -23.491 -17.238  0.00  0.00    -0.340 N 
ATOM      8  H   UNL     1      31.918 -23.665 -17.363  0.00  0.00    +0.144 HD
ATOM      9  H   UNL     1      33.387 -24.001 -16.566  0.00  0.00    +0.144 HD
ENDROOT
BRANCH   2  13
ATOM     10  N   UNL     1      35.705 -17.978 -21.751  0.00  0.00    -0.212 N 
ATOM     11  N   UNL     1      36.957 -18.266 -21.364  0.00  0.00    -0.176 NA
ATOM     12  C   UNL     1      34.751 -18.756 -21.170  0.00  0.00    +0.086 C 
ATOM     13  C   UNL     1      35.427 -19.619 -20.342  0.00  0.00    +0.039 C 
ATOM     14  C   UNL     1      36.782 -19.272 -20.503  0.00  0.00    +0.119 C 
BRANCH  10  16
ATOM     15  N   UNL     1      33.797 -14.986 -24.153  0.00  0.00    +0.384 N 
ATOM     16  C   UNL     1      35.475 -16.901 -22.718  0.00  0.00    +0.092 C 
ATOM     17  C   UNL     1      34.956 -15.613 -22.059  0.00  0.00    -0.002 C 
ATOM     18  C   UNL     1      34.552 -17.325 -23.872  0.00  0.00    -0.002 C 
ATOM     19  C   UNL     1      34.709 -14.526 -23.105  0.00  0.00    -0.080 C 
ATOM     20  C   UNL     1      34.321 -16.166 -24.841  0.00  0.00    -0.080 C 
ATOM     21  H   UNL     1      33.668 -14.237 -24.833  0.00  0.00    -0.085 HD
ATOM     22  H   UNL     1      32.910 -15.238 -23.718  0.00  0.00    -0.085 HD
ENDBRANCH  10  16
ENDBRANCH   2  13
BRANCH   5  23
ATOM     23  O   UNL     1      35.588 -22.999 -16.884  0.00  0.00    -0.472 OA
BRANCH  23  24
ATOM     24  C   UNL     1      35.962 -22.310 -15.691  0.00  0.00    +0.190 C 
ATOM     25  C   UNL     1      37.243 -21.522 -15.940  0.00  0.00    +0.052 C 
BRANCH  24  29
ATOM     26 CL   UNL     1      38.718 -23.565 -15.356  0.00  0.00    -0.080 Cl
ATOM     27 CL   UNL     1      33.489 -22.866 -13.990  0.00  0.00    -0.082 Cl
ATOM     28  F   UNL     1      38.673 -25.444 -13.101  0.00  0.00    -0.203 F 
ATOM     29  C   UNL     1      36.120 -23.309 -14.568  0.00  0.00    +0.041 C 
ATOM     30  C   UNL     1      37.351 -23.919 -14.361  0.00  0.00    +0.085 C 
ATOM     31  C   UNL     1      35.032 -23.606 -13.757  0.00  0.00    +0.058 C 
ATOM     32  C   UNL     1      37.496 -24.840 -13.324  0.00  0.00    +0.150 C 
ATOM     33  C   UNL     1      35.178 -24.528 -12.721  0.00  0.00    +0.014 C 
ATOM     34  C   UNL     1      36.409 -25.145 -12.505  0.00  0.00    +0.031 C 
ENDBRANCH  24  29
ENDBRANCH  23  24
ENDBRANCH   5  23
TORSDOF 5
ENDMDL
MODEL 2
REMARK VINA RESULT:     -11.7      0.861      1.871
REMARK  Name = 11626560
REMARK  5 active torsions:
REMARK  status: ('A' for Active; 'I' for Inactive)
REMARK    1  A    between atoms: C_2  and  C_10
REMARK    2  A    between atoms: C_5  and  O_23
REMARK    3  A    between atoms: N_7  and  C_13
REMARK    4  A    between atoms: O_23  and  C_24
REMARK    5  A    between atoms: C_24  and  C_29
REMARK                            x       y       z     vdW  Elec       q    Type
REMARK                         _______ _______ _______ _____ _____    ______ ____
ROOT
ATOM      1  N   UNL     1      32.750 -21.757 -19.018  0.00  0.00    -0.226 NA
ATOM      2  C   UNL     1      34.754 -20.552 -19.643  0.00  0.00    +0.025 C 
ATOM      3  C   UNL     1      35.484 -21.269 -18.699  0.00  0.00    +0.041 C 
ATOM      4  C   UNL     1      33.401 -20.833 -19.760  0.00  0.00    +0.101 C 
ATOM      5  C   UNL     1      34.851 -22.227 -17.916  0.00  0.00    +0.170 C 
ATOM      6  C   UNL     1      33.494 -22.432 -18.112  0.00  0.00    +0.160 C 
ATOM      7  N   UNL     1      32.847 -23.410 -17.318  0.00  0.00    -0.340 N 
ATOM      8  H   UNL     1      31.884 -23.580 -17.431  0.00  0.00    +0.144 HD
ATOM      9  H   UNL     1      33.361 -23.920 -16.649  0.00  0.00    +0.144 HD
ENDROOT
BRANCH   2  13
ATOM     10  N   UNL     1      35.647 -17.911 -21.864  0.00  0.00    -0.212 N 
ATOM     11  N   UNL     1      36.904 -18.229 -21.520  0.00  0.00    -0.176 NA
ATOM     12  C   UNL     1      34.695 -18.674 -21.261  0.00  0.00    +0.086 C 
ATOM     13  C   UNL     1      35.378 -19.559 -20.462  0.00  0.00    +0.039 C 
ATOM     14  C   UNL     1      36.735 -19.238 -20.662  0.00  0.00    +0.119 C 
BRANCH  10  16
ATOM     15  N   UNL     1      33.722 -14.881 -24.204  0.00  0.00    +0.384 N 
ATOM     16  C   UNL     1      35.409 -16.820 -22.814  0.00  0.00    +0.092 C 
ATOM     17  C   UNL     1      34.901 -15.540 -22.132  0.00  0.00    -0.002 C 
ATOM     18  C   UNL     1      34.472 -17.225 -23.963  0.00  0.00    -0.002 C 
ATOM     19  C   UNL     1      34.646 -14.438 -23.161  0.00  0.00    -0.080 C 
ATOM     20  C   UNL     1      34.235 -16.052 -24.915  0.00  0.00    -0.080 C 
ATOM     21  H   UNL     1      33.587 -14.122 -24.873  0.00  0.00    -0.085 HD
ATOM     22  H   UNL     1      32.838 -15.136 -23.763  0.00  0.00    -0.085 HD
ENDBRANCH  10  16
ENDBRANCH   2  13
BRANCH   5  23
ATOM     23  O   UNL     1      35.563 -22.928 -16.995  0.00  0.00    -0.472 OA
BRANCH  23  24
ATOM     24  C   UNL     1      35.970 -22.232 -15.817  0.00  0.00    +0.190 C 
ATOM     25  C   UNL     1      37.251 -21.457 -16.104  0.00  0.00    +0.052 C 
BRANCH  24  29
ATOM     26 CL   UNL     1      33.520 -22.790 -14.094  0.00  0.00    -0.080 Cl
ATOM     27 CL   UNL     1      38.742 -23.468 -15.496  0.00  0.00    -0.082 Cl
ATOM     28  F   UNL     1      34.208 -24.744 -12.014  0.00  0.00    -0.203 F 
ATOM     29  C   UNL     1      36.146 -23.222 -14.689  0.00  0.00    +0.041 C 
ATOM     30  C   UNL     1      35.068 -23.521 -13.865  0.00  0.00    +0.085 C 
ATOM     31  C   UNL     1      37.383 -23.821 -14.490  0.00  0.00    +0.058 C 
ATOM     32  C   UNL     1      35.231 -24.435 -12.825  0.00  0.00    +0.150 C 
ATOM     33  C   UNL     1      37.546 -24.734 -13.449  0.00  0.00    +0.014 C 
ATOM     34  C   UNL     1      36.470 -25.041 -12.616  0.00  0.00    +0.031 C 
ENDBRANCH  24  29
ENDBRANCH  23  24
ENDBRANCH   5  23
TORSDOF 5
ENDMDL
MODEL 3
REMARK VINA RESULT:     -11.4      5.970     11.250
REMARK  Name = 11626560
REMARK  5 active torsions:
REMARK  status: ('A' for Active; 'I' for Inactive)
REMARK    1  A    between atoms: C_2  and  C_10
REMARK    2  A    between atoms: C_5  and  O_23
REMARK    3  A    between atoms: N_7  and  C_13
REMARK    4  A    between atoms: O_23  and  C_24
REMARK    5  A    between atoms: C_24  and  C_29
REMARK                            x       y       z     vdW  Elec       q    Type
REMARK                         _______ _______ _______ _____ _____    ______ ____
ROOT
ATOM      1  N   UNL     1      34.497 -16.374 -25.456  0.00  0.00    -0.226 NA
ATOM      2  C   UNL     1      34.871 -16.980 -23.143  0.00  0.00    +0.025 C 
ATOM      3  C   UNL     1      34.246 -15.807 -22.730  0.00  0.00    +0.041 C 
ATOM      4  C   UNL     1      34.969 -17.213 -24.506  0.00  0.00    +0.101 C 
ATOM      5  C   UNL     1      33.748 -14.918 -23.675  0.00  0.00    +0.170 C 
ATOM      6  C   UNL     1      33.897 -15.245 -25.014  0.00  0.00    +0.160 C 
ATOM      7  N   UNL     1      33.387 -14.342 -25.980  0.00  0.00    -0.340 N 
ATOM      8  H   UNL     1      33.476 -14.544 -26.939  0.00  0.00    +0.144 HD
ATOM      9  H   UNL     1      32.943 -13.511 -25.691  0.00  0.00    +0.144 HD
ENDROOT
BRANCH   2  13
ATOM     10  N   UNL     1      35.535 -19.598 -20.816  0.00  0.00    -0.212 N 
ATOM     11  N   UNL     1      36.752 -19.040 -20.743  0.00  0.00    -0.176 NA
ATOM     12  C   UNL     1      34.683 -18.965 -21.669  0.00  0.00    +0.086 C 
ATOM     13  C   UNL     1      35.395 -17.913 -22.193  0.00  0.00    +0.039 C 
ATOM     14  C   UNL     1      36.662 -18.009 -21.587  0.00  0.00    +0.119 C 
BRANCH  10  16
ATOM     15  N   UNL     1      34.397 -22.153 -17.569  0.00  0.00    +0.384 N 
ATOM     16  C   UNL     1      35.233 -20.788 -20.014  0.00  0.00    +0.092 C 
ATOM     17  C   UNL     1      33.762 -20.847 -19.572  0.00  0.00    -0.002 C 
ATOM     18  C   UNL     1      36.165 -20.940 -18.802  0.00  0.00    -0.002 C 
ATOM     19  C   UNL     1      33.498 -22.089 -18.721  0.00  0.00    -0.080 C 
ATOM     20  C   UNL     1      35.800 -22.178 -17.984  0.00  0.00    -0.080 C 
ATOM     21  H   UNL     1      34.194 -22.998 -17.036  0.00  0.00    -0.085 HD
ATOM     22  H   UNL     1      34.247 -21.320 -16.999  0.00  0.00    -0.085 HD
ENDBRANCH  10  16
ENDBRANCH   2  13
BRANCH   5  23
ATOM     23  O   UNL     1      33.137 -13.773 -23.274  0.00  0.00    -0.472 OA
BRANCH  23  24
ATOM     24  C   UNL     1      33.966 -12.753 -22.715  0.00  0.00    +0.190 C 
ATOM     25  C   UNL     1      34.672 -13.296 -21.477  0.00  0.00    +0.052 C 
BRANCH  24  29
ATOM     26 CL   UNL     1      31.856 -13.086 -20.542  0.00  0.00    -0.080 Cl
ATOM     27 CL   UNL     1      34.543 -10.222 -24.319  0.00  0.00    -0.082 Cl
ATOM     28  F   UNL     1      30.406 -10.559 -20.188  0.00  0.00    -0.203 F 
ATOM     29  C   UNL     1      33.120 -11.542 -22.400  0.00  0.00    +0.041 C 
ATOM     30  C   UNL     1      32.139 -11.626 -21.420  0.00  0.00    +0.085 C 
ATOM     31  C   UNL     1      33.333 -10.358 -23.095  0.00  0.00    +0.058 C 
ATOM     32  C   UNL     1      31.359 -10.507 -21.129  0.00  0.00    +0.150 C 
ATOM     33  C   UNL     1      32.553  -9.240 -22.804  0.00  0.00    +0.014 C 
ATOM     34  C   UNL     1      31.565  -9.314 -21.822  0.00  0.00    +0.031 C 
ENDBRANCH  24  29
ENDBRANCH  23  24
ENDBRANCH   5  23
TORSDOF 5
ENDMDL
MODEL 4
REMARK VINA RESULT:     -11.4      4.742      7.632
REMARK  Name = 11626560
REMARK  5 active torsions:
REMARK  status: ('A' for Active; 'I' for Inactive)
REMARK    1  A    between atoms: C_2  and  C_10
REMARK    2  A    between atoms: C_5  and  O_23
REMARK    3  A    between atoms: N_7  and  C_13
REMARK    4  A    between atoms: O_23  and  C_24
REMARK    5  A    between atoms: C_24  and  C_29
REMARK                            x       y       z     vdW  Elec       q    Type
REMARK                         _______ _______ _______ _____ _____    ______ ____
ROOT
ATOM      1  N   UNL     1      33.420 -17.153 -25.393  0.00  0.00    -0.226 NA
ATOM      2  C   UNL     1      33.834 -15.115 -24.156  0.00  0.00    +0.025 C 
ATOM      3  C   UNL     1      34.501 -15.842 -23.174  0.00  0.00    +0.041 C 
ATOM      4  C   UNL     1      33.316 -15.814 -25.235  0.00  0.00    +0.101 C 
ATOM      5  C   UNL     1      34.628 -17.220 -23.299  0.00  0.00    +0.170 C 
ATOM      6  C   UNL     1      34.074 -17.823 -24.418  0.00  0.00    +0.160 C 
ATOM      7  N   UNL     1      34.205 -19.228 -24.549  0.00  0.00    -0.340 N 
ATOM      8  H   UNL     1      33.823 -19.688 -25.331  0.00  0.00    +0.144 HD
ATOM      9  H   UNL     1      34.677 -19.746 -23.856  0.00  0.00    +0.144 HD
ENDROOT
BRANCH   2  13
ATOM     10  N   UNL     1      33.367 -11.708 -23.215  0.00  0.00    -0.212 N 
ATOM     11  N   UNL     1      33.561 -11.463 -24.520  0.00  0.00    -0.176 NA
ATOM     12  C   UNL     1      33.433 -13.027 -22.882  0.00  0.00    +0.086 C 
ATOM     13  C   UNL     1      33.687 -13.696 -24.054  0.00  0.00    +0.039 C 
ATOM     14  C   UNL     1      33.756 -12.682 -25.030  0.00  0.00    +0.119 C 
BRANCH  10  16
ATOM     15  N   UNL     1      31.511  -8.400 -21.221  0.00  0.00    +0.384 N 
ATOM     16  C   UNL     1      33.115 -10.593 -22.298  0.00  0.00    +0.092 C 
ATOM     17  C   UNL     1      31.902 -10.837 -21.386  0.00  0.00    -0.002 C 
ATOM     18  C   UNL     1      32.980  -9.245 -23.023  0.00  0.00    -0.002 C 
ATOM     19  C   UNL     1      31.664  -9.643 -20.464  0.00  0.00    -0.080 C 
ATOM     20  C   UNL     1      32.696  -8.117 -22.032  0.00  0.00    -0.080 C 
ATOM     21  H   UNL     1      31.364  -7.630 -20.570  0.00  0.00    -0.085 HD
ATOM     22  H   UNL     1      30.712  -8.503 -21.848  0.00  0.00    -0.085 HD
ENDBRANCH  10  16
ENDBRANCH   2  13
BRANCH   5  23
ATOM     23  O   UNL     1      35.280 -17.931 -22.342  0.00  0.00    -0.472 OA
BRANCH  23  24
ATOM     24  C   UNL     1      34.679 -17.985 -21.048  0.00  0.00    +0.190 C 
ATOM     25  C   UNL     1      35.188 -16.823 -20.203  0.00  0.00    +0.052 C 
BRANCH  24  29
ATOM     26 CL   UNL     1      32.286 -19.663 -20.184  0.00  0.00    -0.080 Cl
ATOM     27 CL   UNL     1      37.624 -18.733 -20.762  0.00  0.00    -0.082 Cl
ATOM     28  F   UNL     1      33.228 -22.179 -19.002  0.00  0.00    -0.203 F 
ATOM     29  C   UNL     1      34.982 -19.323 -20.414  0.00  0.00    +0.041 C 
ATOM     30  C   UNL     1      33.936 -20.137 -19.997  0.00  0.00    +0.085 C 
ATOM     31  C   UNL     1      36.303 -19.722 -20.256  0.00  0.00    +0.058 C 
ATOM     32  C   UNL     1      34.217 -21.373 -19.413  0.00  0.00    +0.150 C 
ATOM     33  C   UNL     1      36.583 -20.957 -19.671  0.00  0.00    +0.014 C 
ATOM     34  C   UNL     1      35.541 -21.782 -19.249  0.00  0.00    +0.031 C 
ENDBRANCH  24  29
ENDBRANCH  23  24
ENDBRANCH   5  23
TORSDOF 5
ENDMDL
MODEL 5
REMARK VINA RESULT:     -11.3      6.299     11.383
REMARK  Name = 11626560
REMARK  5 active torsions:
REMARK  status: ('A' for Active; 'I' for Inactive)
REMARK    1  A    between atoms: C_2  and  C_10
REMARK    2  A    between atoms: C_5  and  O_23
REMARK    3  A    between atoms: N_7  and  C_13
REMARK    4  A    between atoms: O_23  and  C_24
REMARK    5  A    between atoms: C_24  and  C_29
REMARK                            x       y       z     vdW  Elec       q    Type
REMARK                         _______ _______ _______ _____ _____    ______ ____
ROOT
ATOM      1  N   UNL     1      34.461 -16.211 -25.508  0.00  0.00    -0.226 NA
ATOM      2  C   UNL     1      34.841 -16.866 -23.209  0.00  0.00    +0.025 C 
ATOM      3  C   UNL     1      34.215 -15.702 -22.771  0.00  0.00    +0.041 C 
ATOM      4  C   UNL     1      34.937 -17.069 -24.577  0.00  0.00    +0.101 C 
ATOM      5  C   UNL     1      33.713 -14.795 -23.696  0.00  0.00    +0.170 C 
ATOM      6  C   UNL     1      33.860 -15.093 -25.042  0.00  0.00    +0.160 C 
ATOM      7  N   UNL     1      33.347 -14.171 -25.988  0.00  0.00    -0.340 N 
ATOM      8  H   UNL     1      33.435 -14.353 -26.951  0.00  0.00    +0.144 HD
ATOM      9  H   UNL     1      32.902 -13.348 -25.681  0.00  0.00    +0.144 HD
ENDROOT
BRANCH   2  13
ATOM     10  N   UNL     1      35.507 -19.518 -20.923  0.00  0.00    -0.212 N 
ATOM     11  N   UNL     1      36.736 -18.984 -20.872  0.00  0.00    -0.176 NA
ATOM     12  C   UNL     1      34.648 -18.861 -21.750  0.00  0.00    +0.086 C 
ATOM     13  C   UNL     1      35.368 -17.817 -22.280  0.00  0.00    +0.039 C 
ATOM     14  C   UNL     1      36.647 -17.943 -21.704  0.00  0.00    +0.119 C 
BRANCH  10  16
ATOM     15  N   UNL     1      34.394 -22.082 -17.674  0.00  0.00    +0.384 N 
ATOM     16  C   UNL     1      35.200 -20.709 -20.125  0.00  0.00    +0.092 C 
ATOM     17  C   UNL     1      33.739 -20.745 -19.649  0.00  0.00    -0.002 C 
ATOM     18  C   UNL     1      36.157 -20.891 -18.936  0.00  0.00    -0.002 C 
ATOM     19  C   UNL     1      33.470 -21.990 -18.805  0.00  0.00    -0.080 C 
ATOM     20  C   UNL     1      35.786 -22.130 -18.121  0.00  0.00    -0.080 C 
ATOM     21  H   UNL     1      34.187 -22.929 -17.144  0.00  0.00    -0.085 HD
ATOM     22  H   UNL     1      34.273 -21.252 -17.093  0.00  0.00    -0.085 HD
ENDBRANCH  10  16
ENDBRANCH   2  13
BRANCH   5  23
ATOM     23  O   UNL     1      33.100 -13.660 -23.269  0.00  0.00    -0.472 OA
BRANCH  23  24
ATOM     24  C   UNL     1      33.927 -12.653 -22.686  0.00  0.00    +0.190 C 
ATOM     25  C   UNL     1      34.603 -13.212 -21.439  0.00  0.00    +0.052 C 
BRANCH  24  29
ATOM     26 CL   UNL     1      34.545 -10.128 -24.276  0.00  0.00    -0.080 Cl
ATOM     27 CL   UNL     1      31.785 -12.971 -20.535  0.00  0.00    -0.082 Cl
ATOM     28  F   UNL     1      32.740  -7.972 -23.433  0.00  0.00    -0.203 F 
ATOM     29  C   UNL     1      33.087 -11.435 -22.378  0.00  0.00    +0.041 C 
ATOM     30  C   UNL     1      33.317 -10.251 -23.067  0.00  0.00    +0.085 C 
ATOM     31  C   UNL     1      32.094 -11.515 -21.409  0.00  0.00    +0.058 C 
ATOM     32  C   UNL     1      32.540  -9.128 -22.783  0.00  0.00    +0.150 C 
ATOM     33  C   UNL     1      31.319 -10.392 -21.126  0.00  0.00    +0.014 C 
ATOM     34  C   UNL     1      31.542  -9.198 -21.812  0.00  0.00    +0.031 C 
ENDBRANCH  24  29
ENDBRANCH  23  24
ENDBRANCH   5  23
TORSDOF 5
ENDMDL
MODEL 6
REMARK VINA RESULT:     -11.1      4.960     10.360
REMARK  Name = 11626560
REMARK  5 active torsions:
REMARK  status: ('A' for Active; 'I' for Inactive)
REMARK    1  A    between atoms: C_2  and  C_10
REMARK    2  A    between atoms: C_5  and  O_23
REMARK    3  A    between atoms: N_7  and  C_13
REMARK    4  A    between atoms: O_23  and  C_24
REMARK    5  A    between atoms: C_24  and  C_29
REMARK                            x       y       z     vdW  Elec       q    Type
REMARK                         _______ _______ _______ _____ _____    ______ ____
ROOT
ATOM      1  N   UNL     1      37.505 -19.726 -20.140  0.00  0.00    -0.226 NA
ATOM      2  C   UNL     1      35.218 -20.388 -19.704  0.00  0.00    +0.025 C 
ATOM      3  C   UNL     1      34.772 -19.500 -20.679  0.00  0.00    +0.041 C 
ATOM      4  C   UNL     1      36.584 -20.460 -19.476  0.00  0.00    +0.101 C 
ATOM      5  C   UNL     1      35.688 -18.727 -21.383  0.00  0.00    +0.170 C 
ATOM      6  C   UNL     1      37.032 -18.876 -21.079  0.00  0.00    +0.160 C 
ATOM      7  N   UNL     1      37.968 -18.092 -21.797  0.00  0.00    -0.340 N 
ATOM      8  H   UNL     1      38.930 -18.173 -21.605  0.00  0.00    +0.144 HD
ATOM      9  H   UNL     1      37.655 -17.463 -22.488  0.00  0.00    +0.144 HD
ENDROOT
BRANCH   2  13
ATOM     10  N   UNL     1      33.495 -22.564 -17.468  0.00  0.00    -0.212 N 
ATOM     11  N   UNL     1      32.420 -22.250 -18.207  0.00  0.00    -0.176 NA
ATOM     12  C   UNL     1      34.645 -21.960 -17.875  0.00  0.00    +0.086 C 
ATOM     13  C   UNL     1      34.300 -21.195 -18.963  0.00  0.00    +0.039 C 
ATOM     14  C   UNL     1      32.917 -21.413 -19.121  0.00  0.00    +0.119 C 
BRANCH  10  16
ATOM     15  N   UNL     1      33.154 -24.120 -13.490  0.00  0.00    +0.384 N 
ATOM     16  C   UNL     1      33.352 -23.483 -16.335  0.00  0.00    +0.092 C 
ATOM     17  C   UNL     1      32.067 -23.237 -15.529  0.00  0.00    -0.002 C 
ATOM     18  C   UNL     1      34.578 -23.479 -15.408  0.00  0.00    -0.002 C 
ATOM     19  C   UNL     1      31.972 -24.201 -14.347  0.00  0.00    -0.080 C 
ATOM     20  C   UNL     1      34.377 -24.433 -14.231  0.00  0.00    -0.080 C 
ATOM     21  H   UNL     1      33.054 -24.784 -12.722  0.00  0.00    -0.085 HD
ATOM     22  H   UNL     1      33.230 -23.166 -13.137  0.00  0.00    -0.085 HD
ENDBRANCH  10  16
ENDBRANCH   2  13
BRANCH   5  23
ATOM     23  O   UNL     1      35.253 -17.861 -22.336  0.00  0.00    -0.472 OA
BRANCH  23  24
ATOM     24  C   UNL     1      35.386 -16.467 -22.059  0.00  0.00    +0.190 C 
ATOM     25  C   UNL     1      34.901 -16.183 -20.642  0.00  0.00    +0.052 C 
BRANCH  24  29
ATOM     26 CL   UNL     1      34.857 -13.534 -21.425  0.00  0.00    -0.080 Cl
ATOM     27 CL   UNL     1      34.514 -17.974 -24.566  0.00  0.00    -0.082 Cl
ATOM     28  F   UNL     1      33.346 -12.312 -23.625  0.00  0.00    -0.203 F 
ATOM     29  C   UNL     1      34.613 -15.679 -23.091  0.00  0.00    +0.041 C 
ATOM     30  C   UNL     1      34.338 -14.336 -22.864  0.00  0.00    +0.085 C 
ATOM     31  C   UNL     1      34.188 -16.307 -24.255  0.00  0.00    +0.058 C 
ATOM     32  C   UNL     1      33.625 -13.609 -23.818  0.00  0.00    +0.150 C 
ATOM     33  C   UNL     1      33.475 -15.580 -25.208  0.00  0.00    +0.014 C 
ATOM     34  C   UNL     1      33.193 -14.232 -24.989  0.00  0.00    +0.031 C 
ENDBRANCH  24  29
ENDBRANCH  23  24
ENDBRANCH   5  23
TORSDOF 5
ENDMDL
MODEL 7
REMARK VINA RESULT:     -10.9      8.939     13.071
REMARK  Name = 11626560
REMARK  5 active torsions:
REMARK  status: ('A' for Active; 'I' for Inactive)
REMARK    1  A    between atoms: C_2  and  C_10
REMARK    2  A    between atoms: C_5  and  O_23
REMARK    3  A    between atoms: N_7  and  C_13
REMARK    4  A    between atoms: O_23  and  C_24
REMARK    5  A    between atoms: C_24  and  C_29
REMARK                            x       y       z     vdW  Elec       q    Type
REMARK                         _______ _______ _______ _____ _____    ______ ____
ROOT
ATOM      1  N   UNL     1      31.680 -10.938 -19.336  0.00  0.00    -0.226 NA
ATOM      2  C   UNL     1      32.069  -9.018 -20.757  0.00  0.00    +0.025 C 
ATOM      3  C   UNL     1      32.321  -9.863 -21.835  0.00  0.00    +0.041 C 
ATOM      4  C   UNL     1      31.756  -9.604 -19.540  0.00  0.00    +0.101 C 
ATOM      5  C   UNL     1      32.254 -11.241 -21.666  0.00  0.00    +0.170 C 
ATOM      6  C   UNL     1      31.932 -11.724 -20.407  0.00  0.00    +0.160 C 
ATOM      7  N   UNL     1      31.861 -13.129 -20.232  0.00  0.00    -0.340 N 
ATOM      8  H   UNL     1      31.635 -13.505 -19.351  0.00  0.00    +0.144 HD
ATOM      9  H   UNL     1      32.038 -13.729 -20.993  0.00  0.00    +0.144 HD
ENDROOT
BRANCH   2  13
ATOM     10  N   UNL     1      31.636  -5.559 -21.498  0.00  0.00    -0.212 N 
ATOM     11  N   UNL     1      32.752  -5.403 -20.770  0.00  0.00    -0.176 NA
ATOM     12  C   UNL     1      31.220  -6.850 -21.608  0.00  0.00    +0.086 C 
ATOM     13  C   UNL     1      32.131  -7.597 -20.901  0.00  0.00    +0.039 C 
ATOM     14  C   UNL     1      33.052  -6.652 -20.407  0.00  0.00    +0.119 C 
BRANCH  10  16
ATOM     15  N   UNL     1      30.984  -1.786 -23.423  0.00  0.00    +0.384 N 
ATOM     16  C   UNL     1      30.984  -4.385 -22.087  0.00  0.00    +0.092 C 
ATOM     17  C   UNL     1      31.272  -4.237 -23.589  0.00  0.00    -0.002 C 
ATOM     18  C   UNL     1      31.322  -3.083 -21.343  0.00  0.00    -0.002 C 
ATOM     19  C   UNL     1      30.593  -2.990 -24.155  0.00  0.00    -0.080 C 
ATOM     20  C   UNL     1      30.640  -1.884 -22.004  0.00  0.00    -0.080 C 
ATOM     21  H   UNL     1      30.502  -0.981 -23.824  0.00  0.00    -0.085 HD
ATOM     22  H   UNL     1      31.996  -1.678 -23.499  0.00  0.00    -0.085 HD
ENDBRANCH  10  16
ENDBRANCH   2  13
BRANCH   5  23
ATOM     23  O   UNL     1      32.499 -12.066 -22.717  0.00  0.00    -0.472 OA
BRANCH  23  24
ATOM     24  C   UNL     1      33.866 -12.319 -23.042  0.00  0.00    +0.190 C 
ATOM     25  C   UNL     1      34.342 -11.297 -24.068  0.00  0.00    +0.052 C 
BRANCH  24  29
ATOM     26 CL   UNL     1      35.012 -14.362 -21.093  0.00  0.00    -0.080 Cl
ATOM     27 CL   UNL     1      32.967 -12.845 -25.911  0.00  0.00    -0.082 Cl
ATOM     28  F   UNL     1      35.138 -16.992 -22.391  0.00  0.00    -0.203 F 
ATOM     29  C   UNL     1      34.003 -13.737 -23.548  0.00  0.00    +0.041 C 
ATOM     30  C   UNL     1      34.519 -14.717 -22.710  0.00  0.00    +0.085 C 
ATOM     31  C   UNL     1      33.611 -14.041 -24.846  0.00  0.00    +0.058 C 
ATOM     32  C   UNL     1      34.644 -16.025 -23.178  0.00  0.00    +0.150 C 
ATOM     33  C   UNL     1      33.737 -15.349 -25.313  0.00  0.00    +0.014 C 
ATOM     34  C   UNL     1      34.254 -16.341 -24.480  0.00  0.00    +0.031 C 
ENDBRANCH  24  29
ENDBRANCH  23  24
ENDBRANCH   5  23
TORSDOF 5
ENDMDL
MODEL 8
REMARK VINA RESULT:     -10.6      1.871      3.002
REMARK  Name = 11626560
REMARK  5 active torsions:
REMARK  status: ('A' for Active; 'I' for Inactive)
REMARK    1  A    between atoms: C_2  and  C_10
REMARK    2  A    between atoms: C_5  and  O_23
REMARK    3  A    between atoms: N_7  and  C_13
REMARK    4  A    between atoms: O_23  and  C_24
REMARK    5  A    between atoms: C_24  and  C_29
REMARK                            x       y       z     vdW  Elec       q    Type
REMARK                         _______ _______ _______ _____ _____    ______ ____
ROOT
ATOM      1  N   UNL     1      32.026 -22.897 -17.204  0.00  0.00    -0.226 NA
ATOM      2  C   UNL     1      34.213 -22.047 -17.800  0.00  0.00    +0.025 C 
ATOM      3  C   UNL     1      34.739 -22.567 -16.620  0.00  0.00    +0.041 C 
ATOM      4  C   UNL     1      32.861 -22.239 -18.040  0.00  0.00    +0.101 C 
ATOM      5  C   UNL     1      33.914 -23.249 -15.735  0.00  0.00    +0.170 C 
ATOM      6  C   UNL     1      32.576 -23.386 -16.070  0.00  0.00    +0.160 C 
ATOM      7  N   UNL     1      31.732 -24.083 -15.170  0.00  0.00    -0.340 N 
ATOM      8  H   UNL     1      30.777 -24.198 -15.378  0.00  0.00    +0.144 HD
ATOM      9  H   UNL     1      32.102 -24.453 -14.335  0.00  0.00    +0.144 HD
ENDROOT
BRANCH   2  13
ATOM     10  N   UNL     1      35.655 -20.049 -20.375  0.00  0.00    -0.212 N 
ATOM     11  N   UNL     1      36.820 -20.497 -19.883  0.00  0.00    -0.176 NA
ATOM     12  C   UNL     1      34.557 -20.520 -19.722  0.00  0.00    +0.086 C 
ATOM     13  C   UNL     1      35.037 -21.340 -18.730  0.00  0.00    +0.039 C 
ATOM     14  C   UNL     1      36.437 -21.288 -18.877  0.00  0.00    +0.119 C 
BRANCH  10  16
ATOM     15  N   UNL     1      34.512 -17.010 -23.172  0.00  0.00    +0.384 N 
ATOM     16  C   UNL     1      35.656 -19.130 -21.518  0.00  0.00    +0.092 C 
ATOM     17  C   UNL     1      35.684 -17.654 -21.091  0.00  0.00    -0.002 C 
ATOM     18  C   UNL     1      34.492 -19.387 -22.488  0.00  0.00    -0.002 C 
ATOM     19  C   UNL     1      35.661 -16.733 -22.311  0.00  0.00    -0.080 C 
ATOM     20  C   UNL     1      34.520 -18.394 -23.650  0.00  0.00    -0.080 C 
ATOM     21  H   UNL     1      34.540 -16.383 -23.976  0.00  0.00    -0.085 HD
ATOM     22  H   UNL     1      33.661 -16.865 -22.629  0.00  0.00    -0.085 HD
ENDBRANCH  10  16
ENDBRANCH   2  13
BRANCH   5  23
ATOM     23  O   UNL     1      34.427 -23.757 -14.584  0.00  0.00    -0.472 OA
BRANCH  23  24
ATOM     24  C   UNL     1      35.712 -24.375 -14.660  0.00  0.00    +0.190 C 
ATOM     25  C   UNL     1      35.550 -25.832 -15.078  0.00  0.00    +0.052 C 
BRANCH  24  29
ATOM     26 CL   UNL     1      33.929 -24.260 -12.193  0.00  0.00    -0.080 Cl
ATOM     27 CL   UNL     1      38.762 -24.247 -14.711  0.00  0.00    -0.082 Cl
ATOM     28  F   UNL     1      35.595 -24.002  -9.790  0.00  0.00    -0.203 F 
ATOM     29  C   UNL     1      36.409 -24.241 -13.326  0.00  0.00    +0.041 C 
ATOM     30  C   UNL     1      35.654 -24.183 -12.161  0.00  0.00    +0.085 C 
ATOM     31  C   UNL     1      37.796 -24.178 -13.281  0.00  0.00    +0.058 C 
ATOM     32  C   UNL     1      36.298 -24.060 -10.930  0.00  0.00    +0.150 C 
ATOM     33  C   UNL     1      38.439 -24.055 -12.050  0.00  0.00    +0.014 C 
ATOM     34  C   UNL     1      37.690 -23.995 -10.875  0.00  0.00    +0.031 C 
ENDBRANCH  24  29
ENDBRANCH  23  24
ENDBRANCH   5  23
TORSDOF 5
ENDMDL
MODEL 9
REMARK VINA RESULT:     -10.6      6.844     12.183
REMARK  Name = 11626560
REMARK  5 active torsions:
REMARK  status: ('A' for Active; 'I' for Inactive)
REMARK    1  A    between atoms: C_2  and  C_10
REMARK    2  A    between atoms: C_5  and  O_23
REMARK    3  A    between atoms: N_7  and  C_13
REMARK    4  A    between atoms: O_23  and  C_24
REMARK    5  A    between atoms: C_24  and  C_29
REMARK                            x       y       z     vdW  Elec       q    Type
REMARK                         _______ _______ _______ _____ _____    ______ ____
ROOT
ATOM      1  N   UNL     1      34.296 -15.304 -25.705  0.00  0.00    -0.226 NA
ATOM      2  C   UNL     1      34.432 -15.726 -23.326  0.00  0.00    +0.025 C 
ATOM      3  C   UNL     1      33.836 -14.494 -23.070  0.00  0.00    +0.041 C 
ATOM      4  C   UNL     1      34.637 -16.079 -24.651  0.00  0.00    +0.101 C 
ATOM      5  C   UNL     1      33.472 -13.669 -24.127  0.00  0.00    +0.170 C 
ATOM      6  C   UNL     1      33.721 -14.116 -25.415  0.00  0.00    +0.160 C 
ATOM      7  N   UNL     1      33.347 -13.277 -26.494  0.00  0.00    -0.340 N 
ATOM      8  H   UNL     1      33.511 -13.565 -27.421  0.00  0.00    +0.144 HD
ATOM      9  H   UNL     1      32.925 -12.405 -26.316  0.00  0.00    +0.144 HD
ENDROOT
BRANCH   2  13
ATOM     10  N   UNL     1      35.153 -18.407 -21.089  0.00  0.00    -0.212 N 
ATOM     11  N   UNL     1      35.614 -17.434 -20.289  0.00  0.00    -0.176 NA
ATOM     12  C   UNL     1      34.666 -17.962 -22.280  0.00  0.00    +0.086 C 
ATOM     13  C   UNL     1      34.818 -16.597 -22.259  0.00  0.00    +0.039 C 
ATOM     14  C   UNL     1      35.407 -16.328 -21.008  0.00  0.00    +0.119 C 
BRANCH  10  16
ATOM     15  N   UNL     1      35.159 -21.904 -18.612  0.00  0.00    +0.384 N 
ATOM     16  C   UNL     1      35.209 -19.802 -20.642  0.00  0.00    +0.092 C 
ATOM     17  C   UNL     1      33.904 -20.263 -19.973  0.00  0.00    -0.002 C 
ATOM     18  C   UNL     1      36.411 -20.085 -19.728  0.00  0.00    -0.002 C 
ATOM     19  C   UNL     1      34.015 -21.713 -19.503  0.00  0.00    -0.080 C 
ATOM     20  C   UNL     1      36.416 -21.544 -19.269  0.00  0.00    -0.080 C 
ATOM     21  H   UNL     1      35.202 -22.883 -18.331  0.00  0.00    -0.085 HD
ATOM     22  H   UNL     1      35.038 -21.298 -17.800  0.00  0.00    -0.085 HD
ENDBRANCH  10  16
ENDBRANCH   2  13
BRANCH   5  23
ATOM     23  O   UNL     1      32.890 -12.466 -23.878  0.00  0.00    -0.472 OA
BRANCH  23  24
ATOM     24  C   UNL     1      33.128 -11.878 -22.599  0.00  0.00    +0.190 C 
ATOM     25  C   UNL     1      32.140 -12.447 -21.587  0.00  0.00    +0.052 C 
BRANCH  24  29
ATOM     26 CL   UNL     1      30.837 -10.551 -21.091  0.00  0.00    -0.080 Cl
ATOM     27 CL   UNL     1      35.228 -10.480 -24.317  0.00  0.00    -0.082 Cl
ATOM     28  F   UNL     1      30.925  -7.650 -21.529  0.00  0.00    -0.203 F 
ATOM     29  C   UNL     1      33.022 -10.375 -22.714  0.00  0.00    +0.041 C 
ATOM     30  C   UNL     1      31.999  -9.708 -22.052  0.00  0.00    +0.085 C 
ATOM     31  C   UNL     1      33.947  -9.680 -23.481  0.00  0.00    +0.058 C 
ATOM     32  C   UNL     1      31.901  -8.321 -22.157  0.00  0.00    +0.150 C 
ATOM     33  C   UNL     1      33.849  -8.293 -23.587  0.00  0.00    +0.014 C 
ATOM     34  C   UNL     1      32.826  -7.613 -22.926  0.00  0.00    +0.031 C 
ENDBRANCH  24  29
ENDBRANCH  23  24
ENDBRANCH   5  23
TORSDOF 5
ENDMDL
