MODEL 1
REMARK VINA RESULT:     -11.9      0.000      0.000
REMARK  Name = 6918151
REMARK  4 active torsions:
REMARK  status: ('A' for Active; 'I' for Inactive)
REMARK    1  A    between atoms: C_2  and  C_11
REMARK    2  A    between atoms: C_7  and  C_18
REMARK    3  A    between atoms: C_11  and  C_12
REMARK    4  A    between atoms: C_18  and  C_23
REMARK                            x       y       z     vdW  Elec       q    Type
REMARK                         _______ _______ _______ _____ _____    ______ ____
ROOT
ATOM      1  O   UNL     1      36.019 -19.615 -20.231  0.00  0.00    -0.479 OA
ATOM      2  C   UNL     1      35.187 -18.647 -20.889  0.00  0.00    +0.171 C 
ATOM      3  C   UNL     1      34.018 -19.317 -21.610  0.00  0.00    +0.049 C 
ATOM      4  C   UNL     1      33.134 -20.015 -20.583  0.00  0.00    +0.033 C 
ATOM      5  C   UNL     1      33.972 -20.794 -19.611  0.00  0.00    +0.012 C 
ATOM      6  C   UNL     1      35.344 -20.546 -19.483  0.00  0.00    +0.134 C 
ATOM      7  C   UNL     1      34.144 -22.499 -17.892  0.00  0.00    -0.021 C 
ATOM      8  C   UNL     1      33.375 -21.768 -18.798  0.00  0.00    -0.006 C 
ATOM      9  C   UNL     1      36.115 -21.287 -18.584  0.00  0.00    +0.036 C 
ATOM     10  C   UNL     1      35.513 -22.261 -17.787  0.00  0.00    -0.001 C 
ENDROOT
BRANCH   2  11
ATOM     11  C   UNL     1      36.069 -17.891 -21.875  0.00  0.00    +0.070 C 
BRANCH  11  12
ATOM     12  C   UNL     1      35.351 -16.710 -22.472  0.00  0.00    -0.019 C 
ATOM     13  C   UNL     1      35.000 -16.731 -23.816  0.00  0.00    -0.004 C 
ATOM     14  C   UNL     1      35.049 -15.617 -21.672  0.00  0.00    -0.004 C 
ATOM     15  C   UNL     1      34.335 -15.638 -24.369  0.00  0.00    -0.000 C 
ATOM     16  C   UNL     1      34.383 -14.523 -22.226  0.00  0.00    -0.000 C 
ATOM     17  C   UNL     1      34.026 -14.534 -23.574  0.00  0.00    -0.000 C 
ENDBRANCH  11  12
ENDBRANCH   2  11
BRANCH   7  18
ATOM     18  C   UNL     1      33.500 -23.537 -17.036  0.00  0.00    +0.047 C 
BRANCH  18  23
ATOM     19  S   UNL     1      33.609 -23.852 -14.296  0.00  0.00    -0.048 S 
ATOM     20  O   UNL     1      30.678 -22.650 -16.501  0.00  0.00    -0.274 OA
ATOM     21  O   UNL     1      31.853 -24.896 -12.641  0.00  0.00    -0.263 OA
ATOM     22  N   UNL     1      31.065 -23.790 -14.526  0.00  0.00    -0.246 N 
ATOM     23  C   UNL     1      32.950 -22.957 -15.735  0.00  0.00    +0.137 C 
ATOM     24  C   UNL     1      31.447 -23.099 -15.658  0.00  0.00    +0.239 C 
ATOM     25  C   UNL     1      32.026 -24.269 -13.674  0.00  0.00    +0.279 C 
ATOM     26  H   UNL     1      30.111 -23.938 -14.333  0.00  0.00    +0.158 HD
ENDBRANCH  18  23
ENDBRANCH   7  18
TORSDOF 4
ENDMDL
MODEL 2
REMARK VINA RESULT:     -11.7      1.077      2.050
REMARK  Name = 6918151
REMARK  4 active torsions:
REMARK  status: ('A' for Active; 'I' for Inactive)
REMARK    1  A    between atoms: C_2  and  C_11
REMARK    2  A    between atoms: C_7  and  C_18
REMARK    3  A    between atoms: C_11  and  C_12
REMARK    4  A    between atoms: C_18  and  C_23
REMARK                            x       y       z     vdW  Elec       q    Type
REMARK                         _______ _______ _______ _____ _____    ______ ____
ROOT
ATOM      1  O   UNL     1      34.623 -19.222 -20.688  0.00  0.00    -0.479 OA
ATOM      2  C   UNL     1      35.966 -19.203 -21.195  0.00  0.00    +0.171 C 
ATOM      3  C   UNL     1      36.986 -19.407 -20.075  0.00  0.00    +0.049 C 
ATOM      4  C   UNL     1      36.779 -20.786 -19.458  0.00  0.00    +0.033 C 
ATOM      5  C   UNL     1      35.320 -21.037 -19.209  0.00  0.00    +0.012 C 
ATOM      6  C   UNL     1      34.338 -20.260 -19.838  0.00  0.00    +0.134 C 
ATOM      7  C   UNL     1      33.572 -22.320 -18.118  0.00  0.00    -0.021 C 
ATOM      8  C   UNL     1      34.926 -22.078 -18.358  0.00  0.00    -0.006 C 
ATOM      9  C   UNL     1      32.984 -20.496 -19.587  0.00  0.00    +0.036 C 
ATOM     10  C   UNL     1      32.603 -21.528 -18.730  0.00  0.00    -0.001 C 
ENDROOT
BRANCH   2  11
ATOM     11  C   UNL     1      36.173 -17.855 -21.875  0.00  0.00    +0.070 C 
BRANCH  11  12
ATOM     12  C   UNL     1      35.194 -17.643 -22.999  0.00  0.00    -0.019 C 
ATOM     13  C   UNL     1      35.006 -16.364 -23.508  0.00  0.00    -0.004 C 
ATOM     14  C   UNL     1      34.493 -18.726 -23.510  0.00  0.00    -0.004 C 
ATOM     15  C   UNL     1      34.099 -16.167 -24.549  0.00  0.00    -0.000 C 
ATOM     16  C   UNL     1      33.586 -18.528 -24.551  0.00  0.00    -0.000 C 
ATOM     17  C   UNL     1      33.389 -17.249 -25.070  0.00  0.00    -0.000 C 
ENDBRANCH  11  12
ENDBRANCH   2  11
BRANCH   7  18
ATOM     18  C   UNL     1      33.164 -23.426 -17.206  0.00  0.00    +0.047 C 
BRANCH  18  23
ATOM     19  S   UNL     1      33.545 -23.796 -14.497  0.00  0.00    -0.048 S 
ATOM     20  O   UNL     1      30.351 -22.743 -16.392  0.00  0.00    -0.274 OA
ATOM     21  O   UNL     1      32.020 -24.993 -12.721  0.00  0.00    -0.263 OA
ATOM     22  N   UNL     1      30.992 -23.900 -14.494  0.00  0.00    -0.246 N 
ATOM     23  C   UNL     1      32.700 -22.914 -15.844  0.00  0.00    +0.137 C 
ATOM     24  C   UNL     1      31.223 -23.159 -15.636  0.00  0.00    +0.239 C 
ATOM     25  C   UNL     1      32.057 -24.332 -13.747  0.00  0.00    +0.279 C 
ATOM     26  H   UNL     1      30.072 -24.115 -14.220  0.00  0.00    +0.158 HD
ENDBRANCH  18  23
ENDBRANCH   7  18
TORSDOF 4
ENDMDL
MODEL 3
REMARK VINA RESULT:     -11.4      6.006     10.702
REMARK  Name = 6918151
REMARK  4 active torsions:
REMARK  status: ('A' for Active; 'I' for Inactive)
REMARK    1  A    between atoms: C_2  and  C_11
REMARK    2  A    between atoms: C_7  and  C_18
REMARK    3  A    between atoms: C_11  and  C_12
REMARK    4  A    between atoms: C_18  and  C_23
REMARK                            x       y       z     vdW  Elec       q    Type
REMARK                         _______ _______ _______ _____ _____    ______ ____
ROOT
ATOM      1  O   UNL     1      34.930 -17.667 -22.894  0.00  0.00    -0.479 OA
ATOM      2  C   UNL     1      34.915 -18.008 -21.499  0.00  0.00    +0.171 C 
ATOM      3  C   UNL     1      35.653 -16.963 -20.664  0.00  0.00    +0.049 C 
ATOM      4  C   UNL     1      34.931 -15.626 -20.787  0.00  0.00    +0.033 C 
ATOM      5  C   UNL     1      34.587 -15.345 -22.220  0.00  0.00    +0.012 C 
ATOM      6  C   UNL     1      34.594 -16.368 -23.177  0.00  0.00    +0.134 C 
ATOM      7  C   UNL     1      33.905 -13.774 -23.941  0.00  0.00    -0.021 C 
ATOM      8  C   UNL     1      34.226 -14.048 -22.611  0.00  0.00    -0.006 C 
ATOM      9  C   UNL     1      34.284 -16.090 -24.510  0.00  0.00    +0.036 C 
ATOM     10  C   UNL     1      33.938 -14.793 -24.890  0.00  0.00    -0.001 C 
ENDROOT
BRANCH   2  11
ATOM     11  C   UNL     1      35.575 -19.375 -21.361  0.00  0.00    +0.070 C 
BRANCH  11  12
ATOM     12  C   UNL     1      34.861 -20.240 -20.358  0.00  0.00    -0.019 C 
ATOM     13  C   UNL     1      33.481 -20.143 -20.232  0.00  0.00    -0.004 C 
ATOM     14  C   UNL     1      35.590 -21.123 -19.574  0.00  0.00    -0.004 C 
ATOM     15  C   UNL     1      32.819 -20.944 -19.302  0.00  0.00    -0.000 C 
ATOM     16  C   UNL     1      34.926 -21.925 -18.645  0.00  0.00    -0.000 C 
ATOM     17  C   UNL     1      33.542 -21.835 -18.509  0.00  0.00    -0.000 C 
ENDBRANCH  11  12
ENDBRANCH   2  11
BRANCH   7  18
ATOM     18  C   UNL     1      33.529 -12.389 -24.346  0.00  0.00    +0.047 C 
BRANCH  18  23
ATOM     19  S   UNL     1      32.603 -10.752 -22.326  0.00  0.00    -0.048 S 
ATOM     20  O   UNL     1      35.481 -10.153 -24.827  0.00  0.00    -0.274 OA
ATOM     21  O   UNL     1      32.156  -8.162 -22.316  0.00  0.00    -0.263 OA
ATOM     22  N   UNL     1      33.887  -8.974 -23.636  0.00  0.00    -0.246 N 
ATOM     23  C   UNL     1      33.995 -11.342 -23.337  0.00  0.00    +0.137 C 
ATOM     24  C   UNL     1      34.552 -10.118 -24.027  0.00  0.00    +0.239 C 
ATOM     25  C   UNL     1      32.842  -9.072 -22.754  0.00  0.00    +0.279 C 
ATOM     26  H   UNL     1      34.159  -8.096 -23.988  0.00  0.00    +0.158 HD
ENDBRANCH  18  23
ENDBRANCH   7  18
TORSDOF 4
ENDMDL
MODEL 4
REMARK VINA RESULT:     -11.3      5.760     10.087
REMARK  Name = 6918151
REMARK  4 active torsions:
REMARK  status: ('A' for Active; 'I' for Inactive)
REMARK    1  A    between atoms: C_2  and  C_11
REMARK    2  A    between atoms: C_7  and  C_18
REMARK    3  A    between atoms: C_11  and  C_12
REMARK    4  A    between atoms: C_18  and  C_23
REMARK                            x       y       z     vdW  Elec       q    Type
REMARK                         _______ _______ _______ _____ _____    ______ ____
ROOT
ATOM      1  O   UNL     1      35.726 -17.292 -20.440  0.00  0.00    -0.479 OA
ATOM      2  C   UNL     1      36.420 -18.263 -21.238  0.00  0.00    +0.171 C 
ATOM      3  C   UNL     1      35.564 -18.730 -22.414  0.00  0.00    +0.049 C 
ATOM      4  C   UNL     1      35.284 -17.544 -23.329  0.00  0.00    +0.033 C 
ATOM      5  C   UNL     1      34.875 -16.345 -22.525  0.00  0.00    +0.012 C 
ATOM      6  C   UNL     1      35.126 -16.282 -21.148  0.00  0.00    +0.134 C 
ATOM      7  C   UNL     1      33.871 -14.137 -22.418  0.00  0.00    -0.021 C 
ATOM      8  C   UNL     1      34.257 -15.257 -23.156  0.00  0.00    -0.006 C 
ATOM      9  C   UNL     1      34.728 -15.165 -20.408  0.00  0.00    +0.036 C 
ATOM     10  C   UNL     1      34.104 -14.093 -21.045  0.00  0.00    -0.001 C 
ENDROOT
BRANCH   2  11
ATOM     11  C   UNL     1      36.769 -19.432 -20.324  0.00  0.00    +0.070 C 
BRANCH  11  12
ATOM     12  C   UNL     1      35.541 -20.190 -19.897  0.00  0.00    -0.019 C 
ATOM     13  C   UNL     1      35.677 -21.310 -19.086  0.00  0.00    -0.004 C 
ATOM     14  C   UNL     1      34.290 -19.760 -20.318  0.00  0.00    -0.004 C 
ATOM     15  C   UNL     1      34.539 -22.012 -18.690  0.00  0.00    -0.000 C 
ATOM     16  C   UNL     1      33.153 -20.463 -19.921  0.00  0.00    -0.000 C 
ATOM     17  C   UNL     1      33.277 -21.589 -19.108  0.00  0.00    -0.000 C 
ENDBRANCH  11  12
ENDBRANCH   2  11
BRANCH   7  18
ATOM     18  C   UNL     1      33.209 -12.988 -23.100  0.00  0.00    +0.047 C 
BRANCH  18  23
ATOM     19  S   UNL     1      32.118 -11.026 -21.493  0.00  0.00    -0.048 S 
ATOM     20  O   UNL     1      34.736 -10.699 -24.311  0.00  0.00    -0.274 OA
ATOM     21  O   UNL     1      31.246  -8.624 -22.110  0.00  0.00    -0.263 OA
ATOM     22  N   UNL     1      33.025  -9.494 -23.326  0.00  0.00    -0.246 N 
ATOM     23  C   UNL     1      33.540 -11.652 -22.439  0.00  0.00    +0.137 C 
ATOM     24  C   UNL     1      33.853 -10.589 -23.467  0.00  0.00    +0.239 C 
ATOM     25  C   UNL     1      32.053  -9.506 -22.359  0.00  0.00    +0.279 C 
ATOM     26  H   UNL     1      33.130  -8.712 -23.914  0.00  0.00    +0.158 HD
ENDBRANCH  18  23
ENDBRANCH   7  18
TORSDOF 4
ENDMDL
MODEL 5
REMARK VINA RESULT:     -11.3      1.517      1.846
REMARK  Name = 6918151
REMARK  4 active torsions:
REMARK  status: ('A' for Active; 'I' for Inactive)
REMARK    1  A    between atoms: C_2  and  C_11
REMARK    2  A    between atoms: C_7  and  C_18
REMARK    3  A    between atoms: C_11  and  C_12
REMARK    4  A    between atoms: C_18  and  C_23
REMARK                            x       y       z     vdW  Elec       q    Type
REMARK                         _______ _______ _______ _____ _____    ______ ____
ROOT
ATOM      1  O   UNL     1      36.131 -19.634 -20.507  0.00  0.00    -0.479 OA
ATOM      2  C   UNL     1      35.245 -18.699 -21.140  0.00  0.00    +0.171 C 
ATOM      3  C   UNL     1      34.004 -19.396 -21.694  0.00  0.00    +0.049 C 
ATOM      4  C   UNL     1      33.222 -20.013 -20.540  0.00  0.00    +0.033 C 
ATOM      5  C   UNL     1      34.147 -20.740 -19.608  0.00  0.00    +0.012 C 
ATOM      6  C   UNL     1      35.528 -20.504 -19.634  0.00  0.00    +0.134 C 
ATOM      7  C   UNL     1      34.478 -22.332 -17.805  0.00  0.00    -0.021 C 
ATOM      8  C   UNL     1      33.628 -21.649 -18.676  0.00  0.00    -0.006 C 
ATOM      9  C   UNL     1      36.379 -21.198 -18.770  0.00  0.00    +0.036 C 
ATOM     10  C   UNL     1      35.853 -22.109 -17.855  0.00  0.00    -0.001 C 
ENDROOT
BRANCH   2  11
ATOM     11  C   UNL     1      36.029 -18.021 -22.258  0.00  0.00    +0.070 C 
BRANCH  11  12
ATOM     12  C   UNL     1      35.262 -16.875 -22.861  0.00  0.00    -0.019 C 
ATOM     13  C   UNL     1      35.100 -15.703 -22.133  0.00  0.00    -0.004 C 
ATOM     14  C   UNL     1      34.727 -17.004 -24.135  0.00  0.00    -0.004 C 
ATOM     15  C   UNL     1      34.389 -14.641 -22.691  0.00  0.00    -0.000 C 
ATOM     16  C   UNL     1      34.017 -15.941 -24.693  0.00  0.00    -0.000 C 
ATOM     17  C   UNL     1      33.848 -14.760 -23.971  0.00  0.00    -0.000 C 
ENDBRANCH  11  12
ENDBRANCH   2  11
BRANCH   7  18
ATOM     18  C   UNL     1      33.916 -23.302 -16.823  0.00  0.00    +0.047 C 
BRANCH  18  23
ATOM     19  S   UNL     1      35.929 -23.548 -14.950  0.00  0.00    -0.048 S 
ATOM     20  O   UNL     1      32.106 -23.436 -14.425  0.00  0.00    -0.274 OA
ATOM     21  O   UNL     1      36.108 -25.124 -12.854  0.00  0.00    -0.263 OA
ATOM     22  N   UNL     1      34.003 -24.365 -13.482  0.00  0.00    -0.246 N 
ATOM     23  C   UNL     1      34.270 -22.940 -15.382  0.00  0.00    +0.137 C 
ATOM     24  C   UNL     1      33.323 -23.591 -14.399  0.00  0.00    +0.239 C 
ATOM     25  C   UNL     1      35.366 -24.481 -13.580  0.00  0.00    +0.279 C 
ATOM     26  H   UNL     1      33.515 -24.831 -12.766  0.00  0.00    +0.158 HD
ENDBRANCH  18  23
ENDBRANCH   7  18
TORSDOF 4
ENDMDL
MODEL 6
REMARK VINA RESULT:     -11.1      2.837      5.090
REMARK  Name = 6918151
REMARK  4 active torsions:
REMARK  status: ('A' for Active; 'I' for Inactive)
REMARK    1  A    between atoms: C_2  and  C_11
REMARK    2  A    between atoms: C_7  and  C_18
REMARK    3  A    between atoms: C_11  and  C_12
REMARK    4  A    between atoms: C_18  and  C_23
REMARK                            x       y       z     vdW  Elec       q    Type
REMARK                         _______ _______ _______ _____ _____    ______ ____
ROOT
ATOM      1  O   UNL     1      34.745 -15.005 -22.773  0.00  0.00    -0.479 OA
ATOM      2  C   UNL     1      33.933 -14.766 -23.932  0.00  0.00    +0.171 C 
ATOM      3  C   UNL     1      34.271 -15.743 -25.057  0.00  0.00    +0.049 C 
ATOM      4  C   UNL     1      33.955 -17.162 -24.598  0.00  0.00    +0.033 C 
ATOM      5  C   UNL     1      34.480 -17.393 -23.210  0.00  0.00    +0.012 C 
ATOM      6  C   UNL     1      34.828 -16.317 -22.383  0.00  0.00    +0.134 C 
ATOM      7  C   UNL     1      35.088 -18.927 -21.430  0.00  0.00    -0.021 C 
ATOM      8  C   UNL     1      34.601 -18.700 -22.718  0.00  0.00    -0.006 C 
ATOM      9  C   UNL     1      35.328 -16.548 -21.099  0.00  0.00    +0.036 C 
ATOM     10  C   UNL     1      35.454 -17.852 -20.623  0.00  0.00    -0.001 C 
ENDROOT
BRANCH   2  11
ATOM     11  C   UNL     1      34.185 -13.328 -24.371  0.00  0.00    +0.070 C 
BRANCH  11  12
ATOM     12  C   UNL     1      33.509 -12.341 -23.457  0.00  0.00    -0.019 C 
ATOM     13  C   UNL     1      33.661 -10.980 -23.689  0.00  0.00    -0.004 C 
ATOM     14  C   UNL     1      32.744 -12.804 -22.396  0.00  0.00    -0.004 C 
ATOM     15  C   UNL     1      33.036 -10.065 -22.843  0.00  0.00    -0.000 C 
ATOM     16  C   UNL     1      32.117 -11.888 -21.550  0.00  0.00    -0.000 C 
ATOM     17  C   UNL     1      32.264 -10.520 -21.773  0.00  0.00    -0.000 C 
ENDBRANCH  11  12
ENDBRANCH   2  11
BRANCH   7  18
ATOM     18  C   UNL     1      35.218 -20.322 -20.919  0.00  0.00    +0.047 C 
BRANCH  18  23
ATOM     19  S   UNL     1      35.380 -21.837 -18.617  0.00  0.00    -0.048 S 
ATOM     20  O   UNL     1      32.281 -20.245 -20.280  0.00  0.00    -0.274 OA
ATOM     21  O   UNL     1      33.841 -23.790 -17.764  0.00  0.00    -0.263 OA
ATOM     22  N   UNL     1      32.867 -22.085 -19.007  0.00  0.00    -0.246 N 
ATOM     23  C   UNL     1      34.571 -20.500 -19.547  0.00  0.00    +0.137 C 
ATOM     24  C   UNL     1      33.119 -20.901 -19.669  0.00  0.00    +0.239 C 
ATOM     25  C   UNL     1      33.898 -22.740 -18.386  0.00  0.00    +0.279 C 
ATOM     26  H   UNL     1      31.955 -22.456 -18.982  0.00  0.00    +0.158 HD
ENDBRANCH  18  23
ENDBRANCH   7  18
TORSDOF 4
ENDMDL
MODEL 7
REMARK VINA RESULT:     -11.0      3.558      9.253
REMARK  Name = 6918151
REMARK  4 active torsions:
REMARK  status: ('A' for Active; 'I' for Inactive)
REMARK    1  A    between atoms: C_2  and  C_11
REMARK    2  A    between atoms: C_7  and  C_18
REMARK    3  A    between atoms: C_11  and  C_12
REMARK    4  A    between atoms: C_18  and  C_23
REMARK                            x       y       z     vdW  Elec       q    Type
REMARK                         _______ _______ _______ _____ _____    ______ ____
ROOT
ATOM      1  O   UNL     1      34.334 -23.117 -16.454  0.00  0.00    -0.479 OA
ATOM      2  C   UNL     1      35.076 -23.053 -15.227  0.00  0.00    +0.171 C 
ATOM      3  C   UNL     1      36.579 -23.166 -15.480  0.00  0.00    +0.049 C 
ATOM      4  C   UNL     1      37.034 -21.978 -16.319  0.00  0.00    +0.033 C 
ATOM      5  C   UNL     1      36.089 -21.750 -17.462  0.00  0.00    +0.012 C 
ATOM      6  C   UNL     1      34.806 -22.313 -17.460  0.00  0.00    +0.134 C 
ATOM      7  C   UNL     1      35.606 -20.722 -19.608  0.00  0.00    -0.021 C 
ATOM      8  C   UNL     1      36.477 -20.941 -18.539  0.00  0.00    -0.006 C 
ATOM      9  C   UNL     1      33.941 -22.103 -18.537  0.00  0.00    +0.036 C 
ATOM     10  C   UNL     1      34.341 -21.305 -19.608  0.00  0.00    -0.001 C 
ENDROOT
BRANCH   2  11
ATOM     11  C   UNL     1      34.589 -24.195 -14.344  0.00  0.00    +0.070 C 
BRANCH  11  12
ATOM     12  C   UNL     1      33.132 -24.047 -13.995  0.00  0.00    -0.019 C 
ATOM     13  C   UNL     1      32.460 -22.883 -14.345  0.00  0.00    -0.004 C 
ATOM     14  C   UNL     1      32.480 -25.075 -13.328  0.00  0.00    -0.004 C 
ATOM     15  C   UNL     1      31.111 -22.745 -14.022  0.00  0.00    -0.000 C 
ATOM     16  C   UNL     1      31.130 -24.937 -13.006  0.00  0.00    -0.000 C 
ATOM     17  C   UNL     1      30.446 -23.773 -13.352  0.00  0.00    -0.000 C 
ENDBRANCH  11  12
ENDBRANCH   2  11
BRANCH   7  18
ATOM     18  C   UNL     1      36.032 -19.864 -20.751  0.00  0.00    +0.047 C 
BRANCH  18  23
ATOM     19  S   UNL     1      34.630 -19.005 -22.968  0.00  0.00    -0.048 S 
ATOM     20  O   UNL     1      35.680 -17.025 -19.825  0.00  0.00    -0.274 OA
ATOM     21  O   UNL     1      34.862 -16.790 -24.364  0.00  0.00    -0.263 OA
ATOM     22  N   UNL     1      35.304 -16.704 -22.085  0.00  0.00    -0.246 N 
ATOM     23  C   UNL     1      34.941 -18.886 -21.180  0.00  0.00    +0.137 C 
ATOM     24  C   UNL     1      35.352 -17.453 -20.927  0.00  0.00    +0.239 C 
ATOM     25  C   UNL     1      34.949 -17.309 -23.263  0.00  0.00    +0.279 C 
ATOM     26  H   UNL     1      35.523 -15.745 -22.065  0.00  0.00    +0.158 HD
ENDBRANCH  18  23
ENDBRANCH   7  18
TORSDOF 4
ENDMDL
MODEL 8
REMARK VINA RESULT:     -11.0      4.010      9.011
REMARK  Name = 6918151
REMARK  4 active torsions:
REMARK  status: ('A' for Active; 'I' for Inactive)
REMARK    1  A    between atoms: C_2  and  C_11
REMARK    2  A    between atoms: C_7  and  C_18
REMARK    3  A    between atoms: C_11  and  C_12
REMARK    4  A    between atoms: C_18  and  C_23
REMARK                            x       y       z     vdW  Elec       q    Type
REMARK                         _______ _______ _______ _____ _____    ______ ____
ROOT
ATOM      1  O   UNL     1      35.131 -22.207 -18.065  0.00  0.00    -0.479 OA
ATOM      2  C   UNL     1      33.834 -22.822 -18.044  0.00  0.00    +0.171 C 
ATOM      3  C   UNL     1      32.722 -21.774 -18.051  0.00  0.00    +0.049 C 
ATOM      4  C   UNL     1      32.797 -20.976 -19.348  0.00  0.00    +0.033 C 
ATOM      5  C   UNL     1      34.215 -20.578 -19.638  0.00  0.00    +0.012 C 
ATOM      6  C   UNL     1      35.287 -21.214 -18.999  0.00  0.00    +0.134 C 
ATOM      7  C   UNL     1      35.795 -19.195 -20.856  0.00  0.00    -0.021 C 
ATOM      8  C   UNL     1      34.481 -19.574 -20.579  0.00  0.00    -0.006 C 
ATOM      9  C   UNL     1      36.601 -20.824 -19.268  0.00  0.00    +0.036 C 
ATOM     10  C   UNL     1      36.854 -19.817 -20.199  0.00  0.00    -0.001 C 
ENDROOT
BRANCH   2  11
ATOM     11  C   UNL     1      33.761 -23.679 -16.786  0.00  0.00    +0.070 C 
BRANCH  11  12
ATOM     12  C   UNL     1      32.573 -23.319 -15.935  0.00  0.00    -0.019 C 
ATOM     13  C   UNL     1      31.301 -23.340 -16.493  0.00  0.00    -0.004 C 
ATOM     14  C   UNL     1      32.763 -22.972 -14.605  0.00  0.00    -0.004 C 
ATOM     15  C   UNL     1      30.200 -23.007 -15.705  0.00  0.00    -0.000 C 
ATOM     16  C   UNL     1      31.661 -22.640 -13.817  0.00  0.00    -0.000 C 
ATOM     17  C   UNL     1      30.380 -22.656 -14.367  0.00  0.00    -0.000 C 
ENDBRANCH  11  12
ENDBRANCH   2  11
BRANCH   7  18
ATOM     18  C   UNL     1      36.065 -18.121 -21.856  0.00  0.00    +0.047 C 
BRANCH  18  23
ATOM     19  S   UNL     1      34.476 -17.816 -24.092  0.00  0.00    -0.048 S 
ATOM     20  O   UNL     1      35.140 -15.334 -21.211  0.00  0.00    -0.274 OA
ATOM     21  O   UNL     1      34.212 -15.765 -25.715  0.00  0.00    -0.263 OA
ATOM     22  N   UNL     1      34.666 -15.344 -23.475  0.00  0.00    -0.246 N 
ATOM     23  C   UNL     1      34.785 -17.443 -22.339  0.00  0.00    +0.137 C 
ATOM     24  C   UNL     1      34.890 -15.937 -22.250  0.00  0.00    +0.239 C 
ATOM     25  C   UNL     1      34.426 -16.133 -24.570  0.00  0.00    +0.279 C 
ATOM     26  H   UNL     1      34.679 -14.364 -23.562  0.00  0.00    +0.158 HD
ENDBRANCH  18  23
ENDBRANCH   7  18
TORSDOF 4
ENDMDL
MODEL 9
REMARK VINA RESULT:     -11.0      4.348      9.693
REMARK  Name = 6918151
REMARK  4 active torsions:
REMARK  status: ('A' for Active; 'I' for Inactive)
REMARK    1  A    between atoms: C_2  and  C_11
REMARK    2  A    between atoms: C_7  and  C_18
REMARK    3  A    between atoms: C_11  and  C_12
REMARK    4  A    between atoms: C_18  and  C_23
REMARK                            x       y       z     vdW  Elec       q    Type
REMARK                         _______ _______ _______ _____ _____    ______ ____
ROOT
ATOM      1  O   UNL     1      34.525 -22.992 -16.514  0.00  0.00    -0.479 OA
ATOM      2  C   UNL     1      35.314 -22.882 -15.321  0.00  0.00    +0.171 C 
ATOM      3  C   UNL     1      36.808 -22.963 -15.633  0.00  0.00    +0.049 C 
ATOM      4  C   UNL     1      37.197 -21.783 -16.515  0.00  0.00    +0.033 C 
ATOM      5  C   UNL     1      36.201 -21.604 -17.623  0.00  0.00    +0.012 C 
ATOM      6  C   UNL     1      34.934 -22.200 -17.556  0.00  0.00    +0.134 C 
ATOM      7  C   UNL     1      35.606 -20.637 -19.769  0.00  0.00    -0.021 C 
ATOM      8  C   UNL     1      36.524 -20.810 -18.732  0.00  0.00    -0.006 C 
ATOM      9  C   UNL     1      34.022 -22.036 -18.601  0.00  0.00    +0.036 C 
ATOM     10  C   UNL     1      34.357 -21.252 -19.705  0.00  0.00    -0.001 C 
ENDROOT
BRANCH   2  11
ATOM     11  C   UNL     1      34.893 -24.016 -14.394  0.00  0.00    +0.070 C 
BRANCH  11  12
ATOM     12  C   UNL     1      35.897 -24.242 -13.297  0.00  0.00    -0.019 C 
ATOM     13  C   UNL     1      36.631 -25.420 -13.273  0.00  0.00    -0.004 C 
ATOM     14  C   UNL     1      36.077 -23.269 -12.323  0.00  0.00    -0.004 C 
ATOM     15  C   UNL     1      37.563 -25.629 -12.256  0.00  0.00    -0.000 C 
ATOM     16  C   UNL     1      37.009 -23.478 -11.306  0.00  0.00    -0.000 C 
ATOM     17  C   UNL     1      37.751 -24.658 -11.272  0.00  0.00    -0.000 C 
ENDBRANCH  11  12
ENDBRANCH   2  11
BRANCH   7  18
ATOM     18  C   UNL     1      35.962 -19.795 -20.946  0.00  0.00    +0.047 C 
BRANCH  18  23
ATOM     19  S   UNL     1      34.491 -18.825 -23.071  0.00  0.00    -0.048 S 
ATOM     20  O   UNL     1      35.676 -16.996 -19.886  0.00  0.00    -0.274 OA
ATOM     21  O   UNL     1      34.698 -16.553 -24.377  0.00  0.00    -0.263 OA
ATOM     22  N   UNL     1      35.222 -16.572 -22.114  0.00  0.00    -0.246 N 
ATOM     23  C   UNL     1      34.868 -18.788 -21.292  0.00  0.00    +0.137 C 
ATOM     24  C   UNL     1      35.303 -17.372 -20.992  0.00  0.00    +0.239 C 
ATOM     25  C   UNL     1      34.818 -17.122 -23.303  0.00  0.00    +0.279 C 
ATOM     26  H   UNL     1      35.453 -15.617 -22.060  0.00  0.00    +0.158 HD
ENDBRANCH  18  23
ENDBRANCH   7  18
TORSDOF 4
ENDMDL
