MODEL 1
REMARK VINA RESULT:     -12.5      0.000      0.000
REMARK  Name = 90311989
REMARK  4 active torsions:
REMARK  status: ('A' for Active; 'I' for Inactive)
REMARK    1  A    between atoms: C_16  and  O_33
REMARK    2  A    between atoms: C_17  and  C_21
REMARK    3  A    between atoms: N_20  and  C_23
REMARK    4  A    between atoms: C_23  and  C_27
REMARK                            x       y       z     vdW  Elec       q    Type
REMARK                         _______ _______ _______ _____ _____    ______ ____
ROOT
ATOM      1  O   UNL     1      37.921 -23.182 -14.521  0.00  0.00    -0.339 OA
ATOM      2  O   UNL     1      33.474 -23.209 -16.144  0.00  0.00    -0.268 OA
ATOM      3  O   UNL     1      34.017 -20.750 -20.570  0.00  0.00    -0.283 OA
ATOM      4  N   UNL     1      35.660 -23.308 -15.398  0.00  0.00    -0.253 N 
ATOM      5  N   UNL     1      36.375 -21.412 -17.340  0.00  0.00    -0.275 N 
ATOM      6  C   UNL     1      35.358 -24.270 -14.327  0.00  0.00    +0.080 C 
ATOM      7  C   UNL     1      37.547 -24.202 -13.590  0.00  0.00    +0.119 C 
ATOM      8  C   UNL     1      36.149 -23.886 -13.086  0.00  0.00    +0.049 C 
ATOM      9  C   UNL     1      35.931 -25.648 -14.684  0.00  0.00    +0.022 C 
ATOM     10  C   UNL     1      37.406 -25.574 -14.260  0.00  0.00    +0.031 C 
ATOM     11  C   UNL     1      37.074 -23.032 -15.672  0.00  0.00    +0.215 C 
ATOM     12  C   UNL     1      37.229 -21.608 -16.172  0.00  0.00    +0.147 C 
ATOM     13  C   UNL     1      34.656 -22.895 -16.276  0.00  0.00    +0.267 C 
ATOM     14  C   UNL     1      35.110 -22.009 -17.416  0.00  0.00    +0.143 C 
ATOM     15  C   UNL     1      36.780 -20.569 -18.365  0.00  0.00    +0.074 C 
ATOM     16  C   UNL     1      34.280 -21.825 -18.466  0.00  0.00    +0.191 C 
ATOM     17  C   UNL     1      36.062 -20.295 -19.461  0.00  0.00    +0.110 C 
ATOM     18  C   UNL     1      34.728 -20.938 -19.589  0.00  0.00    +0.236 C 
ENDROOT
BRANCH  17  21
ATOM     19  O   UNL     1      37.838 -19.186 -20.525  0.00  0.00    -0.270 OA
ATOM     20  N   UNL     1      35.662 -18.815 -21.277  0.00  0.00    -0.297 N 
ATOM     21  C   UNL     1      36.624 -19.386 -20.460  0.00  0.00    +0.251 C 
ATOM     22  H   UNL     1      34.720 -19.055 -21.125  0.00  0.00    +0.150 HD
BRANCH  20  23
ATOM     23  C   UNL     1      35.969 -17.883 -22.338  0.00  0.00    +0.121 C 
BRANCH  23  27
ATOM     24  F   UNL     1      35.070 -16.257 -24.471  0.00  0.00    -0.204 F 
ATOM     25  F   UNL     1      35.513 -16.783 -19.774  0.00  0.00    -0.204 F 
ATOM     26  F   UNL     1      33.492 -12.890 -21.546  0.00  0.00    -0.204 F 
ATOM     27  C   UNL     1      35.308 -16.553 -22.127  0.00  0.00    +0.053 C 
ATOM     28  C   UNL     1      34.888 -15.800 -23.224  0.00  0.00    +0.142 C 
ATOM     29  C   UNL     1      35.113 -16.067 -20.834  0.00  0.00    +0.142 C 
ATOM     30  C   UNL     1      34.275 -14.563 -23.027  0.00  0.00    +0.059 C 
ATOM     31  C   UNL     1      34.499 -14.831 -20.637  0.00  0.00    +0.059 C 
ATOM     32  C   UNL     1      34.081 -14.079 -21.734  0.00  0.00    +0.145 C 
ENDBRANCH  23  27
ENDBRANCH  20  23
ENDBRANCH  17  21
BRANCH  16  33
ATOM     33  O   UNL     1      33.041 -22.412 -18.586  0.00  0.00    -0.502 OA
ATOM     34  H   UNL     1      32.323 -22.100 -18.070  0.00  0.00    +0.292 HD
ENDBRANCH  16  33
TORSDOF 4
ENDMDL
MODEL 2
REMARK VINA RESULT:     -12.4      2.763      4.142
REMARK  Name = 90311989
REMARK  4 active torsions:
REMARK  status: ('A' for Active; 'I' for Inactive)
REMARK    1  A    between atoms: C_16  and  O_33
REMARK    2  A    between atoms: C_17  and  C_21
REMARK    3  A    between atoms: N_20  and  C_23
REMARK    4  A    between atoms: C_23  and  C_27
REMARK                            x       y       z     vdW  Elec       q    Type
REMARK                         _______ _______ _______ _____ _____    ______ ____
ROOT
ATOM      1  O   UNL     1      38.364 -23.896 -13.514  0.00  0.00    -0.339 OA
ATOM      2  O   UNL     1      33.798 -23.744 -12.273  0.00  0.00    -0.268 OA
ATOM      3  O   UNL     1      31.552 -23.217 -16.813  0.00  0.00    -0.283 OA
ATOM      4  N   UNL     1      36.021 -23.941 -12.877  0.00  0.00    -0.253 N 
ATOM      5  N   UNL     1      35.368 -23.045 -15.455  0.00  0.00    -0.275 N 
ATOM      6  C   UNL     1      36.451 -24.374 -11.538  0.00  0.00    +0.080 C 
ATOM      7  C   UNL     1      38.660 -24.422 -12.216  0.00  0.00    +0.119 C 
ATOM      8  C   UNL     1      37.778 -23.705 -11.209  0.00  0.00    +0.049 C 
ATOM      9  C   UNL     1      36.818 -25.863 -11.563  0.00  0.00    +0.022 C 
ATOM     10  C   UNL     1      38.263 -25.897 -12.085  0.00  0.00    +0.031 C 
ATOM     11  C   UNL     1      37.005 -24.035 -13.960  0.00  0.00    +0.215 C 
ATOM     12  C   UNL     1      36.745 -22.944 -14.982  0.00  0.00    +0.147 C 
ATOM     13  C   UNL     1      34.670 -23.711 -13.141  0.00  0.00    +0.267 C 
ATOM     14  C   UNL     1      34.331 -23.399 -14.582  0.00  0.00    +0.143 C 
ATOM     15  C   UNL     1      35.056 -22.722 -16.768  0.00  0.00    +0.074 C 
ATOM     16  C   UNL     1      33.041 -23.472 -14.977  0.00  0.00    +0.191 C 
ATOM     17  C   UNL     1      33.826 -22.750 -17.293  0.00  0.00    +0.110 C 
ATOM     18  C   UNL     1      32.706 -23.152 -16.403  0.00  0.00    +0.236 C 
ENDROOT
BRANCH  17  21
ATOM     19  O   UNL     1      33.540 -23.247 -19.571  0.00  0.00    -0.270 OA
ATOM     20  N   UNL     1      33.637 -21.014 -18.906  0.00  0.00    -0.297 N 
ATOM     21  C   UNL     1      33.654 -22.384 -18.699  0.00  0.00    +0.251 C 
ATOM     22  H   UNL     1      33.737 -20.424 -18.125  0.00  0.00    +0.150 HD
BRANCH  20  23
ATOM     23  C   UNL     1      33.480 -20.407 -20.208  0.00  0.00    +0.121 C 
BRANCH  23  27
ATOM     24  F   UNL     1      35.924 -20.604 -18.798  0.00  0.00    -0.204 F 
ATOM     25  F   UNL     1      33.650 -18.936 -22.617  0.00  0.00    -0.204 F 
ATOM     26  F   UNL     1      38.264 -18.068 -22.034  0.00  0.00    -0.204 F 
ATOM     27  C   UNL     1      34.755 -19.785 -20.695  0.00  0.00    +0.053 C 
ATOM     28  C   UNL     1      35.927 -19.919 -19.950  0.00  0.00    +0.142 C 
ATOM     29  C   UNL     1      34.771 -19.071 -21.894  0.00  0.00    +0.142 C 
ATOM     30  C   UNL     1      37.112 -19.339 -20.402  0.00  0.00    +0.059 C 
ATOM     31  C   UNL     1      35.956 -18.492 -22.346  0.00  0.00    +0.059 C 
ATOM     32  C   UNL     1      37.126 -18.625 -21.600  0.00  0.00    +0.145 C 
ENDBRANCH  23  27
ENDBRANCH  20  23
ENDBRANCH  17  21
BRANCH  16  33
ATOM     33  O   UNL     1      31.999 -23.838 -14.154  0.00  0.00    -0.502 OA
ATOM     34  H   UNL     1      31.168 -23.412 -14.235  0.00  0.00    +0.292 HD
ENDBRANCH  16  33
TORSDOF 4
ENDMDL
MODEL 3
REMARK VINA RESULT:     -12.1      5.248     11.454
REMARK  Name = 90311989
REMARK  4 active torsions:
REMARK  status: ('A' for Active; 'I' for Inactive)
REMARK    1  A    between atoms: C_16  and  O_33
REMARK    2  A    between atoms: C_17  and  C_21
REMARK    3  A    between atoms: N_20  and  C_23
REMARK    4  A    between atoms: C_23  and  C_27
REMARK                            x       y       z     vdW  Elec       q    Type
REMARK                         _______ _______ _______ _____ _____    ______ ____
ROOT
ATOM      1  O   UNL     1      33.194  -8.530 -23.678  0.00  0.00    -0.339 OA
ATOM      2  O   UNL     1      31.199 -10.957 -20.137  0.00  0.00    -0.268 OA
ATOM      3  O   UNL     1      33.735 -15.367 -20.404  0.00  0.00    -0.283 OA
ATOM      4  N   UNL     1      32.249  -9.720 -21.784  0.00  0.00    -0.253 N 
ATOM      5  N   UNL     1      33.441 -12.071 -22.748  0.00  0.00    -0.275 N 
ATOM      6  C   UNL     1      31.628  -8.453 -21.368  0.00  0.00    +0.080 C 
ATOM      7  C   UNL     1      32.634  -7.335 -23.123  0.00  0.00    +0.119 C 
ATOM      8  C   UNL     1      31.243  -7.664 -22.611  0.00  0.00    +0.049 C 
ATOM      9  C   UNL     1      32.677  -7.550 -20.705  0.00  0.00    +0.022 C 
ATOM     10  C   UNL     1      33.395  -6.864 -21.878  0.00  0.00    +0.031 C 
ATOM     11  C   UNL     1      33.320  -9.646 -22.782  0.00  0.00    +0.215 C 
ATOM     12  C   UNL     1      33.322 -10.910 -23.623  0.00  0.00    +0.147 C 
ATOM     13  C   UNL     1      32.007 -10.891 -21.063  0.00  0.00    +0.267 C 
ATOM     14  C   UNL     1      32.800 -12.103 -21.502  0.00  0.00    +0.143 C 
ATOM     15  C   UNL     1      34.138 -13.195 -23.170  0.00  0.00    +0.074 C 
ATOM     16  C   UNL     1      32.861 -13.173 -20.679  0.00  0.00    +0.191 C 
ATOM     17  C   UNL     1      34.279 -14.320 -22.461  0.00  0.00    +0.110 C 
ATOM     18  C   UNL     1      33.638 -14.376 -21.121  0.00  0.00    +0.236 C 
ENDROOT
BRANCH  17  21
ATOM     19  O   UNL     1      35.759 -15.250 -24.030  0.00  0.00    -0.270 OA
ATOM     20  N   UNL     1      34.875 -16.619 -22.362  0.00  0.00    -0.297 N 
ATOM     21  C   UNL     1      35.047 -15.423 -23.040  0.00  0.00    +0.251 C 
ATOM     22  H   UNL     1      34.276 -16.630 -21.581  0.00  0.00    +0.150 HD
BRANCH  20  23
ATOM     23  C   UNL     1      35.527 -17.852 -22.743  0.00  0.00    +0.121 C 
BRANCH  23  27
ATOM     24  F   UNL     1      37.931 -18.298 -21.320  0.00  0.00    -0.204 F 
ATOM     25  F   UNL     1      33.333 -19.372 -21.811  0.00  0.00    -0.204 F 
ATOM     26  F   UNL     1      35.910 -21.457 -18.435  0.00  0.00    -0.204 F 
ATOM     27  C   UNL     1      35.629 -18.811 -21.594  0.00  0.00    +0.053 C 
ATOM     28  C   UNL     1      36.847 -18.985 -20.935  0.00  0.00    +0.142 C 
ATOM     29  C   UNL     1      34.507 -19.532 -21.184  0.00  0.00    +0.142 C 
ATOM     30  C   UNL     1      36.941 -19.879 -19.868  0.00  0.00    +0.059 C 
ATOM     31  C   UNL     1      34.601 -20.424 -20.117  0.00  0.00    +0.059 C 
ATOM     32  C   UNL     1      35.818 -20.598 -19.460  0.00  0.00    +0.145 C 
ENDBRANCH  23  27
ENDBRANCH  20  23
ENDBRANCH  17  21
BRANCH  16  33
ATOM     33  O   UNL     1      32.263 -13.232 -19.440  0.00  0.00    -0.502 OA
ATOM     34  H   UNL     1      32.162 -14.057 -19.008  0.00  0.00    +0.292 HD
ENDBRANCH  16  33
TORSDOF 4
ENDMDL
MODEL 4
REMARK VINA RESULT:     -11.8      5.378     10.616
REMARK  Name = 90311989
REMARK  4 active torsions:
REMARK  status: ('A' for Active; 'I' for Inactive)
REMARK    1  A    between atoms: C_16  and  O_33
REMARK    2  A    between atoms: C_17  and  C_21
REMARK    3  A    between atoms: N_20  and  C_23
REMARK    4  A    between atoms: C_23  and  C_27
REMARK                            x       y       z     vdW  Elec       q    Type
REMARK                         _______ _______ _______ _____ _____    ______ ____
ROOT
ATOM      1  O   UNL     1      32.334 -11.699 -19.550  0.00  0.00    -0.339 OA
ATOM      2  O   UNL     1      33.169 -10.483 -24.048  0.00  0.00    -0.268 OA
ATOM      3  O   UNL     1      34.195 -15.017 -26.128  0.00  0.00    -0.283 OA
ATOM      4  N   UNL     1      32.641 -11.078 -21.878  0.00  0.00    -0.253 N 
ATOM      5  N   UNL     1      33.713 -13.629 -22.350  0.00  0.00    -0.275 N 
ATOM      6  C   UNL     1      32.102  -9.753 -21.537  0.00  0.00    +0.080 C 
ATOM      7  C   UNL     1      31.726 -10.418 -19.357  0.00  0.00    +0.119 C 
ATOM      8  C   UNL     1      32.540  -9.392 -20.126  0.00  0.00    +0.049 C 
ATOM      9  C   UNL     1      30.574  -9.826 -21.411  0.00  0.00    +0.022 C 
ATOM     10  C   UNL     1      30.328 -10.340 -19.984  0.00  0.00    +0.031 C 
ATOM     11  C   UNL     1      32.427 -12.158 -20.908  0.00  0.00    +0.215 C 
ATOM     12  C   UNL     1      33.579 -13.144 -20.980  0.00  0.00    +0.147 C 
ATOM     13  C   UNL     1      33.091 -11.343 -23.172  0.00  0.00    +0.267 C 
ATOM     14  C   UNL     1      33.500 -12.775 -23.440  0.00  0.00    +0.143 C 
ATOM     15  C   UNL     1      34.125 -14.932 -22.590  0.00  0.00    +0.074 C 
ATOM     16  C   UNL     1      33.646 -13.181 -24.721  0.00  0.00    +0.191 C 
ATOM     17  C   UNL     1      34.310 -15.466 -23.803  0.00  0.00    +0.110 C 
ATOM     18  C   UNL     1      34.062 -14.597 -24.984  0.00  0.00    +0.236 C 
ENDROOT
BRANCH  17  21
ATOM     19  O   UNL     1      34.439 -17.555 -24.868  0.00  0.00    -0.270 OA
ATOM     20  N   UNL     1      35.503 -17.267 -22.813  0.00  0.00    -0.297 N 
ATOM     21  C   UNL     1      34.745 -16.860 -23.899  0.00  0.00    +0.251 C 
ATOM     22  H   UNL     1      35.680 -16.615 -22.097  0.00  0.00    +0.150 HD
BRANCH  20  23
ATOM     23  C   UNL     1      36.046 -18.600 -22.677  0.00  0.00    +0.121 C 
BRANCH  23  27
ATOM     24  F   UNL     1      37.540 -19.503 -20.450  0.00  0.00    -0.204 F 
ATOM     25  F   UNL     1      33.290 -19.219 -22.547  0.00  0.00    -0.204 F 
ATOM     26  F   UNL     1      33.734 -21.392 -18.368  0.00  0.00    -0.204 F 
ATOM     27  C   UNL     1      35.430 -19.343 -21.528  0.00  0.00    +0.053 C 
ATOM     28  C   UNL     1      36.225 -19.762 -20.460  0.00  0.00    +0.142 C 
ATOM     29  C   UNL     1      34.062 -19.617 -21.526  0.00  0.00    +0.142 C 
ATOM     30  C   UNL     1      35.652 -20.453 -19.393  0.00  0.00    +0.059 C 
ATOM     31  C   UNL     1      33.489 -20.307 -20.459  0.00  0.00    +0.059 C 
ATOM     32  C   UNL     1      34.284 -20.727 -19.393  0.00  0.00    +0.145 C 
ENDBRANCH  23  27
ENDBRANCH  20  23
ENDBRANCH  17  21
BRANCH  16  33
ATOM     33  O   UNL     1      33.424 -12.378 -25.817  0.00  0.00    -0.502 OA
ATOM     34  H   UNL     1      33.264 -12.765 -26.656  0.00  0.00    +0.292 HD
ENDBRANCH  16  33
TORSDOF 4
ENDMDL
MODEL 5
REMARK VINA RESULT:     -11.8      5.377     10.562
REMARK  Name = 90311989
REMARK  4 active torsions:
REMARK  status: ('A' for Active; 'I' for Inactive)
REMARK    1  A    between atoms: C_16  and  O_33
REMARK    2  A    between atoms: C_17  and  C_21
REMARK    3  A    between atoms: N_20  and  C_23
REMARK    4  A    between atoms: C_23  and  C_27
REMARK                            x       y       z     vdW  Elec       q    Type
REMARK                         _______ _______ _______ _____ _____    ______ ____
ROOT
ATOM      1  O   UNL     1      32.337 -11.698 -19.551  0.00  0.00    -0.339 OA
ATOM      2  O   UNL     1      33.169 -10.486 -24.051  0.00  0.00    -0.268 OA
ATOM      3  O   UNL     1      34.197 -15.022 -26.127  0.00  0.00    -0.283 OA
ATOM      4  N   UNL     1      32.642 -11.080 -21.880  0.00  0.00    -0.253 N 
ATOM      5  N   UNL     1      33.716 -13.630 -22.350  0.00  0.00    -0.275 N 
ATOM      6  C   UNL     1      32.103  -9.754 -21.541  0.00  0.00    +0.080 C 
ATOM      7  C   UNL     1      31.728 -10.417 -19.359  0.00  0.00    +0.119 C 
ATOM      8  C   UNL     1      32.541  -9.392 -20.130  0.00  0.00    +0.049 C 
ATOM      9  C   UNL     1      30.575  -9.829 -21.414  0.00  0.00    +0.022 C 
ATOM     10  C   UNL     1      30.330 -10.341 -19.986  0.00  0.00    +0.031 C 
ATOM     11  C   UNL     1      32.430 -12.159 -20.909  0.00  0.00    +0.215 C 
ATOM     12  C   UNL     1      33.582 -13.144 -20.980  0.00  0.00    +0.147 C 
ATOM     13  C   UNL     1      33.092 -11.346 -23.174  0.00  0.00    +0.267 C 
ATOM     14  C   UNL     1      33.502 -12.778 -23.441  0.00  0.00    +0.143 C 
ATOM     15  C   UNL     1      34.129 -14.933 -22.590  0.00  0.00    +0.074 C 
ATOM     16  C   UNL     1      33.647 -13.185 -24.722  0.00  0.00    +0.191 C 
ATOM     17  C   UNL     1      34.314 -15.468 -23.802  0.00  0.00    +0.110 C 
ATOM     18  C   UNL     1      34.064 -14.601 -24.983  0.00  0.00    +0.236 C 
ENDROOT
BRANCH  17  21
ATOM     19  O   UNL     1      34.438 -17.560 -24.862  0.00  0.00    -0.270 OA
ATOM     20  N   UNL     1      35.514 -17.266 -22.814  0.00  0.00    -0.297 N 
ATOM     21  C   UNL     1      34.749 -16.862 -23.896  0.00  0.00    +0.251 C 
ATOM     22  H   UNL     1      35.694 -16.612 -22.101  0.00  0.00    +0.150 HD
BRANCH  20  23
ATOM     23  C   UNL     1      36.060 -18.598 -22.677  0.00  0.00    +0.121 C 
BRANCH  23  27
ATOM     24  F   UNL     1      33.303 -19.220 -22.555  0.00  0.00    -0.204 F 
ATOM     25  F   UNL     1      37.549 -19.503 -20.451  0.00  0.00    -0.204 F 
ATOM     26  F   UNL     1      33.740 -21.389 -18.373  0.00  0.00    -0.204 F 
ATOM     27  C   UNL     1      35.441 -19.343 -21.531  0.00  0.00    +0.053 C 
ATOM     28  C   UNL     1      34.073 -19.617 -21.533  0.00  0.00    +0.142 C 
ATOM     29  C   UNL     1      36.234 -19.761 -20.462  0.00  0.00    +0.142 C 
ATOM     30  C   UNL     1      33.499 -20.308 -20.466  0.00  0.00    +0.059 C 
ATOM     31  C   UNL     1      35.659 -20.453 -19.396  0.00  0.00    +0.059 C 
ATOM     32  C   UNL     1      34.292 -20.726 -19.398  0.00  0.00    +0.145 C 
ENDBRANCH  23  27
ENDBRANCH  20  23
ENDBRANCH  17  21
BRANCH  16  33
ATOM     33  O   UNL     1      33.424 -12.383 -25.819  0.00  0.00    -0.502 OA
ATOM     34  H   UNL     1      33.336 -12.768 -26.669  0.00  0.00    +0.292 HD
ENDBRANCH  16  33
TORSDOF 4
ENDMDL
MODEL 6
REMARK VINA RESULT:     -11.6      5.896      9.306
REMARK  Name = 90311989
REMARK  4 active torsions:
REMARK  status: ('A' for Active; 'I' for Inactive)
REMARK    1  A    between atoms: C_16  and  O_33
REMARK    2  A    between atoms: C_17  and  C_21
REMARK    3  A    between atoms: N_20  and  C_23
REMARK    4  A    between atoms: C_23  and  C_27
REMARK                            x       y       z     vdW  Elec       q    Type
REMARK                         _______ _______ _______ _____ _____    ______ ____
ROOT
ATOM      1  O   UNL     1      35.488 -16.842 -20.340  0.00  0.00    -0.339 OA
ATOM      2  O   UNL     1      33.787 -17.297 -24.735  0.00  0.00    -0.268 OA
ATOM      3  O   UNL     1      33.649 -12.438 -26.254  0.00  0.00    -0.283 OA
ATOM      4  N   UNL     1      34.730 -17.098 -22.633  0.00  0.00    -0.253 N 
ATOM      5  N   UNL     1      34.270 -14.330 -22.723  0.00  0.00    -0.275 N 
ATOM      6  C   UNL     1      34.964 -18.543 -22.490  0.00  0.00    +0.080 C 
ATOM      7  C   UNL     1      35.779 -18.242 -20.349  0.00  0.00    +0.119 C 
ATOM      8  C   UNL     1      34.641 -18.953 -21.061  0.00  0.00    +0.049 C 
ATOM      9  C   UNL     1      36.464 -18.843 -22.601  0.00  0.00    +0.022 C 
ATOM     10  C   UNL     1      37.018 -18.571 -21.193  0.00  0.00    +0.031 C 
ATOM     11  C   UNL     1      35.331 -16.218 -21.626  0.00  0.00    +0.215 C 
ATOM     12  C   UNL     1      34.461 -14.990 -21.435  0.00  0.00    +0.147 C 
ATOM     13  C   UNL     1      34.191 -16.586 -23.815  0.00  0.00    +0.267 C 
ATOM     14  C   UNL     1      34.118 -15.077 -23.899  0.00  0.00    +0.143 C 
ATOM     15  C   UNL     1      34.166 -12.948 -22.790  0.00  0.00    +0.074 C 
ATOM     16  C   UNL     1      33.908 -14.502 -25.104  0.00  0.00    +0.191 C 
ATOM     17  C   UNL     1      33.959 -12.248 -23.911  0.00  0.00    +0.110 C 
ATOM     18  C   UNL     1      33.825 -13.008 -25.183  0.00  0.00    +0.236 C 
ENDROOT
BRANCH  17  21
ATOM     19  O   UNL     1      34.892 -10.098 -23.767  0.00  0.00    -0.270 OA
ATOM     20  N   UNL     1      32.571 -10.321 -23.815  0.00  0.00    -0.297 N 
ATOM     21  C   UNL     1      33.875 -10.790 -23.824  0.00  0.00    +0.251 C 
ATOM     22  H   UNL     1      31.840 -10.977 -23.866  0.00  0.00    +0.150 HD
BRANCH  20  23
ATOM     23  C   UNL     1      32.230  -8.918 -23.735  0.00  0.00    +0.121 C 
BRANCH  23  27
ATOM     24  F   UNL     1      31.173  -9.878 -21.292  0.00  0.00    -0.204 F 
ATOM     25  F   UNL     1      34.023  -6.752 -23.447  0.00  0.00    -0.204 F 
ATOM     26  F   UNL     1      33.575  -6.702 -18.737  0.00  0.00    -0.204 F 
ATOM     27  C   UNL     1      32.589  -8.329 -22.403  0.00  0.00    +0.053 C 
ATOM     28  C   UNL     1      32.031  -8.849 -21.235  0.00  0.00    +0.142 C 
ATOM     29  C   UNL     1      33.481  -7.259 -22.331  0.00  0.00    +0.142 C 
ATOM     30  C   UNL     1      32.364  -8.300 -19.997  0.00  0.00    +0.059 C 
ATOM     31  C   UNL     1      33.815  -6.710 -21.093  0.00  0.00    +0.059 C 
ATOM     32  C   UNL     1      33.256  -7.230 -19.926  0.00  0.00    +0.145 C 
ENDBRANCH  23  27
ENDBRANCH  20  23
ENDBRANCH  17  21
BRANCH  16  33
ATOM     33  O   UNL     1      33.776 -15.201 -26.283  0.00  0.00    -0.502 OA
ATOM     34  H   UNL     1      33.761 -16.138 -26.272  0.00  0.00    +0.292 HD
ENDBRANCH  16  33
TORSDOF 4
ENDMDL
MODEL 7
REMARK VINA RESULT:     -11.5      2.113      3.606
REMARK  Name = 90311989
REMARK  4 active torsions:
REMARK  status: ('A' for Active; 'I' for Inactive)
REMARK    1  A    between atoms: C_16  and  O_33
REMARK    2  A    between atoms: C_17  and  C_21
REMARK    3  A    between atoms: N_20  and  C_23
REMARK    4  A    between atoms: C_23  and  C_27
REMARK                            x       y       z     vdW  Elec       q    Type
REMARK                         _______ _______ _______ _____ _____    ______ ____
ROOT
ATOM      1  O   UNL     1      30.861 -23.345 -15.123  0.00  0.00    -0.339 OA
ATOM      2  O   UNL     1      35.543 -23.948 -15.481  0.00  0.00    -0.268 OA
ATOM      3  O   UNL     1      36.659 -20.802 -19.327  0.00  0.00    -0.283 OA
ATOM      4  N   UNL     1      33.278 -23.571 -15.217  0.00  0.00    -0.253 N 
ATOM      5  N   UNL     1      33.242 -22.245 -17.691  0.00  0.00    -0.275 N 
ATOM      6  C   UNL     1      33.204 -24.290 -13.936  0.00  0.00    +0.080 C 
ATOM      7  C   UNL     1      30.920 -23.959 -13.832  0.00  0.00    +0.119 C 
ATOM      8  C   UNL     1      31.918 -25.102 -13.902  0.00  0.00    +0.049 C 
ATOM      9  C   UNL     1      33.008 -23.292 -12.787  0.00  0.00    +0.022 C 
ATOM     10  C   UNL     1      31.496 -23.016 -12.768  0.00  0.00    +0.031 C 
ATOM     11  C   UNL     1      32.095 -22.806 -15.625  0.00  0.00    +0.215 C 
ATOM     12  C   UNL     1      32.001 -22.781 -17.140  0.00  0.00    +0.147 C 
ATOM     13  C   UNL     1      34.503 -23.416 -15.867  0.00  0.00    +0.267 C 
ATOM     14  C   UNL     1      34.479 -22.548 -17.107  0.00  0.00    +0.143 C 
ATOM     15  C   UNL     1      33.218 -21.481 -18.849  0.00  0.00    +0.074 C 
ATOM     16  C   UNL     1      35.650 -22.097 -17.608  0.00  0.00    +0.191 C 
ATOM     17  C   UNL     1      34.297 -20.972 -19.453  0.00  0.00    +0.110 C 
ATOM     18  C   UNL     1      35.624 -21.247 -18.842  0.00  0.00    +0.236 C 
ENDROOT
BRANCH  17  21
ATOM     19  O   UNL     1      32.986 -19.907 -21.085  0.00  0.00    -0.270 OA
ATOM     20  N   UNL     1      35.309 -19.805 -21.260  0.00  0.00    -0.297 N 
ATOM     21  C   UNL     1      34.113 -20.181 -20.671  0.00  0.00    +0.251 C 
ATOM     22  H   UNL     1      36.149 -20.088 -20.831  0.00  0.00    +0.150 HD
BRANCH  20  23
ATOM     23  C   UNL     1      35.388 -19.021 -22.472  0.00  0.00    +0.121 C 
BRANCH  23  27
ATOM     24  F   UNL     1      35.775 -17.823 -19.939  0.00  0.00    -0.204 F 
ATOM     25  F   UNL     1      34.509 -17.230 -24.476  0.00  0.00    -0.204 F 
ATOM     26  F   UNL     1      34.480 -13.550 -21.503  0.00  0.00    -0.204 F 
ATOM     27  C   UNL     1      35.148 -17.563 -22.214  0.00  0.00    +0.053 C 
ATOM     28  C   UNL     1      35.357 -17.035 -20.939  0.00  0.00    +0.142 C 
ATOM     29  C   UNL     1      34.713 -16.733 -23.248  0.00  0.00    +0.142 C 
ATOM     30  C   UNL     1      35.132 -15.680 -20.699  0.00  0.00    +0.059 C 
ATOM     31  C   UNL     1      34.489 -15.378 -23.008  0.00  0.00    +0.059 C 
ATOM     32  C   UNL     1      34.697 -14.851 -21.734  0.00  0.00    +0.145 C 
ENDBRANCH  23  27
ENDBRANCH  20  23
ENDBRANCH  17  21
BRANCH  16  33
ATOM     33  O   UNL     1      36.882 -22.355 -17.049  0.00  0.00    -0.502 OA
ATOM     34  H   UNL     1      37.488 -21.655 -16.909  0.00  0.00    +0.292 HD
ENDBRANCH  16  33
TORSDOF 4
ENDMDL
MODEL 8
REMARK VINA RESULT:     -11.5      2.115      3.303
REMARK  Name = 90311989
REMARK  4 active torsions:
REMARK  status: ('A' for Active; 'I' for Inactive)
REMARK    1  A    between atoms: C_16  and  O_33
REMARK    2  A    between atoms: C_17  and  C_21
REMARK    3  A    between atoms: N_20  and  C_23
REMARK    4  A    between atoms: C_23  and  C_27
REMARK                            x       y       z     vdW  Elec       q    Type
REMARK                         _______ _______ _______ _____ _____    ______ ____
ROOT
ATOM      1  O   UNL     1      30.857 -23.342 -15.121  0.00  0.00    -0.339 OA
ATOM      2  O   UNL     1      35.538 -23.950 -15.480  0.00  0.00    -0.268 OA
ATOM      3  O   UNL     1      36.655 -20.807 -19.328  0.00  0.00    -0.283 OA
ATOM      4  N   UNL     1      33.273 -23.571 -15.215  0.00  0.00    -0.253 N 
ATOM      5  N   UNL     1      33.237 -22.246 -17.690  0.00  0.00    -0.275 N 
ATOM      6  C   UNL     1      33.199 -24.289 -13.934  0.00  0.00    +0.080 C 
ATOM      7  C   UNL     1      30.915 -23.955 -13.829  0.00  0.00    +0.119 C 
ATOM      8  C   UNL     1      31.912 -25.099 -13.899  0.00  0.00    +0.049 C 
ATOM      9  C   UNL     1      33.004 -23.289 -12.786  0.00  0.00    +0.022 C 
ATOM     10  C   UNL     1      31.492 -23.013 -12.766  0.00  0.00    +0.031 C 
ATOM     11  C   UNL     1      32.091 -22.804 -15.623  0.00  0.00    +0.215 C 
ATOM     12  C   UNL     1      31.996 -22.780 -17.138  0.00  0.00    +0.147 C 
ATOM     13  C   UNL     1      34.498 -23.417 -15.866  0.00  0.00    +0.267 C 
ATOM     14  C   UNL     1      34.475 -22.550 -17.106  0.00  0.00    +0.143 C 
ATOM     15  C   UNL     1      33.214 -21.483 -18.848  0.00  0.00    +0.074 C 
ATOM     16  C   UNL     1      35.646 -22.100 -17.607  0.00  0.00    +0.191 C 
ATOM     17  C   UNL     1      34.294 -20.974 -19.453  0.00  0.00    +0.110 C 
ATOM     18  C   UNL     1      35.620 -21.251 -18.842  0.00  0.00    +0.236 C 
ENDROOT
BRANCH  17  21
ATOM     19  O   UNL     1      32.983 -19.915 -21.089  0.00  0.00    -0.270 OA
ATOM     20  N   UNL     1      35.306 -19.803 -21.257  0.00  0.00    -0.297 N 
ATOM     21  C   UNL     1      34.110 -20.184 -20.671  0.00  0.00    +0.251 C 
ATOM     22  H   UNL     1      36.146 -20.082 -20.826  0.00  0.00    +0.150 HD
BRANCH  20  23
ATOM     23  C   UNL     1      35.385 -19.018 -22.468  0.00  0.00    +0.121 C 
BRANCH  23  27
ATOM     24  F   UNL     1      34.510 -17.224 -24.473  0.00  0.00    -0.204 F 
ATOM     25  F   UNL     1      35.766 -17.824 -19.934  0.00  0.00    -0.204 F 
ATOM     26  F   UNL     1      34.487 -13.546 -21.498  0.00  0.00    -0.204 F 
ATOM     27  C   UNL     1      35.145 -17.560 -22.210  0.00  0.00    +0.053 C 
ATOM     28  C   UNL     1      34.714 -16.729 -23.244  0.00  0.00    +0.142 C 
ATOM     29  C   UNL     1      35.352 -17.034 -20.935  0.00  0.00    +0.142 C 
ATOM     30  C   UNL     1      34.492 -15.373 -23.004  0.00  0.00    +0.059 C 
ATOM     31  C   UNL     1      35.129 -15.679 -20.694  0.00  0.00    +0.059 C 
ATOM     32  C   UNL     1      34.700 -14.848 -21.728  0.00  0.00    +0.145 C 
ENDBRANCH  23  27
ENDBRANCH  20  23
ENDBRANCH  17  21
BRANCH  16  33
ATOM     33  O   UNL     1      36.878 -22.359 -17.049  0.00  0.00    -0.502 OA
ATOM     34  H   UNL     1      37.023 -22.192 -16.138  0.00  0.00    +0.292 HD
ENDBRANCH  16  33
TORSDOF 4
ENDMDL
MODEL 9
REMARK VINA RESULT:     -11.3      1.355      2.094
REMARK  Name = 90311989
REMARK  4 active torsions:
REMARK  status: ('A' for Active; 'I' for Inactive)
REMARK    1  A    between atoms: C_16  and  O_33
REMARK    2  A    between atoms: C_17  and  C_21
REMARK    3  A    between atoms: N_20  and  C_23
REMARK    4  A    between atoms: C_23  and  C_27
REMARK                            x       y       z     vdW  Elec       q    Type
REMARK                         _______ _______ _______ _____ _____    ______ ____
ROOT
ATOM      1  O   UNL     1      37.842 -23.563 -14.157  0.00  0.00    -0.339 OA
ATOM      2  O   UNL     1      33.491 -23.576 -16.024  0.00  0.00    -0.268 OA
ATOM      3  O   UNL     1      34.243 -20.934 -20.313  0.00  0.00    -0.283 OA
ATOM      4  N   UNL     1      35.634 -23.680 -15.163  0.00  0.00    -0.253 N 
ATOM      5  N   UNL     1      36.429 -21.698 -16.985  0.00  0.00    -0.275 N 
ATOM      6  C   UNL     1      35.287 -24.687 -14.149  0.00  0.00    +0.080 C 
ATOM      7  C   UNL     1      37.431 -24.624 -13.290  0.00  0.00    +0.119 C 
ATOM      8  C   UNL     1      36.004 -24.345 -12.852  0.00  0.00    +0.049 C 
ATOM      9  C   UNL     1      35.898 -26.043 -14.528  0.00  0.00    +0.022 C 
ATOM     10  C   UNL     1      37.347 -25.970 -14.021  0.00  0.00    +0.031 C 
ATOM     11  C   UNL     1      37.057 -23.377 -15.347  0.00  0.00    +0.215 C 
ATOM     12  C   UNL     1      37.220 -21.931 -15.781  0.00  0.00    +0.147 C 
ATOM     13  C   UNL     1      34.675 -23.243 -16.078  0.00  0.00    +0.267 C 
ATOM     14  C   UNL     1      35.178 -22.307 -17.155  0.00  0.00    +0.143 C 
ATOM     15  C   UNL     1      36.878 -20.810 -17.953  0.00  0.00    +0.074 C 
ATOM     16  C   UNL     1      34.405 -22.090 -18.242  0.00  0.00    +0.191 C 
ATOM     17  C   UNL     1      36.218 -20.501 -19.075  0.00  0.00    +0.110 C 
ATOM     18  C   UNL     1      34.901 -21.154 -19.302  0.00  0.00    +0.236 C 
ENDROOT
BRANCH  17  21
ATOM     19  O   UNL     1      38.039 -19.524 -20.191  0.00  0.00    -0.270 OA
ATOM     20  N   UNL     1      35.892 -18.718 -20.612  0.00  0.00    -0.297 N 
ATOM     21  C   UNL     1      36.821 -19.546 -20.004  0.00  0.00    +0.251 C 
ATOM     22  H   UNL     1      34.942 -18.834 -20.379  0.00  0.00    +0.150 HD
BRANCH  20  23
ATOM     23  C   UNL     1      36.243 -17.693 -21.568  0.00  0.00    +0.121 C 
BRANCH  23  27
ATOM     24  F   UNL     1      35.027 -19.951 -22.761  0.00  0.00    -0.204 F 
ATOM     25  F   UNL     1      35.394 -15.219 -22.643  0.00  0.00    -0.204 F 
ATOM     26  F   UNL     1      32.465 -17.297 -25.723  0.00  0.00    -0.204 F 
ATOM     27  C   UNL     1      35.235 -17.587 -22.675  0.00  0.00    +0.053 C 
ATOM     28  C   UNL     1      34.674 -18.742 -23.220  0.00  0.00    +0.142 C 
ATOM     29  C   UNL     1      34.860 -16.335 -23.160  0.00  0.00    +0.142 C 
ATOM     30  C   UNL     1      33.738 -18.644 -24.250  0.00  0.00    +0.059 C 
ATOM     31  C   UNL     1      33.924 -16.236 -24.189  0.00  0.00    +0.059 C 
ATOM     32  C   UNL     1      33.363 -17.391 -24.734  0.00  0.00    +0.145 C 
ENDBRANCH  23  27
ENDBRANCH  20  23
ENDBRANCH  17  21
BRANCH  16  33
ATOM     33  O   UNL     1      33.182 -22.686 -18.453  0.00  0.00    -0.502 OA
ATOM     34  H   UNL     1      32.397 -22.250 -18.188  0.00  0.00    +0.292 HD
ENDBRANCH  16  33
TORSDOF 4
ENDMDL
