MODEL 1
REMARK VINA RESULT:     -11.6      0.000      0.000
REMARK  Name = 20055414
REMARK  5 active torsions:
REMARK  status: ('A' for Active; 'I' for Inactive)
REMARK    1  A    between atoms: N_1  and  C_18
REMARK    2  A    between atoms: N_2  and  C_8
REMARK    3  A    between atoms: C_11  and  C_17
REMARK    4  A    between atoms: C_18  and  C_19
REMARK    5  A    between atoms: C_19  and  C_30
REMARK                            x       y       z     vdW  Elec       q    Type
REMARK                         _______ _______ _______ _____ _____    ______ ____
ROOT
ATOM      1  N   UNL     1      33.438 -12.562 -24.382  0.00  0.00    +0.390 N 
ATOM      2  N   UNL     1      34.209 -15.267 -23.879  0.00  0.00    -0.312 N 
ATOM      3  C   UNL     1      34.337 -12.884 -23.267  0.00  0.00    -0.055 C 
ATOM      4  C   UNL     1      33.676 -13.486 -25.498  0.00  0.00    -0.055 C 
ATOM      5  C   UNL     1      34.109 -14.313 -22.770  0.00  0.00    +0.068 C 
ATOM      6  C   UNL     1      33.423 -14.935 -25.075  0.00  0.00    +0.068 C 
ATOM      7  H   UNL     1      32.474 -12.668 -24.067  0.00  0.00    -0.080 HD
ENDROOT
BRANCH   2   8
ATOM      8  C   UNL     1      34.464 -16.616 -23.613  0.00  0.00    +0.048 C 
ATOM      9  C   UNL     1      35.267 -16.976 -22.530  0.00  0.00    +0.018 C 
ATOM     10  C   UNL     1      33.915 -17.604 -24.432  0.00  0.00    +0.015 C 
ATOM     11  C   UNL     1      35.520 -18.321 -22.267  0.00  0.00    +0.073 C 
ATOM     12  C   UNL     1      34.168 -18.950 -24.167  0.00  0.00    +0.001 C 
ATOM     13  C   UNL     1      34.971 -19.309 -23.085  0.00  0.00    +0.004 C 
BRANCH  11  17
ATOM     14  F   UNL     1      36.149 -19.973 -20.655  0.00  0.00    -0.166 F 
ATOM     15  F   UNL     1      37.717 -18.663 -21.384  0.00  0.00    -0.166 F 
ATOM     16  F   UNL     1      36.200 -17.891 -20.030  0.00  0.00    -0.166 F 
ATOM     17  C   UNL     1      36.379 -18.705 -21.110  0.00  0.00    +0.419 C 
ENDBRANCH  11  17
ENDBRANCH   2   8
BRANCH   1  18
ATOM     18  C   UNL     1      33.629 -11.178 -24.812  0.00  0.00    -0.069 C 
BRANCH  18  19
ATOM     19  C   UNL     1      34.088 -10.262 -23.656  0.00  0.00    +0.043 C 
BRANCH  19  30
ATOM     20  N   UNL     1      32.551  -8.404 -23.084  0.00  0.00    -0.302 N 
ATOM     21  N   UNL     1      31.242  -9.294 -21.591  0.00  0.00    -0.134 NA
ATOM     22  N   UNL     1      32.182 -10.238 -22.018  0.00  0.00    -0.134 NA
ATOM     23  C   UNL     1      31.991  -6.142 -23.338  0.00  0.00    +0.030 C 
ATOM     24  C   UNL     1      30.976  -6.822 -22.348  0.00  0.00    +0.061 C 
ATOM     25  C   UNL     1      32.726  -5.084 -22.504  0.00  0.00    +0.002 C 
ATOM     26  C   UNL     1      31.099  -6.046 -21.041  0.00  0.00    +0.008 C 
ATOM     27  C   UNL     1      32.920  -7.260 -23.881  0.00  0.00    +0.109 C 
ATOM     28  C   UNL     1      32.519  -5.494 -21.053  0.00  0.00    +0.001 C 
ATOM     29  C   UNL     1      31.500  -8.198 -22.256  0.00  0.00    +0.143 A 
ATOM     30  C   UNL     1      32.961  -9.667 -22.922  0.00  0.00    +0.141 A 
ENDBRANCH  19  30
ENDBRANCH  18  19
ENDBRANCH   1  18
TORSDOF 5
ENDMDL
MODEL 2
REMARK VINA RESULT:     -11.5      2.222      3.334
REMARK  Name = 20055414
REMARK  5 active torsions:
REMARK  status: ('A' for Active; 'I' for Inactive)
REMARK    1  A    between atoms: N_1  and  C_18
REMARK    2  A    between atoms: N_2  and  C_8
REMARK    3  A    between atoms: C_11  and  C_17
REMARK    4  A    between atoms: C_18  and  C_19
REMARK    5  A    between atoms: C_19  and  C_30
REMARK                            x       y       z     vdW  Elec       q    Type
REMARK                         _______ _______ _______ _____ _____    ______ ____
ROOT
ATOM      1  N   UNL     1      34.559 -14.752 -22.965  0.00  0.00    +0.390 N 
ATOM      2  N   UNL     1      34.996 -17.229 -21.610  0.00  0.00    -0.312 N 
ATOM      3  C   UNL     1      34.367 -16.027 -23.666  0.00  0.00    -0.055 C 
ATOM      4  C   UNL     1      34.192 -14.900 -21.551  0.00  0.00    -0.055 C 
ATOM      5  C   UNL     1      35.234 -17.129 -23.053  0.00  0.00    +0.068 C 
ATOM      6  C   UNL     1      35.054 -15.962 -20.868  0.00  0.00    +0.068 C 
ATOM      7  H   UNL     1      35.543 -14.489 -23.024  0.00  0.00    -0.080 HD
ENDROOT
BRANCH   2   8
ATOM      8  C   UNL     1      35.331 -18.405 -20.931  0.00  0.00    +0.048 C 
ATOM      9  C   UNL     1      34.329 -19.291 -20.532  0.00  0.00    +0.018 C 
ATOM     10  C   UNL     1      36.667 -18.693 -20.651  0.00  0.00    +0.015 C 
ATOM     11  C   UNL     1      34.664 -20.462 -19.855  0.00  0.00    +0.073 C 
ATOM     12  C   UNL     1      37.002 -19.865 -19.974  0.00  0.00    +0.001 C 
ATOM     13  C   UNL     1      36.000 -20.750 -19.576  0.00  0.00    +0.004 C 
BRANCH  11  17
ATOM     14  F   UNL     1      33.959 -22.723 -19.511  0.00  0.00    -0.166 F 
ATOM     15  F   UNL     1      33.192 -21.232 -18.134  0.00  0.00    -0.166 F 
ATOM     16  F   UNL     1      32.461 -21.295 -20.181  0.00  0.00    -0.166 F 
ATOM     17  C   UNL     1      33.594 -21.409 -19.428  0.00  0.00    +0.419 C 
ENDBRANCH  11  17
ENDBRANCH   2   8
BRANCH   1  18
ATOM     18  C   UNL     1      33.766 -13.696 -23.594  0.00  0.00    -0.069 C 
BRANCH  18  19
ATOM     19  C   UNL     1      34.223 -12.284 -23.164  0.00  0.00    +0.043 C 
BRANCH  19  30
ATOM     20  N   UNL     1      33.011 -10.197 -22.602  0.00  0.00    -0.302 N 
ATOM     21  N   UNL     1      31.407 -10.896 -21.309  0.00  0.00    -0.134 NA
ATOM     22  N   UNL     1      32.193 -11.979 -21.715  0.00  0.00    -0.134 NA
ATOM     23  C   UNL     1      32.917  -7.859 -22.738  0.00  0.00    +0.030 C 
ATOM     24  C   UNL     1      31.694  -8.381 -21.901  0.00  0.00    +0.061 C 
ATOM     25  C   UNL     1      33.745  -7.011 -21.762  0.00  0.00    +0.002 C 
ATOM     26  C   UNL     1      31.820  -7.718 -20.534  0.00  0.00    +0.008 C 
ATOM     27  C   UNL     1      33.671  -9.104 -23.273  0.00  0.00    +0.109 C 
ATOM     28  C   UNL     1      33.312  -7.453 -20.372  0.00  0.00    +0.001 C 
ATOM     29  C   UNL     1      31.936  -9.836 -21.863  0.00  0.00    +0.143 A 
ATOM     30  C   UNL     1      33.156 -11.522 -22.497  0.00  0.00    +0.141 A 
ENDBRANCH  19  30
ENDBRANCH  18  19
ENDBRANCH   1  18
TORSDOF 5
ENDMDL
MODEL 3
REMARK VINA RESULT:     -11.4      4.925     10.472
REMARK  Name = 20055414
REMARK  5 active torsions:
REMARK  status: ('A' for Active; 'I' for Inactive)
REMARK    1  A    between atoms: N_1  and  C_18
REMARK    2  A    between atoms: N_2  and  C_8
REMARK    3  A    between atoms: C_11  and  C_17
REMARK    4  A    between atoms: C_18  and  C_19
REMARK    5  A    between atoms: C_19  and  C_30
REMARK                            x       y       z     vdW  Elec       q    Type
REMARK                         _______ _______ _______ _____ _____    ______ ____
ROOT
ATOM      1  N   UNL     1      32.707 -12.349 -22.934  0.00  0.00    +0.390 N 
ATOM      2  N   UNL     1      32.918  -9.563 -22.336  0.00  0.00    -0.312 N 
ATOM      3  C   UNL     1      33.798 -11.546 -23.501  0.00  0.00    -0.055 C 
ATOM      4  C   UNL     1      32.362 -11.848 -21.598  0.00  0.00    -0.055 C 
ATOM      5  C   UNL     1      33.395 -10.076 -23.624  0.00  0.00    +0.068 C 
ATOM      6  C   UNL     1      31.909 -10.388 -21.658  0.00  0.00    +0.068 C 
ATOM      7  H   UNL     1      31.890 -12.265 -23.538  0.00  0.00    -0.080 HD
ENDROOT
BRANCH   2   8
ATOM      8  C   UNL     1      32.907  -8.184 -22.098  0.00  0.00    +0.048 C 
ATOM      9  C   UNL     1      33.108  -7.292 -23.152  0.00  0.00    +0.018 C 
ATOM     10  C   UNL     1      32.695  -7.701 -20.807  0.00  0.00    +0.015 C 
ATOM     11  C   UNL     1      33.097  -5.919 -22.914  0.00  0.00    +0.073 C 
ATOM     12  C   UNL     1      32.685  -6.326 -20.569  0.00  0.00    +0.001 C 
ATOM     13  C   UNL     1      32.885  -5.435 -21.622  0.00  0.00    +0.004 C 
BRANCH  11  17
ATOM     14  F   UNL     1      32.633  -5.298 -25.178  0.00  0.00    -0.166 F 
ATOM     15  F   UNL     1      32.923  -3.686 -23.756  0.00  0.00    -0.166 F 
ATOM     16  F   UNL     1      34.623  -4.875 -24.409  0.00  0.00    -0.166 F 
ATOM     17  C   UNL     1      33.312  -4.965 -24.040  0.00  0.00    +0.419 C 
ENDBRANCH  11  17
ENDBRANCH   2   8
BRANCH   1  18
ATOM     18  C   UNL     1      33.087 -13.759 -22.872  0.00  0.00    -0.069 C 
BRANCH  18  19
ATOM     19  C   UNL     1      34.585 -13.951 -22.552  0.00  0.00    +0.043 C 
BRANCH  19  30
ATOM     20  N   UNL     1      35.270 -16.224 -21.842  0.00  0.00    -0.302 N 
ATOM     21  N   UNL     1      35.000 -16.165 -19.685  0.00  0.00    -0.134 NA
ATOM     22  N   UNL     1      34.646 -14.931 -20.239  0.00  0.00    -0.134 NA
ATOM     23  C   UNL     1      35.931 -18.384 -22.469  0.00  0.00    +0.030 C 
ATOM     24  C   UNL     1      35.846 -18.300 -20.901  0.00  0.00    +0.061 C 
ATOM     25  C   UNL     1      34.867 -19.411 -22.879  0.00  0.00    +0.002 C 
ATOM     26  C   UNL     1      34.828 -19.358 -20.490  0.00  0.00    +0.008 C 
ATOM     27  C   UNL     1      35.664 -16.959 -23.019  0.00  0.00    +0.109 C 
ATOM     28  C   UNL     1      33.911 -19.499 -21.698  0.00  0.00    +0.001 C 
ATOM     29  C   UNL     1      35.368 -16.921 -20.686  0.00  0.00    +0.143 A 
ATOM     30  C   UNL     1      34.821 -14.999 -21.548  0.00  0.00    +0.141 A 
ENDBRANCH  19  30
ENDBRANCH  18  19
ENDBRANCH   1  18
TORSDOF 5
ENDMDL
MODEL 4
REMARK VINA RESULT:     -11.3      8.524     14.141
REMARK  Name = 20055414
REMARK  5 active torsions:
REMARK  status: ('A' for Active; 'I' for Inactive)
REMARK    1  A    between atoms: N_1  and  C_18
REMARK    2  A    between atoms: N_2  and  C_8
REMARK    3  A    between atoms: C_11  and  C_17
REMARK    4  A    between atoms: C_18  and  C_19
REMARK    5  A    between atoms: C_19  and  C_30
REMARK                            x       y       z     vdW  Elec       q    Type
REMARK                         _______ _______ _______ _____ _____    ______ ____
ROOT
ATOM      1  N   UNL     1      33.790 -22.861 -17.427  0.00  0.00    +0.390 N 
ATOM      2  N   UNL     1      34.859 -20.941 -19.252  0.00  0.00    -0.312 N 
ATOM      3  C   UNL     1      35.078 -22.211 -17.154  0.00  0.00    -0.055 C 
ATOM      4  C   UNL     1      32.900 -21.928 -18.129  0.00  0.00    -0.055 C 
ATOM      5  C   UNL     1      35.761 -21.774 -18.451  0.00  0.00    +0.068 C 
ATOM      6  C   UNL     1      33.510 -21.483 -19.460  0.00  0.00    +0.068 C 
ATOM      7  H   UNL     1      33.952 -23.673 -18.022  0.00  0.00    -0.080 HD
ENDROOT
BRANCH   2   8
ATOM      8  C   UNL     1      35.385 -20.093 -20.233  0.00  0.00    +0.048 C 
ATOM      9  C   UNL     1      34.641 -19.803 -21.378  0.00  0.00    +0.018 C 
ATOM     10  C   UNL     1      36.654 -19.537 -20.067  0.00  0.00    +0.015 C 
ATOM     11  C   UNL     1      35.166 -18.959 -22.354  0.00  0.00    +0.073 C 
ATOM     12  C   UNL     1      37.179 -18.692 -21.045  0.00  0.00    +0.001 C 
ATOM     13  C   UNL     1      36.435 -18.403 -22.188  0.00  0.00    +0.004 C 
BRANCH  11  17
ATOM     14  F   UNL     1      34.421 -17.335 -23.945  0.00  0.00    -0.166 F 
ATOM     15  F   UNL     1      34.779 -19.343 -24.683  0.00  0.00    -0.166 F 
ATOM     16  F   UNL     1      33.047 -18.940 -23.431  0.00  0.00    -0.166 F 
ATOM     17  C   UNL     1      34.372 -18.650 -23.578  0.00  0.00    +0.419 C 
ENDBRANCH  11  17
ENDBRANCH   2   8
BRANCH   1  18
ATOM     18  C   UNL     1      33.173 -23.322 -16.184  0.00  0.00    -0.069 C 
BRANCH  18  19
ATOM     19  C   UNL     1      34.068 -23.059 -14.952  0.00  0.00    +0.043 C 
BRANCH  19  30
ATOM     20  N   UNL     1      35.580 -24.350 -13.472  0.00  0.00    -0.302 N 
ATOM     21  N   UNL     1      36.142 -26.049 -14.709  0.00  0.00    -0.134 NA
ATOM     22  N   UNL     1      35.275 -25.213 -15.420  0.00  0.00    -0.134 NA
ATOM     23  C   UNL     1      36.741 -24.470 -11.439  0.00  0.00    +0.030 C 
ATOM     24  C   UNL     1      37.050 -25.753 -12.292  0.00  0.00    +0.061 C 
ATOM     25  C   UNL     1      38.086 -23.745 -11.293  0.00  0.00    +0.002 C 
ATOM     26  C   UNL     1      38.562 -25.758 -12.489  0.00  0.00    +0.008 C 
ATOM     27  C   UNL     1      35.675 -23.651 -12.214  0.00  0.00    +0.109 C 
ATOM     28  C   UNL     1      38.965 -24.291 -12.408  0.00  0.00    +0.001 C 
ATOM     29  C   UNL     1      36.304 -25.491 -13.538  0.00  0.00    +0.143 A 
ATOM     30  C   UNL     1      34.954 -24.193 -14.643  0.00  0.00    +0.141 A 
ENDBRANCH  19  30
ENDBRANCH  18  19
ENDBRANCH   1  18
TORSDOF 5
ENDMDL
MODEL 5
REMARK VINA RESULT:     -11.3      5.499      8.663
REMARK  Name = 20055414
REMARK  5 active torsions:
REMARK  status: ('A' for Active; 'I' for Inactive)
REMARK    1  A    between atoms: N_1  and  C_18
REMARK    2  A    between atoms: N_2  and  C_8
REMARK    3  A    between atoms: C_11  and  C_17
REMARK    4  A    between atoms: C_18  and  C_19
REMARK    5  A    between atoms: C_19  and  C_30
REMARK                            x       y       z     vdW  Elec       q    Type
REMARK                         _______ _______ _______ _____ _____    ______ ____
ROOT
ATOM      1  N   UNL     1      34.847 -20.487 -20.824  0.00  0.00    +0.390 N 
ATOM      2  N   UNL     1      33.992 -21.688 -18.377  0.00  0.00    -0.312 N 
ATOM      3  C   UNL     1      33.536 -20.156 -20.251  0.00  0.00    -0.055 C 
ATOM      4  C   UNL     1      35.811 -20.746 -19.748  0.00  0.00    -0.055 C 
ATOM      5  C   UNL     1      33.005 -21.305 -19.391  0.00  0.00    +0.068 C 
ATOM      6  C   UNL     1      35.356 -21.916 -18.873  0.00  0.00    +0.068 C 
ATOM      7  H   UNL     1      34.754 -21.329 -21.392  0.00  0.00    -0.080 HD
ENDROOT
BRANCH   2   8
ATOM      8  C   UNL     1      33.581 -22.389 -17.238  0.00  0.00    +0.048 C 
ATOM      9  C   UNL     1      32.222 -22.518 -16.950  0.00  0.00    +0.018 C 
ATOM     10  C   UNL     1      34.530 -22.959 -16.389  0.00  0.00    +0.015 C 
ATOM     11  C   UNL     1      31.813 -23.216 -15.815  0.00  0.00    +0.073 C 
ATOM     12  C   UNL     1      34.121 -23.657 -15.253  0.00  0.00    +0.001 C 
ATOM     13  C   UNL     1      32.763 -23.786 -14.966  0.00  0.00    +0.004 C 
BRANCH  11  17
ATOM     14  F   UNL     1      29.552 -22.643 -16.347  0.00  0.00    -0.166 F 
ATOM     15  F   UNL     1      29.906 -24.641 -15.580  0.00  0.00    -0.166 F 
ATOM     16  F   UNL     1      30.048 -22.927 -14.249  0.00  0.00    -0.166 F 
ATOM     17  C   UNL     1      30.361 -23.354 -15.507  0.00  0.00    +0.419 C 
ENDBRANCH  11  17
ENDBRANCH   2   8
BRANCH   1  18
ATOM     18  C   UNL     1      35.318 -19.404 -21.686  0.00  0.00    -0.069 C 
BRANCH  18  19
ATOM     19  C   UNL     1      35.295 -18.034 -20.973  0.00  0.00    +0.043 C 
BRANCH  19  30
ATOM     20  N   UNL     1      34.914 -15.649 -21.530  0.00  0.00    -0.302 N 
ATOM     21  N   UNL     1      35.041 -15.629 -23.702  0.00  0.00    -0.134 NA
ATOM     22  N   UNL     1      35.238 -16.931 -23.230  0.00  0.00    -0.134 NA
ATOM     23  C   UNL     1      34.361 -13.499 -20.778  0.00  0.00    +0.030 C 
ATOM     24  C   UNL     1      34.569 -13.468 -22.336  0.00  0.00    +0.061 C 
ATOM     25  C   UNL     1      32.888 -13.132 -20.557  0.00  0.00    +0.002 C 
ATOM     26  C   UNL     1      33.247 -12.976 -22.915  0.00  0.00    +0.008 C 
ATOM     27  C   UNL     1      34.724 -14.928 -20.296  0.00  0.00    +0.109 C 
ATOM     28  C   UNL     1      32.200 -13.392 -21.890  0.00  0.00    +0.001 C 
ATOM     29  C   UNL     1      34.845 -14.885 -22.645  0.00  0.00    +0.143 A 
ATOM     30  C   UNL     1      35.154 -16.909 -21.910  0.00  0.00    +0.141 A 
ENDBRANCH  19  30
ENDBRANCH  18  19
ENDBRANCH   1  18
TORSDOF 5
ENDMDL
MODEL 6
REMARK VINA RESULT:     -11.2      4.950      8.267
REMARK  Name = 20055414
REMARK  5 active torsions:
REMARK  status: ('A' for Active; 'I' for Inactive)
REMARK    1  A    between atoms: N_1  and  C_18
REMARK    2  A    between atoms: N_2  and  C_8
REMARK    3  A    between atoms: C_11  and  C_17
REMARK    4  A    between atoms: C_18  and  C_19
REMARK    5  A    between atoms: C_19  and  C_30
REMARK                            x       y       z     vdW  Elec       q    Type
REMARK                         _______ _______ _______ _____ _____    ______ ____
ROOT
ATOM      1  N   UNL     1      34.363 -20.299 -20.943  0.00  0.00    +0.390 N 
ATOM      2  N   UNL     1      34.571 -21.597 -18.406  0.00  0.00    -0.312 N 
ATOM      3  C   UNL     1      33.205 -20.361 -20.041  0.00  0.00    -0.055 C 
ATOM      4  C   UNL     1      35.601 -20.204 -20.160  0.00  0.00    -0.055 C 
ATOM      5  C   UNL     1      33.290 -21.578 -19.119  0.00  0.00    +0.068 C 
ATOM      6  C   UNL     1      35.766 -21.417 -19.243  0.00  0.00    +0.068 C 
ATOM      7  H   UNL     1      34.390 -21.153 -21.500  0.00  0.00    -0.080 HD
ENDROOT
BRANCH   2   8
ATOM      8  C   UNL     1      34.700 -22.340 -17.228  0.00  0.00    +0.048 C 
ATOM      9  C   UNL     1      35.947 -22.470 -16.617  0.00  0.00    +0.018 C 
ATOM     10  C   UNL     1      33.580 -22.950 -16.662  0.00  0.00    +0.015 C 
ATOM     11  C   UNL     1      36.074 -23.210 -15.442  0.00  0.00    +0.073 C 
ATOM     12  C   UNL     1      33.707 -23.691 -15.487  0.00  0.00    +0.001 C 
ATOM     13  C   UNL     1      34.954 -23.821 -14.877  0.00  0.00    +0.004 C 
BRANCH  11  17
ATOM     14  F   UNL     1      37.734 -24.641 -14.482  0.00  0.00    -0.166 F 
ATOM     15  F   UNL     1      38.443 -22.895 -15.557  0.00  0.00    -0.166 F 
ATOM     16  F   UNL     1      37.492 -22.661 -13.615  0.00  0.00    -0.166 F 
ATOM     17  C   UNL     1      37.408 -23.350 -14.790  0.00  0.00    +0.419 C 
ENDBRANCH  11  17
ENDBRANCH   2   8
BRANCH   1  18
ATOM     18  C   UNL     1      34.243 -19.163 -21.855  0.00  0.00    -0.069 C 
BRANCH  18  19
ATOM     19  C   UNL     1      35.384 -18.139 -21.670  0.00  0.00    +0.043 C 
BRANCH  19  30
ATOM     20  N   UNL     1      34.949 -15.706 -21.858  0.00  0.00    -0.302 N 
ATOM     21  N   UNL     1      34.893 -15.385 -24.009  0.00  0.00    -0.134 NA
ATOM     22  N   UNL     1      35.133 -16.736 -23.740  0.00  0.00    -0.134 NA
ATOM     23  C   UNL     1      34.453 -13.689 -20.773  0.00  0.00    +0.030 C 
ATOM     24  C   UNL     1      34.529 -13.441 -22.324  0.00  0.00    +0.061 C 
ATOM     25  C   UNL     1      33.001 -13.378 -20.383  0.00  0.00    +0.002 C 
ATOM     26  C   UNL     1      33.162 -12.894 -22.718  0.00  0.00    +0.008 C 
ATOM     27  C   UNL     1      34.860 -15.164 -20.525  0.00  0.00    +0.109 C 
ATOM     28  C   UNL     1      32.206 -13.462 -21.677  0.00  0.00    +0.001 C 
ATOM     29  C   UNL     1      34.784 -14.797 -22.847  0.00  0.00    +0.143 A 
ATOM     30  C   UNL     1      35.161 -16.898 -22.427  0.00  0.00    +0.141 A 
ENDBRANCH  19  30
ENDBRANCH  18  19
ENDBRANCH   1  18
TORSDOF 5
ENDMDL
MODEL 7
REMARK VINA RESULT:     -11.2      8.542     14.052
REMARK  Name = 20055414
REMARK  5 active torsions:
REMARK  status: ('A' for Active; 'I' for Inactive)
REMARK    1  A    between atoms: N_1  and  C_18
REMARK    2  A    between atoms: N_2  and  C_8
REMARK    3  A    between atoms: C_11  and  C_17
REMARK    4  A    between atoms: C_18  and  C_19
REMARK    5  A    between atoms: C_19  and  C_30
REMARK                            x       y       z     vdW  Elec       q    Type
REMARK                         _______ _______ _______ _____ _____    ______ ____
ROOT
ATOM      1  N   UNL     1      33.987 -22.963 -17.364  0.00  0.00    +0.390 N 
ATOM      2  N   UNL     1      34.951 -20.994 -19.196  0.00  0.00    -0.312 N 
ATOM      3  C   UNL     1      35.285 -22.314 -17.144  0.00  0.00    -0.055 C 
ATOM      4  C   UNL     1      33.058 -22.019 -17.996  0.00  0.00    -0.055 C 
ATOM      5  C   UNL     1      35.897 -21.841 -18.464  0.00  0.00    +0.068 C 
ATOM      6  C   UNL     1      33.594 -21.538 -19.345  0.00  0.00    +0.068 C 
ATOM      7  H   UNL     1      34.121 -23.760 -17.987  0.00  0.00    -0.080 HD
ENDROOT
BRANCH   2   8
ATOM      8  C   UNL     1      35.420 -20.120 -20.182  0.00  0.00    +0.048 C 
ATOM      9  C   UNL     1      34.634 -19.841 -21.301  0.00  0.00    +0.018 C 
ATOM     10  C   UNL     1      36.676 -19.527 -20.048  0.00  0.00    +0.015 C 
ATOM     11  C   UNL     1      35.103 -18.970 -22.283  0.00  0.00    +0.073 C 
ATOM     12  C   UNL     1      37.145 -18.655 -21.031  0.00  0.00    +0.001 C 
ATOM     13  C   UNL     1      36.359 -18.377 -22.149  0.00  0.00    +0.004 C 
BRANCH  11  17
ATOM     14  F   UNL     1      34.199 -17.343 -23.786  0.00  0.00    -0.166 F 
ATOM     15  F   UNL     1      34.702 -19.281 -24.621  0.00  0.00    -0.166 F 
ATOM     16  F   UNL     1      32.968 -19.076 -23.324  0.00  0.00    -0.166 F 
ATOM     17  C   UNL     1      34.263 -18.673 -23.479  0.00  0.00    +0.419 C 
ENDBRANCH  11  17
ENDBRANCH   2   8
BRANCH   1  18
ATOM     18  C   UNL     1      33.440 -23.457 -16.102  0.00  0.00    -0.069 C 
BRANCH  18  19
ATOM     19  C   UNL     1      33.860 -22.585 -14.898  0.00  0.00    +0.043 C 
BRANCH  19  30
ATOM     20  N   UNL     1      35.604 -23.685 -13.523  0.00  0.00    -0.302 N 
ATOM     21  N   UNL     1      34.456 -24.592 -11.913  0.00  0.00    -0.134 NA
ATOM     22  N   UNL     1      33.594 -23.923 -12.788  0.00  0.00    -0.134 NA
ATOM     23  C   UNL     1      37.860 -24.273 -13.276  0.00  0.00    +0.030 C 
ATOM     24  C   UNL     1      37.041 -24.826 -12.054  0.00  0.00    +0.061 C 
ATOM     25  C   UNL     1      38.400 -25.515 -13.999  0.00  0.00    +0.002 C 
ATOM     26  C   UNL     1      37.249 -26.337 -12.072  0.00  0.00    +0.008 C 
ATOM     27  C   UNL     1      36.883 -23.429 -14.137  0.00  0.00    +0.109 C 
ATOM     28  C   UNL     1      37.525 -26.669 -13.532  0.00  0.00    +0.001 C 
ATOM     29  C   UNL     1      35.661 -24.428 -12.393  0.00  0.00    +0.143 A 
ATOM     30  C   UNL     1      34.321 -23.385 -13.753  0.00  0.00    +0.141 A 
ENDBRANCH  19  30
ENDBRANCH  18  19
ENDBRANCH   1  18
TORSDOF 5
ENDMDL
MODEL 8
REMARK VINA RESULT:     -11.1      5.516      8.725
REMARK  Name = 20055414
REMARK  5 active torsions:
REMARK  status: ('A' for Active; 'I' for Inactive)
REMARK    1  A    between atoms: N_1  and  C_18
REMARK    2  A    between atoms: N_2  and  C_8
REMARK    3  A    between atoms: C_11  and  C_17
REMARK    4  A    between atoms: C_18  and  C_19
REMARK    5  A    between atoms: C_19  and  C_30
REMARK                            x       y       z     vdW  Elec       q    Type
REMARK                         _______ _______ _______ _____ _____    ______ ____
ROOT
ATOM      1  N   UNL     1      34.413 -20.283 -20.865  0.00  0.00    +0.390 N 
ATOM      2  N   UNL     1      35.315 -21.345 -18.371  0.00  0.00    -0.312 N 
ATOM      3  C   UNL     1      33.450 -20.628 -19.812  0.00  0.00    -0.055 C 
ATOM      4  C   UNL     1      35.662 -19.802 -20.261  0.00  0.00    -0.055 C 
ATOM      5  C   UNL     1      34.002 -21.726 -18.899  0.00  0.00    +0.068 C 
ATOM      6  C   UNL     1      36.288 -20.873 -19.366  0.00  0.00    +0.068 C 
ATOM      7  H   UNL     1      34.614 -21.119 -21.413  0.00  0.00    -0.080 HD
ENDROOT
BRANCH   2   8
ATOM      8  C   UNL     1      35.804 -21.963 -17.215  0.00  0.00    +0.048 C 
ATOM      9  C   UNL     1      34.946 -22.707 -16.404  0.00  0.00    +0.018 C 
ATOM     10  C   UNL     1      37.151 -21.835 -16.872  0.00  0.00    +0.015 C 
ATOM     11  C   UNL     1      35.435 -23.322 -15.253  0.00  0.00    +0.073 C 
ATOM     12  C   UNL     1      37.639 -22.451 -15.720  0.00  0.00    +0.001 C 
ATOM     13  C   UNL     1      36.782 -23.194 -14.910  0.00  0.00    +0.004 C 
BRANCH  11  17
ATOM     14  F   UNL     1      34.515 -23.716 -13.080  0.00  0.00    -0.166 F 
ATOM     15  F   UNL     1      33.210 -24.062 -14.778  0.00  0.00    -0.166 F 
ATOM     16  F   UNL     1      34.838 -25.443 -14.361  0.00  0.00    -0.166 F 
ATOM     17  C   UNL     1      34.518 -24.117 -14.386  0.00  0.00    +0.419 C 
ENDBRANCH  11  17
ENDBRANCH   2   8
BRANCH   1  18
ATOM     18  C   UNL     1      33.853 -19.272 -21.761  0.00  0.00    -0.069 C 
BRANCH  18  19
ATOM     19  C   UNL     1      34.714 -19.069 -23.028  0.00  0.00    +0.043 C 
BRANCH  19  30
ATOM     20  N   UNL     1      34.586 -16.639 -23.500  0.00  0.00    -0.302 N 
ATOM     21  N   UNL     1      33.422 -16.559 -25.336  0.00  0.00    -0.134 NA
ATOM     22  N   UNL     1      33.582 -17.890 -24.936  0.00  0.00    -0.134 NA
ATOM     23  C   UNL     1      35.037 -14.453 -22.787  0.00  0.00    +0.030 C 
ATOM     24  C   UNL     1      34.298 -14.406 -24.174  0.00  0.00    +0.061 C 
ATOM     25  C   UNL     1      34.085 -13.769 -21.796  0.00  0.00    +0.002 C 
ATOM     26  C   UNL     1      33.025 -13.603 -23.931  0.00  0.00    +0.008 C 
ATOM     27  C   UNL     1      35.306 -15.945 -22.461  0.00  0.00    +0.109 C 
ATOM     28  C   UNL     1      32.714 -13.811 -22.455  0.00  0.00    +0.001 C 
ATOM     29  C   UNL     1      34.040 -15.834 -24.441  0.00  0.00    +0.143 A 
ATOM     30  C   UNL     1      34.290 -17.904 -23.820  0.00  0.00    +0.141 A 
ENDBRANCH  19  30
ENDBRANCH  18  19
ENDBRANCH   1  18
TORSDOF 5
ENDMDL
MODEL 9
REMARK VINA RESULT:     -11.1      3.016      4.937
REMARK  Name = 20055414
REMARK  5 active torsions:
REMARK  status: ('A' for Active; 'I' for Inactive)
REMARK    1  A    between atoms: N_1  and  C_18
REMARK    2  A    between atoms: N_2  and  C_8
REMARK    3  A    between atoms: C_11  and  C_17
REMARK    4  A    between atoms: C_18  and  C_19
REMARK    5  A    between atoms: C_19  and  C_30
REMARK                            x       y       z     vdW  Elec       q    Type
REMARK                         _______ _______ _______ _____ _____    ______ ____
ROOT
ATOM      1  N   UNL     1      34.315 -16.523 -23.663  0.00  0.00    +0.390 N 
ATOM      2  N   UNL     1      35.232 -18.430 -21.743  0.00  0.00    -0.312 N 
ATOM      3  C   UNL     1      35.402 -16.183 -22.737  0.00  0.00    -0.055 C 
ATOM      4  C   UNL     1      34.379 -17.950 -24.004  0.00  0.00    -0.055 C 
ATOM      5  C   UNL     1      35.302 -16.996 -21.445  0.00  0.00    +0.068 C 
ATOM      6  C   UNL     1      34.242 -18.821 -22.755  0.00  0.00    +0.068 C 
ATOM      7  H   UNL     1      33.423 -16.334 -23.205  0.00  0.00    -0.080 HD
ENDROOT
BRANCH   2   8
ATOM      8  C   UNL     1      35.564 -19.361 -20.753  0.00  0.00    +0.048 C 
ATOM      9  C   UNL     1      34.579 -20.189 -20.215  0.00  0.00    +0.018 C 
ATOM     10  C   UNL     1      36.881 -19.462 -20.304  0.00  0.00    +0.015 C 
ATOM     11  C   UNL     1      34.911 -21.117 -19.228  0.00  0.00    +0.073 C 
ATOM     12  C   UNL     1      37.213 -20.391 -19.317  0.00  0.00    +0.001 C 
ATOM     13  C   UNL     1      36.228 -21.218 -18.780  0.00  0.00    +0.004 C 
BRANCH  11  17
ATOM     14  F   UNL     1      32.612 -21.442 -18.652  0.00  0.00    -0.166 F 
ATOM     15  F   UNL     1      33.715 -23.187 -19.318  0.00  0.00    -0.166 F 
ATOM     16  F   UNL     1      34.108 -22.339 -17.354  0.00  0.00    -0.166 F 
ATOM     17  C   UNL     1      33.858 -22.002 -18.652  0.00  0.00    +0.419 C 
ENDBRANCH  11  17
ENDBRANCH   2   8
BRANCH   1  18
ATOM     18  C   UNL     1      34.392 -15.702 -24.869  0.00  0.00    -0.069 C 
BRANCH  18  19
ATOM     19  C   UNL     1      33.111 -14.868 -25.095  0.00  0.00    +0.043 C 
BRANCH  19  30
ATOM     20  N   UNL     1      33.232 -13.027 -23.440  0.00  0.00    -0.302 N 
ATOM     21  N   UNL     1      33.584 -11.276 -24.683  0.00  0.00    -0.134 NA
ATOM     22  N   UNL     1      33.489 -12.415 -25.489  0.00  0.00    -0.134 NA
ATOM     23  C   UNL     1      33.007 -12.345 -21.209  0.00  0.00    +0.030 C 
ATOM     24  C   UNL     1      33.376 -11.103 -22.098  0.00  0.00    +0.061 C 
ATOM     25  C   UNL     1      31.610 -12.043 -20.649  0.00  0.00    +0.002 C 
ATOM     26  C   UNL     1      32.234 -10.111 -21.910  0.00  0.00    +0.008 C 
ATOM     27  C   UNL     1      33.051 -13.595 -22.127  0.00  0.00    +0.109 C 
ATOM     28  C   UNL     1      31.028 -10.974 -21.563  0.00  0.00    +0.001 C 
ATOM     29  C   UNL     1      33.420 -11.686 -23.453  0.00  0.00    +0.143 A 
ATOM     30  C   UNL     1      33.276 -13.459 -24.705  0.00  0.00    +0.141 A 
ENDBRANCH  19  30
ENDBRANCH  18  19
ENDBRANCH   1  18
TORSDOF 5
ENDMDL
