MODEL 1
REMARK VINA RESULT:     -12.1      0.000      0.000
REMARK  Name = 44814409
REMARK  5 active torsions:
REMARK  status: ('A' for Active; 'I' for Inactive)
REMARK    1  A    between atoms: N_2  and  C_22
REMARK    2  A    between atoms: C_3  and  C_7
REMARK    3  A    between atoms: C_9  and  C_14
REMARK    4  A    between atoms: C_21  and  C_26
REMARK    5  A    between atoms: C_29  and  N_33
REMARK                            x       y       z     vdW  Elec       q    Type
REMARK                         _______ _______ _______ _____ _____    ______ ____
ROOT
ATOM      1  O   UNL     1      32.648 -21.970 -19.205  0.00  0.00    -0.267 OA
ATOM      2  N   UNL     1      33.800 -22.197 -17.167  0.00  0.00    -0.278 N 
ATOM      3  C   UNL     1      33.642 -21.810 -18.505  0.00  0.00    +0.275 C 
ATOM      4  H   UNL     1      34.670 -21.987 -16.757  0.00  0.00    +0.155 HD
ENDROOT
BRANCH   3   7
ATOM      5  F   UNL     1      37.894 -19.107 -20.842  0.00  0.00    -0.202 F 
ATOM      6  N   UNL     1      34.513 -20.156 -20.017  0.00  0.00    -0.399 NA
ATOM      7  C   UNL     1      34.808 -21.111 -19.108  0.00  0.00    +0.167 C 
ATOM      8  C   UNL     1      36.097 -21.452 -18.730  0.00  0.00    +0.092 C 
ATOM      9  C   UNL     1      35.564 -19.511 -20.572  0.00  0.00    +0.162 C 
ATOM     10  C   UNL     1      37.151 -20.766 -19.323  0.00  0.00    +0.014 C 
ATOM     11  C   UNL     1      36.888 -19.775 -20.263  0.00  0.00    +0.166 C 
BRANCH   9  14
ATOM     12  F   UNL     1      34.883 -20.149 -23.216  0.00  0.00    -0.204 F 
ATOM     13  F   UNL     1      35.519 -16.784 -19.915  0.00  0.00    -0.204 F 
ATOM     14  C   UNL     1      35.211 -18.496 -21.538  0.00  0.00    +0.087 C 
ATOM     15  C   UNL     1      34.880 -18.861 -22.842  0.00  0.00    +0.145 C 
ATOM     16  C   UNL     1      35.202 -17.152 -21.165  0.00  0.00    +0.145 C 
ATOM     17  C   UNL     1      34.538 -17.881 -23.775  0.00  0.00    +0.030 C 
ATOM     18  C   UNL     1      34.861 -16.172 -22.098  0.00  0.00    +0.030 C 
ATOM     19  C   UNL     1      34.530 -16.537 -23.403  0.00  0.00    +0.005 C 
ENDBRANCH   9  14
ENDBRANCH   3   7
BRANCH   2  22
ATOM     20  N   UNL     1      30.559 -23.358 -15.882  0.00  0.00    -0.241 NA
ATOM     21  C   UNL     1      33.269 -23.574 -15.232  0.00  0.00    -0.006 C 
ATOM     22  C   UNL     1      32.875 -22.840 -16.344  0.00  0.00    +0.066 C 
ATOM     23  C   UNL     1      32.310 -24.200 -14.443  0.00  0.00    +0.018 C 
ATOM     24  C   UNL     1      31.521 -22.764 -16.625  0.00  0.00    +0.113 C 
ATOM     25  C   UNL     1      30.981 -24.063 -14.808  0.00  0.00    +0.099 C 
BRANCH  21  26
ATOM     26  C   UNL     1      34.712 -23.707 -14.862  0.00  0.00    +0.022 C 
ATOM     27  C   UNL     1      36.617 -25.359 -14.542  0.00  0.00    -0.002 C 
ATOM     28  C   UNL     1      35.154 -25.177 -14.975  0.00  0.00    +0.004 C 
ATOM     29  C   UNL     1      36.407 -23.349 -13.010  0.00  0.00    -0.065 C 
ATOM     30  C   UNL     1      34.944 -23.169 -13.438  0.00  0.00    -0.017 C 
ATOM     31  C   UNL     1      36.840 -24.815 -13.124  0.00  0.00    -0.022 C 
ATOM     32  C   UNL     1      37.021 -26.831 -14.625  0.00  0.00    -0.000 C 
BRANCH  29  33
ATOM     33  N   UNL     1      36.581 -22.886 -11.635  0.00  0.00    +0.382 N 
ATOM     34  H   UNL     1      37.051 -21.981 -11.637  0.00  0.00    -0.089 HD
ATOM     35  H   UNL     1      37.145 -23.561 -11.117  0.00  0.00    -0.089 HD
ATOM     36  H   UNL     1      35.668 -22.793 -11.189  0.00  0.00    -0.089 HD
ENDBRANCH  29  33
ENDBRANCH  21  26
ENDBRANCH   2  22
TORSDOF 5
ENDMDL
MODEL 2
REMARK VINA RESULT:     -11.0      4.664     11.314
REMARK  Name = 44814409
REMARK  5 active torsions:
REMARK  status: ('A' for Active; 'I' for Inactive)
REMARK    1  A    between atoms: N_2  and  C_22
REMARK    2  A    between atoms: C_3  and  C_7
REMARK    3  A    between atoms: C_9  and  C_14
REMARK    4  A    between atoms: C_21  and  C_26
REMARK    5  A    between atoms: C_29  and  N_33
REMARK                            x       y       z     vdW  Elec       q    Type
REMARK                         _______ _______ _______ _____ _____    ______ ____
ROOT
ATOM      1  O   UNL     1      35.003 -14.553 -20.229  0.00  0.00    -0.267 OA
ATOM      2  N   UNL     1      33.351 -14.122 -21.847  0.00  0.00    -0.278 N 
ATOM      3  C   UNL     1      34.359 -14.871 -21.223  0.00  0.00    +0.275 C 
ATOM      4  H   UNL     1      32.936 -14.533 -22.640  0.00  0.00    +0.155 HD
ENDROOT
BRANCH   3   7
ATOM      5  F   UNL     1      35.401 -19.889 -23.362  0.00  0.00    -0.202 F 
ATOM      6  N   UNL     1      34.764 -17.228 -20.970  0.00  0.00    -0.399 NA
ATOM      7  C   UNL     1      34.638 -16.197 -21.835  0.00  0.00    +0.167 C 
ATOM      8  C   UNL     1      34.755 -16.319 -23.211  0.00  0.00    +0.092 C 
ATOM      9  C   UNL     1      35.016 -18.439 -21.513  0.00  0.00    +0.162 C 
ATOM     10  C   UNL     1      35.015 -17.582 -23.731  0.00  0.00    +0.014 C 
ATOM     11  C   UNL     1      35.150 -18.668 -22.873  0.00  0.00    +0.166 C 
BRANCH   9  14
ATOM     12  F   UNL     1      37.502 -19.223 -20.477  0.00  0.00    -0.204 F 
ATOM     13  F   UNL     1      32.791 -19.873 -20.587  0.00  0.00    -0.204 F 
ATOM     14  C   UNL     1      35.143 -19.517 -20.559  0.00  0.00    +0.087 C 
ATOM     15  C   UNL     1      36.400 -19.872 -20.071  0.00  0.00    +0.145 C 
ATOM     16  C   UNL     1      34.007 -20.202 -20.126  0.00  0.00    +0.145 C 
ATOM     17  C   UNL     1      36.522 -20.912 -19.149  0.00  0.00    +0.030 C 
ATOM     18  C   UNL     1      34.129 -21.242 -19.205  0.00  0.00    +0.030 C 
ATOM     19  C   UNL     1      35.387 -21.597 -18.718  0.00  0.00    +0.005 C 
ENDBRANCH   9  14
ENDBRANCH   3   7
BRANCH   2  22
ATOM     20  N   UNL     1      31.516 -11.559 -19.959  0.00  0.00    -0.241 NA
ATOM     21  C   UNL     1      33.189 -11.718 -22.193  0.00  0.00    -0.006 C 
ATOM     22  C   UNL     1      32.863 -12.867 -21.482  0.00  0.00    +0.066 C 
ATOM     23  C   UNL     1      32.680 -10.489 -21.789  0.00  0.00    +0.018 C 
ATOM     24  C   UNL     1      32.032 -12.735 -20.382  0.00  0.00    +0.113 C 
ATOM     25  C   UNL     1      31.856 -10.464 -20.675  0.00  0.00    +0.099 C 
BRANCH  21  26
ATOM     26  C   UNL     1      34.082 -11.775 -23.391  0.00  0.00    +0.022 C 
ATOM     27  C   UNL     1      35.373 -10.370 -25.070  0.00  0.00    -0.002 C 
ATOM     28  C   UNL     1      34.504 -10.353 -23.805  0.00  0.00    +0.004 C 
ATOM     29  C   UNL     1      34.242 -12.516 -25.810  0.00  0.00    -0.065 C 
ATOM     30  C   UNL     1      33.369 -12.497 -24.548  0.00  0.00    -0.017 C 
ATOM     31  C   UNL     1      34.656 -11.098 -26.217  0.00  0.00    -0.022 C 
ATOM     32  C   UNL     1      35.746  -8.947 -25.485  0.00  0.00    -0.000 C 
BRANCH  29  33
ATOM     33  N   UNL     1      33.515 -13.154 -26.905  0.00  0.00    +0.382 N 
ATOM     34  H   UNL     1      32.914 -13.890 -26.533  0.00  0.00    -0.089 HD
ATOM     35  H   UNL     1      34.180 -13.560 -27.564  0.00  0.00    -0.089 HD
ATOM     36  H   UNL     1      32.943 -12.459 -27.384  0.00  0.00    -0.089 HD
ENDBRANCH  29  33
ENDBRANCH  21  26
ENDBRANCH   2  22
TORSDOF 5
ENDMDL
MODEL 3
REMARK VINA RESULT:     -10.4      4.800     10.888
REMARK  Name = 44814409
REMARK  5 active torsions:
REMARK  status: ('A' for Active; 'I' for Inactive)
REMARK    1  A    between atoms: N_2  and  C_22
REMARK    2  A    between atoms: C_3  and  C_7
REMARK    3  A    between atoms: C_9  and  C_14
REMARK    4  A    between atoms: C_21  and  C_26
REMARK    5  A    between atoms: C_29  and  N_33
REMARK                            x       y       z     vdW  Elec       q    Type
REMARK                         _______ _______ _______ _____ _____    ______ ____
ROOT
ATOM      1  O   UNL     1      35.058 -14.276 -19.954  0.00  0.00    -0.267 OA
ATOM      2  N   UNL     1      33.294 -13.848 -21.449  0.00  0.00    -0.278 N 
ATOM      3  C   UNL     1      34.378 -14.571 -20.931  0.00  0.00    +0.275 C 
ATOM      4  H   UNL     1      32.859 -14.234 -22.244  0.00  0.00    +0.155 HD
ENDROOT
BRANCH   3   7
ATOM      5  F   UNL     1      35.568 -19.376 -23.448  0.00  0.00    -0.202 F 
ATOM      6  N   UNL     1      34.791 -16.939 -20.866  0.00  0.00    -0.399 NA
ATOM      7  C   UNL     1      34.698 -15.836 -21.643  0.00  0.00    +0.167 C 
ATOM      8  C   UNL     1      34.883 -15.836 -23.016  0.00  0.00    +0.092 C 
ATOM      9  C   UNL     1      35.080 -18.097 -21.501  0.00  0.00    +0.162 C 
ATOM     10  C   UNL     1      35.180 -17.047 -23.632  0.00  0.00    +0.014 C 
ATOM     11  C   UNL     1      35.282 -18.204 -22.867  0.00  0.00    +0.166 C 
BRANCH   9  14
ATOM     12  F   UNL     1      37.530 -19.003 -20.479  0.00  0.00    -0.204 F 
ATOM     13  F   UNL     1      32.815 -19.571 -20.751  0.00  0.00    -0.204 F 
ATOM     14  C   UNL     1      35.170 -19.253 -20.640  0.00  0.00    +0.087 C 
ATOM     15  C   UNL     1      36.410 -19.668 -20.156  0.00  0.00    +0.145 C 
ATOM     16  C   UNL     1      34.016 -19.955 -20.293  0.00  0.00    +0.145 C 
ATOM     17  C   UNL     1      36.497 -20.784 -19.324  0.00  0.00    +0.030 C 
ATOM     18  C   UNL     1      34.101 -21.072 -19.462  0.00  0.00    +0.030 C 
ATOM     19  C   UNL     1      35.343 -21.487 -18.978  0.00  0.00    +0.005 C 
ENDBRANCH   9  14
ENDBRANCH   3   7
BRANCH   2  22
ATOM     20  N   UNL     1      31.979 -11.362 -19.085  0.00  0.00    -0.241 NA
ATOM     21  C   UNL     1      32.463 -11.592 -21.829  0.00  0.00    -0.006 C 
ATOM     22  C   UNL     1      32.755 -12.651 -20.977  0.00  0.00    +0.066 C 
ATOM     23  C   UNL     1      31.929 -10.418 -21.311  0.00  0.00    +0.018 C 
ATOM     24  C   UNL     1      32.498 -12.487 -19.626  0.00  0.00    +0.113 C 
ATOM     25  C   UNL     1      31.708 -10.354 -19.944  0.00  0.00    +0.099 C 
BRANCH  21  26
ATOM     26  C   UNL     1      32.713 -11.689 -23.300  0.00  0.00    +0.022 C 
ATOM     27  C   UNL     1      33.179 -13.297 -25.213  0.00  0.00    -0.002 C 
ATOM     28  C   UNL     1      32.860 -13.164 -23.716  0.00  0.00    +0.004 C 
ATOM     29  C   UNL     1      34.283 -11.014 -25.173  0.00  0.00    -0.065 C 
ATOM     30  C   UNL     1      33.969 -10.882 -23.677  0.00  0.00    -0.017 C 
ATOM     31  C   UNL     1      34.429 -12.485 -25.580  0.00  0.00    -0.022 C 
ATOM     32  C   UNL     1      33.358 -14.766 -25.594  0.00  0.00    -0.000 C 
BRANCH  29  33
ATOM     33  N   UNL     1      35.512 -10.288 -25.486  0.00  0.00    +0.382 N 
ATOM     34  H   UNL     1      35.363  -9.289 -25.347  0.00  0.00    -0.089 HD
ATOM     35  H   UNL     1      35.770 -10.461 -26.459  0.00  0.00    -0.089 HD
ATOM     36  H   UNL     1      36.262 -10.608 -24.874  0.00  0.00    -0.089 HD
ENDBRANCH  29  33
ENDBRANCH  21  26
ENDBRANCH   2  22
TORSDOF 5
ENDMDL
MODEL 4
REMARK VINA RESULT:      -9.4      1.808      3.871
REMARK  Name = 44814409
REMARK  5 active torsions:
REMARK  status: ('A' for Active; 'I' for Inactive)
REMARK    1  A    between atoms: N_2  and  C_22
REMARK    2  A    between atoms: C_3  and  C_7
REMARK    3  A    between atoms: C_9  and  C_14
REMARK    4  A    between atoms: C_21  and  C_26
REMARK    5  A    between atoms: C_29  and  N_33
REMARK                            x       y       z     vdW  Elec       q    Type
REMARK                         _______ _______ _______ _____ _____    ______ ____
ROOT
ATOM      1  O   UNL     1      36.911 -21.668 -18.046  0.00  0.00    -0.267 OA
ATOM      2  N   UNL     1      35.204 -22.367 -16.588  0.00  0.00    -0.278 N 
ATOM      3  C   UNL     1      35.727 -21.774 -17.745  0.00  0.00    +0.275 C 
ATOM      4  H   UNL     1      34.222 -22.365 -16.508  0.00  0.00    +0.155 HD
ENDROOT
BRANCH   3   7
ATOM      5  F   UNL     1      32.073 -19.720 -21.388  0.00  0.00    -0.202 F 
ATOM      6  N   UNL     1      35.157 -20.295 -19.554  0.00  0.00    -0.399 NA
ATOM      7  C   UNL     1      34.718 -21.250 -18.703  0.00  0.00    +0.167 C 
ATOM      8  C   UNL     1      33.421 -21.738 -18.688  0.00  0.00    +0.092 C 
ATOM      9  C   UNL     1      34.251 -19.811 -20.432  0.00  0.00    +0.162 C 
ATOM     10  C   UNL     1      32.518 -21.214 -19.606  0.00  0.00    +0.014 C 
ATOM     11  C   UNL     1      32.933 -20.232 -20.499  0.00  0.00    +0.166 C 
BRANCH   9  14
ATOM     12  F   UNL     1      34.863 -20.360 -23.113  0.00  0.00    -0.204 F 
ATOM     13  F   UNL     1      34.678 -17.171 -19.589  0.00  0.00    -0.204 F 
ATOM     14  C   UNL     1      34.756 -18.794 -21.326  0.00  0.00    +0.087 C 
ATOM     15  C   UNL     1      35.047 -19.113 -22.652  0.00  0.00    +0.145 C 
ATOM     16  C   UNL     1      34.952 -17.493 -20.862  0.00  0.00    +0.145 C 
ATOM     17  C   UNL     1      35.533 -18.131 -23.514  0.00  0.00    +0.030 C 
ATOM     18  C   UNL     1      35.440 -16.511 -21.724  0.00  0.00    +0.030 C 
ATOM     19  C   UNL     1      35.731 -16.831 -23.050  0.00  0.00    +0.005 C 
ENDBRANCH   9  14
ENDBRANCH   3   7
BRANCH   2  22
ATOM     20  N   UNL     1      37.976 -23.155 -14.308  0.00  0.00    -0.241 NA
ATOM     21  C   UNL     1      35.306 -23.889 -14.691  0.00  0.00    -0.006 C 
ATOM     22  C   UNL     1      35.902 -22.960 -15.536  0.00  0.00    +0.066 C 
ATOM     23  C   UNL     1      36.043 -24.452 -13.655  0.00  0.00    +0.018 C 
ATOM     24  C   UNL     1      37.227 -22.629 -15.304  0.00  0.00    +0.113 C 
ATOM     25  C   UNL     1      37.362 -24.054 -13.507  0.00  0.00    +0.099 C 
BRANCH  21  26
ATOM     26  C   UNL     1      33.879 -24.299 -14.872  0.00  0.00    +0.022 C 
ATOM     27  C   UNL     1      31.606 -23.538 -15.718  0.00  0.00    -0.002 C 
ATOM     28  C   UNL     1      33.091 -23.175 -15.571  0.00  0.00    +0.004 C 
ATOM     29  C   UNL     1      31.770 -25.014 -13.662  0.00  0.00    -0.065 C 
ATOM     30  C   UNL     1      33.252 -24.648 -13.511  0.00  0.00    -0.017 C 
ATOM     31  C   UNL     1      30.991 -23.890 -14.356  0.00  0.00    -0.022 C 
ATOM     32  C   UNL     1      30.837 -22.393 -16.377  0.00  0.00    -0.000 C 
BRANCH  29  33
ATOM     33  N   UNL     1      31.189 -25.280 -12.347  0.00  0.00    +0.382 N 
ATOM     34  H   UNL     1      31.185 -24.422 -11.796  0.00  0.00    -0.089 HD
ATOM     35  H   UNL     1      31.745 -25.989 -11.867  0.00  0.00    -0.089 HD
ATOM     36  H   UNL     1      30.233 -25.617 -12.459  0.00  0.00    -0.089 HD
ENDBRANCH  29  33
ENDBRANCH  21  26
ENDBRANCH   2  22
TORSDOF 5
ENDMDL
MODEL 5
REMARK VINA RESULT:      -9.1      4.262      8.265
REMARK  Name = 44814409
REMARK  5 active torsions:
REMARK  status: ('A' for Active; 'I' for Inactive)
REMARK    1  A    between atoms: N_2  and  C_22
REMARK    2  A    between atoms: C_3  and  C_7
REMARK    3  A    between atoms: C_9  and  C_14
REMARK    4  A    between atoms: C_21  and  C_26
REMARK    5  A    between atoms: C_29  and  N_33
REMARK                            x       y       z     vdW  Elec       q    Type
REMARK                         _______ _______ _______ _____ _____    ______ ____
ROOT
ATOM      1  O   UNL     1      37.484 -20.878 -16.402  0.00  0.00    -0.267 OA
ATOM      2  N   UNL     1      36.010 -22.581 -17.081  0.00  0.00    -0.278 N 
ATOM      3  C   UNL     1      37.070 -22.031 -16.347  0.00  0.00    +0.275 C 
ATOM      4  H   UNL     1      35.812 -23.530 -16.908  0.00  0.00    +0.155 HD
ENDROOT
BRANCH   3   7
ATOM      5  F   UNL     1      39.413 -25.459 -12.658  0.00  0.00    -0.202 F 
ATOM      6  N   UNL     1      37.133 -23.074 -14.180  0.00  0.00    -0.399 NA
ATOM      7  C   UNL     1      37.729 -22.958 -15.388  0.00  0.00    +0.167 C 
ATOM      8  C   UNL     1      38.880 -23.638 -15.754  0.00  0.00    +0.092 C 
ATOM      9  C   UNL     1      37.720 -23.914 -13.299  0.00  0.00    +0.162 C 
ATOM     10  C   UNL     1      39.454 -24.492 -14.819  0.00  0.00    +0.014 C 
ATOM     11  C   UNL     1      38.870 -24.639 -13.566  0.00  0.00    +0.166 C 
BRANCH   9  14
ATOM     12  F   UNL     1      36.166 -26.142 -12.601  0.00  0.00    -0.204 F 
ATOM     13  F   UNL     1      37.905 -21.890 -11.367  0.00  0.00    -0.204 F 
ATOM     14  C   UNL     1      37.055 -24.013 -12.021  0.00  0.00    +0.087 C 
ATOM     15  C   UNL     1      36.292 -25.141 -11.717  0.00  0.00    +0.145 C 
ATOM     16  C   UNL     1      37.176 -22.981 -11.090  0.00  0.00    +0.145 C 
ATOM     17  C   UNL     1      35.651 -25.237 -10.482  0.00  0.00    +0.030 C 
ATOM     18  C   UNL     1      36.534 -23.077  -9.855  0.00  0.00    +0.030 C 
ATOM     19  C   UNL     1      35.771 -24.204  -9.552  0.00  0.00    +0.005 C 
ENDBRANCH   9  14
ENDBRANCH   3   7
BRANCH   2  22
ATOM     20  N   UNL     1      35.056 -20.506 -19.959  0.00  0.00    -0.241 NA
ATOM     21  C   UNL     1      33.818 -22.093 -18.019  0.00  0.00    -0.006 C 
ATOM     22  C   UNL     1      35.201 -21.949 -18.024  0.00  0.00    +0.066 C 
ATOM     23  C   UNL     1      33.053 -21.444 -18.982  0.00  0.00    +0.018 C 
ATOM     24  C   UNL     1      35.766 -21.152 -19.007  0.00  0.00    +0.113 C 
ATOM     25  C   UNL     1      33.715 -20.670 -19.922  0.00  0.00    +0.099 C 
BRANCH  21  26
ATOM     26  C   UNL     1      33.130 -22.936 -16.993  0.00  0.00    +0.022 C 
ATOM     27  C   UNL     1      30.928 -23.332 -15.788  0.00  0.00    -0.002 C 
ATOM     28  C   UNL     1      31.650 -22.526 -16.877  0.00  0.00    +0.004 C 
ATOM     29  C   UNL     1      33.124 -23.615 -14.551  0.00  0.00    -0.065 C 
ATOM     30  C   UNL     1      33.846 -22.806 -15.637  0.00  0.00    -0.017 C 
ATOM     31  C   UNL     1      31.652 -23.202 -14.440  0.00  0.00    -0.022 C 
ATOM     32  C   UNL     1      29.473 -22.882 -15.664  0.00  0.00    -0.000 C 
BRANCH  29  33
ATOM     33  N   UNL     1      33.791 -23.424 -13.265  0.00  0.00    +0.382 N 
ATOM     34  H   UNL     1      34.395 -24.223 -13.072  0.00  0.00    -0.089 HD
ATOM     35  H   UNL     1      33.091 -23.342 -12.527  0.00  0.00    -0.089 HD
ATOM     36  H   UNL     1      34.353 -22.573 -13.296  0.00  0.00    -0.089 HD
ENDBRANCH  29  33
ENDBRANCH  21  26
ENDBRANCH   2  22
TORSDOF 5
ENDMDL
