MODEL 1
REMARK VINA RESULT:     -13.5      0.000      0.000
REMARK  Name = 5073
REMARK  4 active torsions:
REMARK  status: ('A' for Active; 'I' for Inactive)
REMARK    1  A    between atoms: N_1  and  C_18
REMARK    2  A    between atoms: C_2  and  C_11
REMARK    3  A    between atoms: C_18  and  C_19
REMARK    4  A    between atoms: C_19  and  C_23
REMARK                            x       y       z     vdW  Elec       q    Type
REMARK                         _______ _______ _______ _____ _____    ______ ____
ROOT
ATOM      1  N   UNL     1      35.826 -19.588 -19.964  0.00  0.00    +0.387 N 
ATOM      2  C   UNL     1      35.197 -18.567 -22.642  0.00  0.00    +0.039 C 
ATOM      3  C   UNL     1      34.142 -19.234 -21.743  0.00  0.00    -0.017 C 
ATOM      4  C   UNL     1      36.320 -17.975 -21.775  0.00  0.00    -0.017 C 
ATOM      5  C   UNL     1      34.786 -20.233 -20.778  0.00  0.00    -0.077 C 
ATOM      6  C   UNL     1      36.885 -19.019 -20.809  0.00  0.00    -0.077 C 
ATOM      7  H   UNL     1      35.391 -18.824 -19.446  0.00  0.00    -0.080 HD
ENDROOT
BRANCH   2  11
ATOM      8  F   UNL     1      33.590 -12.193 -24.057  0.00  0.00    -0.204 F 
ATOM      9  O   UNL     1      33.642 -16.816 -25.380  0.00  0.00    -0.354 OA
ATOM     10  N   UNL     1      34.106 -17.968 -24.759  0.00  0.00    -0.081 NA
ATOM     11  C   UNL     1      34.597 -17.555 -23.592  0.00  0.00    +0.100 A 
ATOM     12  C   UNL     1      34.481 -16.171 -23.406  0.00  0.00    +0.054 A 
ATOM     13  C   UNL     1      33.867 -15.744 -24.572  0.00  0.00    +0.179 A 
ATOM     14  C   UNL     1      34.807 -15.224 -22.423  0.00  0.00    +0.007 C 
ATOM     15  C   UNL     1      33.542 -14.419 -24.848  0.00  0.00    +0.070 C 
ATOM     16  C   UNL     1      34.494 -13.880 -22.668  0.00  0.00    +0.030 C 
ATOM     17  C   UNL     1      33.874 -13.487 -23.859  0.00  0.00    +0.143 C 
ENDBRANCH   2  11
BRANCH   1  18
ATOM     18  C   UNL     1      36.390 -20.541 -19.008  0.00  0.00    -0.076 C 
BRANCH  18  19
ATOM     19  C   UNL     1      35.659 -21.872 -19.111  0.00  0.00    -0.007 C 
BRANCH  19  23
ATOM     20  O   UNL     1      32.943 -22.388 -18.790  0.00  0.00    -0.274 OA
ATOM     21  N   UNL     1      33.083 -22.881 -16.518  0.00  0.00    -0.237 N 
ATOM     22  N   UNL     1      35.174 -22.722 -15.423  0.00  0.00    -0.399 NA
ATOM     23  C   UNL     1      35.082 -22.269 -17.784  0.00  0.00    +0.123 C 
ATOM     24  C   UNL     1      31.628 -23.050 -16.435  0.00  0.00    +0.100 C 
ATOM     25  C   UNL     1      31.143 -23.785 -15.200  0.00  0.00    +0.022 C 
ATOM     26  C   UNL     1      33.899 -22.946 -15.403  0.00  0.00    +0.165 C 
ATOM     27  C   UNL     1      31.799 -23.182 -13.975  0.00  0.00    +0.011 C 
ATOM     28  C   UNL     1      33.299 -23.372 -14.075  0.00  0.00    +0.075 C 
ATOM     29  C   UNL     1      33.606 -22.518 -17.761  0.00  0.00    +0.237 C 
ATOM     30  C   UNL     1      35.755 -22.387 -16.623  0.00  0.00    +0.096 C 
ATOM     31  C   UNL     1      37.245 -22.191 -16.518  0.00  0.00    +0.062 C 
ENDBRANCH  19  23
ENDBRANCH  18  19
ENDBRANCH   1  18
TORSDOF 4
ENDMDL
MODEL 2
REMARK VINA RESULT:     -13.2      1.290      2.133
REMARK  Name = 5073
REMARK  4 active torsions:
REMARK  status: ('A' for Active; 'I' for Inactive)
REMARK    1  A    between atoms: N_1  and  C_18
REMARK    2  A    between atoms: C_2  and  C_11
REMARK    3  A    between atoms: C_18  and  C_19
REMARK    4  A    between atoms: C_19  and  C_23
REMARK                            x       y       z     vdW  Elec       q    Type
REMARK                         _______ _______ _______ _____ _____    ______ ____
ROOT
ATOM      1  N   UNL     1      35.326 -18.951 -20.522  0.00  0.00    +0.387 N 
ATOM      2  C   UNL     1      35.240 -17.355 -22.983  0.00  0.00    +0.039 C 
ATOM      3  C   UNL     1      34.588 -18.744 -22.876  0.00  0.00    -0.017 C 
ATOM      4  C   UNL     1      35.339 -16.717 -21.587  0.00  0.00    -0.017 C 
ATOM      5  C   UNL     1      35.299 -19.612 -21.835  0.00  0.00    -0.077 C 
ATOM      6  C   UNL     1      36.022 -17.659 -20.594  0.00  0.00    -0.077 C 
ATOM      7  H   UNL     1      34.362 -18.775 -20.240  0.00  0.00    -0.080 HD
ENDROOT
BRANCH   2  11
ATOM      8  F   UNL     1      33.078 -11.244 -24.774  0.00  0.00    -0.204 F 
ATOM      9  O   UNL     1      33.515 -15.922 -25.803  0.00  0.00    -0.354 OA
ATOM     10  N   UNL     1      34.083 -16.988 -25.118  0.00  0.00    -0.081 NA
ATOM     11  C   UNL     1      34.547 -16.461 -23.986  0.00  0.00    +0.100 A 
ATOM     12  C   UNL     1      34.314 -15.082 -23.886  0.00  0.00    +0.054 A 
ATOM     13  C   UNL     1      33.655 -14.785 -25.067  0.00  0.00    +0.179 A 
ATOM     14  C   UNL     1      34.567 -14.050 -22.970  0.00  0.00    +0.007 C 
ATOM     15  C   UNL     1      33.215 -13.513 -25.422  0.00  0.00    +0.070 C 
ATOM     16  C   UNL     1      34.136 -12.756 -23.295  0.00  0.00    +0.030 C 
ATOM     17  C   UNL     1      33.474 -12.495 -24.498  0.00  0.00    +0.143 C 
ENDBRANCH   2  11
BRANCH   1  18
ATOM     18  C   UNL     1      35.957 -19.818 -19.527  0.00  0.00    -0.076 C 
BRANCH  18  19
ATOM     19  C   UNL     1      35.536 -21.262 -19.758  0.00  0.00    -0.007 C 
BRANCH  19  23
ATOM     20  O   UNL     1      36.197 -22.562 -17.388  0.00  0.00    -0.274 OA
ATOM     21  N   UNL     1      34.004 -22.750 -16.624  0.00  0.00    -0.237 N 
ATOM     22  N   UNL     1      32.233 -21.950 -17.975  0.00  0.00    -0.399 NA
ATOM     23  C   UNL     1      34.488 -21.678 -18.766  0.00  0.00    +0.123 C 
ATOM     24  C   UNL     1      34.447 -23.503 -15.446  0.00  0.00    +0.100 C 
ATOM     25  C   UNL     1      33.430 -23.583 -14.324  0.00  0.00    +0.022 C 
ATOM     26  C   UNL     1      32.666 -22.537 -16.904  0.00  0.00    +0.165 C 
ATOM     27  C   UNL     1      32.091 -24.000 -14.896  0.00  0.00    +0.011 C 
ATOM     28  C   UNL     1      31.625 -22.944 -15.877  0.00  0.00    +0.075 C 
ATOM     29  C   UNL     1      34.991 -22.365 -17.535  0.00  0.00    +0.237 C 
ATOM     30  C   UNL     1      33.156 -21.521 -18.898  0.00  0.00    +0.096 C 
ATOM     31  C   UNL     1      32.527 -20.822 -20.074  0.00  0.00    +0.062 C 
ENDBRANCH  19  23
ENDBRANCH  18  19
ENDBRANCH   1  18
TORSDOF 4
ENDMDL
MODEL 3
REMARK VINA RESULT:     -13.1      3.418     10.135
REMARK  Name = 5073
REMARK  4 active torsions:
REMARK  status: ('A' for Active; 'I' for Inactive)
REMARK    1  A    between atoms: N_1  and  C_18
REMARK    2  A    between atoms: C_2  and  C_11
REMARK    3  A    between atoms: C_18  and  C_19
REMARK    4  A    between atoms: C_19  and  C_23
REMARK                            x       y       z     vdW  Elec       q    Type
REMARK                         _______ _______ _______ _____ _____    ______ ____
ROOT
ATOM      1  N   UNL     1      34.254 -19.499 -20.836  0.00  0.00    +0.387 N 
ATOM      2  C   UNL     1      34.416 -21.752 -18.963  0.00  0.00    +0.039 C 
ATOM      3  C   UNL     1      35.652 -20.946 -19.394  0.00  0.00    -0.017 C 
ATOM      4  C   UNL     1      33.153 -20.887 -19.107  0.00  0.00    -0.017 C 
ATOM      5  C   UNL     1      35.461 -20.337 -20.785  0.00  0.00    -0.077 C 
ATOM      6  C   UNL     1      33.053 -20.280 -20.509  0.00  0.00    -0.077 C 
ATOM      7  H   UNL     1      34.352 -18.764 -20.137  0.00  0.00    -0.080 HD
ENDROOT
BRANCH   2  11
ATOM      8  F   UNL     1      31.576 -24.349 -13.449  0.00  0.00    -0.204 F 
ATOM      9  O   UNL     1      35.564 -23.064 -15.811  0.00  0.00    -0.354 OA
ATOM     10  N   UNL     1      35.778 -22.503 -17.062  0.00  0.00    -0.081 NA
ATOM     11  C   UNL     1      34.561 -22.349 -17.582  0.00  0.00    +0.100 A 
ATOM     12  C   UNL     1      33.539 -22.787 -16.727  0.00  0.00    +0.054 A 
ATOM     13  C   UNL     1      34.228 -23.234 -15.612  0.00  0.00    +0.179 A 
ATOM     14  C   UNL     1      32.139 -22.868 -16.740  0.00  0.00    +0.007 C 
ATOM     15  C   UNL     1      33.623 -23.770 -14.479  0.00  0.00    +0.070 C 
ATOM     16  C   UNL     1      31.496 -23.402 -15.614  0.00  0.00    +0.030 C 
ATOM     17  C   UNL     1      32.226 -23.844 -14.506  0.00  0.00    +0.143 C 
ENDBRANCH   2  11
BRANCH   1  18
ATOM     18  C   UNL     1      34.117 -18.879 -22.154  0.00  0.00    -0.076 C 
BRANCH  18  19
ATOM     19  C   UNL     1      35.308 -17.970 -22.424  0.00  0.00    -0.007 C 
BRANCH  19  23
ATOM     20  O   UNL     1      34.606 -16.975 -24.926  0.00  0.00    -0.274 OA
ATOM     21  N   UNL     1      34.107 -14.827 -24.173  0.00  0.00    -0.237 N 
ATOM     22  N   UNL     1      34.401 -14.303 -21.884  0.00  0.00    -0.399 NA
ATOM     23  C   UNL     1      34.863 -16.549 -22.612  0.00  0.00    +0.123 C 
ATOM     24  C   UNL     1      33.840 -14.377 -25.543  0.00  0.00    +0.100 C 
ATOM     25  C   UNL     1      33.065 -13.077 -25.644  0.00  0.00    +0.022 C 
ATOM     26  C   UNL     1      34.090 -13.961 -23.094  0.00  0.00    +0.165 C 
ATOM     27  C   UNL     1      33.702 -12.048 -24.734  0.00  0.00    +0.011 C 
ATOM     28  C   UNL     1      33.615 -12.535 -23.303  0.00  0.00    +0.075 C 
ATOM     29  C   UNL     1      34.514 -16.154 -24.013  0.00  0.00    +0.237 C 
ATOM     30  C   UNL     1      34.783 -15.603 -21.655  0.00  0.00    +0.096 C 
ATOM     31  C   UNL     1      35.079 -15.880 -20.205  0.00  0.00    +0.062 C 
ENDBRANCH  19  23
ENDBRANCH  18  19
ENDBRANCH   1  18
TORSDOF 4
ENDMDL
MODEL 4
REMARK VINA RESULT:     -13.0      4.193     10.222
REMARK  Name = 5073
REMARK  4 active torsions:
REMARK  status: ('A' for Active; 'I' for Inactive)
REMARK    1  A    between atoms: N_1  and  C_18
REMARK    2  A    between atoms: C_2  and  C_11
REMARK    3  A    between atoms: C_18  and  C_19
REMARK    4  A    between atoms: C_19  and  C_23
REMARK                            x       y       z     vdW  Elec       q    Type
REMARK                         _______ _______ _______ _____ _____    ______ ____
ROOT
ATOM      1  N   UNL     1      35.303 -15.575 -23.036  0.00  0.00    +0.387 N 
ATOM      2  C   UNL     1      34.921 -17.932 -21.331  0.00  0.00    +0.039 C 
ATOM      3  C   UNL     1      35.357 -18.038 -22.802  0.00  0.00    -0.017 C 
ATOM      4  C   UNL     1      35.324 -16.560 -20.765  0.00  0.00    -0.017 C 
ATOM      5  C   UNL     1      34.852 -16.847 -23.618  0.00  0.00    -0.077 C 
ATOM      6  C   UNL     1      34.820 -15.422 -21.656  0.00  0.00    -0.077 C 
ATOM      7  H   UNL     1      36.322 -15.584 -23.014  0.00  0.00    -0.080 HD
ENDROOT
BRANCH   2  11
ATOM      8  F   UNL     1      33.657 -23.534 -17.833  0.00  0.00    -0.204 F 
ATOM      9  O   UNL     1      36.850 -20.317 -19.442  0.00  0.00    -0.354 OA
ATOM     10  N   UNL     1      36.725 -19.173 -20.220  0.00  0.00    -0.081 NA
ATOM     11  C   UNL     1      35.424 -19.082 -20.488  0.00  0.00    +0.100 A 
ATOM     12  C   UNL     1      34.671 -20.121 -19.922  0.00  0.00    +0.054 A 
ATOM     13  C   UNL     1      35.624 -20.882 -19.266  0.00  0.00    +0.179 A 
ATOM     14  C   UNL     1      33.328 -20.523 -19.874  0.00  0.00    +0.007 C 
ATOM     15  C   UNL     1      35.344 -22.040 -18.547  0.00  0.00    +0.070 C 
ATOM     16  C   UNL     1      33.009 -21.685 -19.157  0.00  0.00    +0.030 C 
ATOM     17  C   UNL     1      34.000 -22.428 -18.507  0.00  0.00    +0.143 C 
ENDBRANCH   2  11
BRANCH   1  18
ATOM     18  C   UNL     1      34.860 -14.450 -23.860  0.00  0.00    -0.076 C 
BRANCH  18  19
ATOM     19  C   UNL     1      33.392 -14.157 -23.589  0.00  0.00    -0.007 C 
BRANCH  19  23
ATOM     20  O   UNL     1      32.299 -13.419 -21.138  0.00  0.00    -0.274 OA
ATOM     21  N   UNL     1      32.417 -11.125 -21.530  0.00  0.00    -0.237 N 
ATOM     22  N   UNL     1      33.238 -10.344 -23.607  0.00  0.00    -0.399 NA
ATOM     23  C   UNL     1      33.194 -12.717 -23.214  0.00  0.00    +0.123 C 
ATOM     24  C   UNL     1      31.756 -10.843 -20.251  0.00  0.00    +0.100 C 
ATOM     25  C   UNL     1      31.903  -9.415 -19.762  0.00  0.00    +0.022 C 
ATOM     26  C   UNL     1      32.732 -10.127 -22.435  0.00  0.00    +0.165 C 
ATOM     27  C   UNL     1      31.563  -8.466 -20.893  0.00  0.00    +0.011 C 
ATOM     28  C   UNL     1      32.546  -8.678 -22.026  0.00  0.00    +0.075 C 
ATOM     29  C   UNL     1      32.599 -12.470 -21.862  0.00  0.00    +0.237 C 
ATOM     30  C   UNL     1      33.469 -11.646 -23.983  0.00  0.00    +0.096 C 
ATOM     31  C   UNL     1      34.095 -11.758 -25.348  0.00  0.00    +0.062 C 
ENDBRANCH  19  23
ENDBRANCH  18  19
ENDBRANCH   1  18
TORSDOF 4
ENDMDL
MODEL 5
REMARK VINA RESULT:     -12.9      4.663     10.453
REMARK  Name = 5073
REMARK  4 active torsions:
REMARK  status: ('A' for Active; 'I' for Inactive)
REMARK    1  A    between atoms: N_1  and  C_18
REMARK    2  A    between atoms: C_2  and  C_11
REMARK    3  A    between atoms: C_18  and  C_19
REMARK    4  A    between atoms: C_19  and  C_23
REMARK                            x       y       z     vdW  Elec       q    Type
REMARK                         _______ _______ _______ _____ _____    ______ ____
ROOT
ATOM      1  N   UNL     1      35.081 -14.693 -22.400  0.00  0.00    +0.387 N 
ATOM      2  C   UNL     1      34.831 -17.367 -21.217  0.00  0.00    +0.039 C 
ATOM      3  C   UNL     1      35.354 -17.141 -22.645  0.00  0.00    -0.017 C 
ATOM      4  C   UNL     1      35.073 -16.108 -20.368  0.00  0.00    -0.017 C 
ATOM      5  C   UNL     1      34.783 -15.856 -23.249  0.00  0.00    -0.077 C 
ATOM      6  C   UNL     1      34.513 -14.860 -21.055  0.00  0.00    -0.077 C 
ATOM      7  H   UNL     1      36.094 -14.623 -22.307  0.00  0.00    -0.080 HD
ENDROOT
BRANCH   2  11
ATOM      8  F   UNL     1      33.824 -23.409 -18.442  0.00  0.00    -0.204 F 
ATOM      9  O   UNL     1      36.892 -19.971 -19.822  0.00  0.00    -0.354 OA
ATOM     10  N   UNL     1      36.711 -18.733 -20.422  0.00  0.00    -0.081 NA
ATOM     11  C   UNL     1      35.394 -18.618 -20.580  0.00  0.00    +0.100 A 
ATOM     12  C   UNL     1      34.684 -19.732 -20.109  0.00  0.00    +0.054 A 
ATOM     13  C   UNL     1      35.682 -20.567 -19.636  0.00  0.00    +0.179 A 
ATOM     14  C   UNL     1      33.348 -20.149 -20.019  0.00  0.00    +0.007 C 
ATOM     15  C   UNL     1      35.455 -21.815 -19.065  0.00  0.00    +0.070 C 
ATOM     16  C   UNL     1      33.082 -21.401 -19.447  0.00  0.00    +0.030 C 
ATOM     17  C   UNL     1      34.118 -22.217 -18.981  0.00  0.00    +0.143 C 
ENDBRANCH   2  11
BRANCH   1  18
ATOM     18  C   UNL     1      34.580 -13.466 -23.019  0.00  0.00    -0.076 C 
BRANCH  18  19
ATOM     19  C   UNL     1      33.068 -13.388 -22.861  0.00  0.00    -0.007 C 
BRANCH  19  23
ATOM     20  O   UNL     1      33.363 -10.830 -23.917  0.00  0.00    -0.274 OA
ATOM     21  N   UNL     1      32.520  -9.725 -22.048  0.00  0.00    -0.237 N 
ATOM     22  N   UNL     1      31.870 -10.983 -20.152  0.00  0.00    -0.399 NA
ATOM     23  C   UNL     1      32.674 -12.164 -22.087  0.00  0.00    +0.123 C 
ATOM     24  C   UNL     1      32.792  -8.421 -22.660  0.00  0.00    +0.100 C 
ATOM     25  C   UNL     1      32.066  -7.254 -22.018  0.00  0.00    +0.022 C 
ATOM     26  C   UNL     1      32.045  -9.850 -20.755  0.00  0.00    +0.165 C 
ATOM     27  C   UNL     1      32.251  -7.320 -20.516  0.00  0.00    +0.011 C 
ATOM     28  C   UNL     1      31.630  -8.601 -19.999  0.00  0.00    +0.075 C 
ATOM     29  C   UNL     1      32.886 -10.855 -22.783  0.00  0.00    +0.237 C 
ATOM     30  C   UNL     1      32.185 -12.135 -20.832  0.00  0.00    +0.096 C 
ATOM     31  C   UNL     1      31.900 -13.382 -20.037  0.00  0.00    +0.062 C 
ENDBRANCH  19  23
ENDBRANCH  18  19
ENDBRANCH   1  18
TORSDOF 4
ENDMDL
MODEL 6
REMARK VINA RESULT:     -12.8      3.551     10.252
REMARK  Name = 5073
REMARK  4 active torsions:
REMARK  status: ('A' for Active; 'I' for Inactive)
REMARK    1  A    between atoms: N_1  and  C_18
REMARK    2  A    between atoms: C_2  and  C_11
REMARK    3  A    between atoms: C_18  and  C_19
REMARK    4  A    between atoms: C_19  and  C_23
REMARK                            x       y       z     vdW  Elec       q    Type
REMARK                         _______ _______ _______ _____ _____    ______ ____
ROOT
ATOM      1  N   UNL     1      34.355 -20.310 -19.929  0.00  0.00    +0.387 N 
ATOM      2  C   UNL     1      34.162 -22.486 -17.970  0.00  0.00    +0.039 C 
ATOM      3  C   UNL     1      35.483 -21.756 -18.266  0.00  0.00    -0.017 C 
ATOM      4  C   UNL     1      32.973 -21.571 -18.308  0.00  0.00    -0.017 C 
ATOM      5  C   UNL     1      35.502 -21.199 -19.691  0.00  0.00    -0.077 C 
ATOM      6  C   UNL     1      33.084 -21.020 -19.731  0.00  0.00    -0.077 C 
ATOM      7  H   UNL     1      34.401 -19.550 -19.249  0.00  0.00    -0.080 HD
ENDROOT
BRANCH   2  11
ATOM      8  F   UNL     1      30.513 -24.317 -12.627  0.00  0.00    -0.204 F 
ATOM      9  O   UNL     1      34.829 -23.810 -14.687  0.00  0.00    -0.354 OA
ATOM     10  N   UNL     1      35.229 -23.352 -15.935  0.00  0.00    -0.081 NA
ATOM     11  C   UNL     1      34.099 -23.030 -16.561  0.00  0.00    +0.100 A 
ATOM     12  C   UNL     1      32.956 -23.255 -15.781  0.00  0.00    +0.054 A 
ATOM     13  C   UNL     1      33.472 -23.752 -14.596  0.00  0.00    +0.179 A 
ATOM     14  C   UNL     1      31.566 -23.110 -15.910  0.00  0.00    +0.007 C 
ATOM     15  C   UNL     1      32.701 -24.126 -13.500  0.00  0.00    +0.070 C 
ATOM     16  C   UNL     1      30.758 -23.477 -14.824  0.00  0.00    +0.030 C 
ATOM     17  C   UNL     1      31.317 -23.976 -13.643  0.00  0.00    +0.143 C 
ENDBRANCH   2  11
BRANCH   1  18
ATOM     18  C   UNL     1      34.420 -19.741 -21.275  0.00  0.00    -0.076 C 
BRANCH  18  19
ATOM     19  C   UNL     1      35.413 -18.587 -21.301  0.00  0.00    -0.007 C 
BRANCH  19  23
ATOM     20  O   UNL     1      35.230 -15.918 -20.535  0.00  0.00    -0.274 OA
ATOM     21  N   UNL     1      34.496 -15.147 -22.607  0.00  0.00    -0.237 N 
ATOM     22  N   UNL     1      34.144 -16.694 -24.362  0.00  0.00    -0.399 NA
ATOM     23  C   UNL     1      34.966 -17.519 -22.257  0.00  0.00    +0.123 C 
ATOM     24  C   UNL     1      34.354 -13.784 -22.082  0.00  0.00    +0.100 C 
ATOM     25  C   UNL     1      34.254 -12.703 -23.142  0.00  0.00    +0.022 C 
ATOM     26  C   UNL     1      34.111 -15.488 -23.891  0.00  0.00    +0.165 C 
ATOM     27  C   UNL     1      33.225 -13.114 -24.174  0.00  0.00    +0.011 C 
ATOM     28  C   UNL     1      33.685 -14.390 -24.848  0.00  0.00    +0.075 C 
ATOM     29  C   UNL     1      34.919 -16.128 -21.707  0.00  0.00    +0.237 C 
ATOM     30  C   UNL     1      34.578 -17.702 -23.535  0.00  0.00    +0.096 C 
ATOM     31  C   UNL     1      34.606 -19.046 -24.214  0.00  0.00    +0.062 C 
ENDBRANCH  19  23
ENDBRANCH  18  19
ENDBRANCH   1  18
TORSDOF 4
ENDMDL
MODEL 7
REMARK VINA RESULT:     -12.8      3.397     10.060
REMARK  Name = 5073
REMARK  4 active torsions:
REMARK  status: ('A' for Active; 'I' for Inactive)
REMARK    1  A    between atoms: N_1  and  C_18
REMARK    2  A    between atoms: C_2  and  C_11
REMARK    3  A    between atoms: C_18  and  C_19
REMARK    4  A    between atoms: C_19  and  C_23
REMARK                            x       y       z     vdW  Elec       q    Type
REMARK                         _______ _______ _______ _____ _____    ______ ____
ROOT
ATOM      1  N   UNL     1      34.362 -19.376 -20.765  0.00  0.00    +0.387 N 
ATOM      2  C   UNL     1      34.323 -21.718 -18.997  0.00  0.00    +0.039 C 
ATOM      3  C   UNL     1      35.601 -20.906 -19.265  0.00  0.00    -0.017 C 
ATOM      4  C   UNL     1      33.086 -20.832 -19.222  0.00  0.00    -0.017 C 
ATOM      5  C   UNL     1      35.552 -20.229 -20.637  0.00  0.00    -0.077 C 
ATOM      6  C   UNL     1      33.129 -20.157 -20.595  0.00  0.00    -0.077 C 
ATOM      7  H   UNL     1      34.396 -18.676 -20.024  0.00  0.00    -0.080 HD
ENDROOT
BRANCH   2  11
ATOM      8  F   UNL     1      37.592 -23.311 -13.341  0.00  0.00    -0.204 F 
ATOM      9  O   UNL     1      33.557 -23.484 -15.952  0.00  0.00    -0.354 OA
ATOM     10  N   UNL     1      33.224 -22.989 -17.206  0.00  0.00    -0.081 NA
ATOM     11  C   UNL     1      34.327 -22.382 -17.639  0.00  0.00    +0.100 A 
ATOM     12  C   UNL     1      35.387 -22.449 -16.724  0.00  0.00    +0.054 A 
ATOM     13  C   UNL     1      34.847 -23.161 -15.665  0.00  0.00    +0.179 A 
ATOM     14  C   UNL     1      36.717 -22.012 -16.641  0.00  0.00    +0.007 C 
ATOM     15  C   UNL     1      35.539 -23.481 -14.501  0.00  0.00    +0.070 C 
ATOM     16  C   UNL     1      37.445 -22.318 -15.482  0.00  0.00    +0.030 C 
ATOM     17  C   UNL     1      36.865 -23.038 -14.433  0.00  0.00    +0.143 C 
ENDBRANCH   2  11
BRANCH   1  18
ATOM     18  C   UNL     1      34.360 -18.692 -22.058  0.00  0.00    -0.076 C 
BRANCH  18  19
ATOM     19  C   UNL     1      35.484 -17.668 -22.103  0.00  0.00    -0.007 C 
BRANCH  19  23
ATOM     20  O   UNL     1      34.869 -16.831 -24.685  0.00  0.00    -0.274 OA
ATOM     21  N   UNL     1      34.161 -14.701 -24.060  0.00  0.00    -0.237 N 
ATOM     22  N   UNL     1      34.269 -14.065 -21.783  0.00  0.00    -0.399 NA
ATOM     23  C   UNL     1      34.946 -16.295 -22.381  0.00  0.00    +0.123 C 
ATOM     24  C   UNL     1      33.948 -14.329 -25.462  0.00  0.00    +0.100 C 
ATOM     25  C   UNL     1      33.084 -13.098 -25.668  0.00  0.00    +0.022 C 
ATOM     26  C   UNL     1      34.010 -13.797 -23.024  0.00  0.00    +0.165 C 
ATOM     27  C   UNL     1      33.582 -11.987 -24.768  0.00  0.00    +0.011 C 
ATOM     28  C   UNL     1      33.442 -12.422 -23.324  0.00  0.00    +0.075 C 
ATOM     29  C   UNL     1      34.657 -15.984 -23.817  0.00  0.00    +0.237 C 
ATOM     30  C   UNL     1      34.734 -15.321 -21.474  0.00  0.00    +0.096 C 
ATOM     31  C   UNL     1      34.957 -15.516 -19.997  0.00  0.00    +0.062 C 
ENDBRANCH  19  23
ENDBRANCH  18  19
ENDBRANCH   1  18
TORSDOF 4
ENDMDL
MODEL 8
REMARK VINA RESULT:     -12.2      6.944     13.168
REMARK  Name = 5073
REMARK  4 active torsions:
REMARK  status: ('A' for Active; 'I' for Inactive)
REMARK    1  A    between atoms: N_1  and  C_18
REMARK    2  A    between atoms: C_2  and  C_11
REMARK    3  A    between atoms: C_18  and  C_19
REMARK    4  A    between atoms: C_19  and  C_23
REMARK                            x       y       z     vdW  Elec       q    Type
REMARK                         _______ _______ _______ _____ _____    ______ ____
ROOT
ATOM      1  N   UNL     1      32.950 -10.577 -23.608  0.00  0.00    +0.387 N 
ATOM      2  C   UNL     1      33.966 -13.315 -23.897  0.00  0.00    +0.039 C 
ATOM      3  C   UNL     1      32.993 -12.909 -22.777  0.00  0.00    -0.017 C 
ATOM      4  C   UNL     1      33.812 -12.361 -25.092  0.00  0.00    -0.017 C 
ATOM      5  C   UNL     1      33.141 -11.427 -22.423  0.00  0.00    -0.077 C 
ATOM      6  C   UNL     1      33.930 -10.899 -24.654  0.00  0.00    -0.077 C 
ATOM      7  H   UNL     1      32.019 -10.762 -23.980  0.00  0.00    -0.080 HD
ENDROOT
BRANCH   2  11
ATOM      8  F   UNL     1      35.221 -19.797 -22.623  0.00  0.00    -0.204 F 
ATOM      9  O   UNL     1      33.224 -16.472 -25.467  0.00  0.00    -0.354 OA
ATOM     10  N   UNL     1      33.166 -15.086 -25.398  0.00  0.00    -0.081 NA
ATOM     11  C   UNL     1      33.830 -14.769 -24.288  0.00  0.00    +0.100 A 
ATOM     12  C   UNL     1      34.331 -15.889 -23.609  0.00  0.00    +0.054 A 
ATOM     13  C   UNL     1      33.919 -16.949 -24.398  0.00  0.00    +0.179 A 
ATOM     14  C   UNL     1      35.069 -16.152 -22.445  0.00  0.00    +0.007 C 
ATOM     15  C   UNL     1      34.188 -18.286 -24.118  0.00  0.00    +0.070 C 
ATOM     16  C   UNL     1      35.359 -17.488 -22.133  0.00  0.00    +0.030 C 
ATOM     17  C   UNL     1      34.925 -18.533 -22.955  0.00  0.00    +0.143 C 
ENDBRANCH   2  11
BRANCH   1  18
ATOM     18  C   UNL     1      33.038  -9.164 -23.242  0.00  0.00    -0.076 C 
BRANCH  18  19
ATOM     19  C   UNL     1      31.781  -8.745 -22.493  0.00  0.00    -0.007 C 
BRANCH  19  23
ATOM     20  O   UNL     1      30.786  -6.722 -24.125  0.00  0.00    -0.274 OA
ATOM     21  N   UNL     1      31.355  -4.982 -22.686  0.00  0.00    -0.237 N 
ATOM     22  N   UNL     1      32.483  -5.470 -20.664  0.00  0.00    -0.399 NA
ATOM     23  C   UNL     1      31.853  -7.300 -22.093  0.00  0.00    +0.123 C 
ATOM     24  C   UNL     1      30.878  -3.987 -23.653  0.00  0.00    +0.100 C 
ATOM     25  C   UNL     1      30.641  -2.604 -23.076  0.00  0.00    +0.022 C 
ATOM     26  C   UNL     1      31.976  -4.623 -21.503  0.00  0.00    +0.165 C 
ATOM     27  C   UNL     1      31.849  -2.192 -22.261  0.00  0.00    +0.011 C 
ATOM     28  C   UNL     1      32.017  -3.159 -21.107  0.00  0.00    +0.075 C 
ATOM     29  C   UNL     1      31.275  -6.322 -23.069  0.00  0.00    +0.237 C 
ATOM     30  C   UNL     1      32.412  -6.808 -20.970  0.00  0.00    +0.096 C 
ATOM     31  C   UNL     1      33.000  -7.687 -19.897  0.00  0.00    +0.062 C 
ENDBRANCH  19  23
ENDBRANCH  18  19
ENDBRANCH   1  18
TORSDOF 4
ENDMDL
MODEL 9
REMARK VINA RESULT:     -12.2      2.373      3.993
REMARK  Name = 5073
REMARK  4 active torsions:
REMARK  status: ('A' for Active; 'I' for Inactive)
REMARK    1  A    between atoms: N_1  and  C_18
REMARK    2  A    between atoms: C_2  and  C_11
REMARK    3  A    between atoms: C_18  and  C_19
REMARK    4  A    between atoms: C_19  and  C_23
REMARK                            x       y       z     vdW  Elec       q    Type
REMARK                         _______ _______ _______ _____ _____    ______ ____
ROOT
ATOM      1  N   UNL     1      34.063 -22.590 -18.592  0.00  0.00    +0.387 N 
ATOM      2  C   UNL     1      34.555 -20.032 -19.943  0.00  0.00    +0.039 C 
ATOM      3  C   UNL     1      35.634 -21.121 -19.818  0.00  0.00    -0.017 C 
ATOM      4  C   UNL     1      33.158 -20.671 -19.867  0.00  0.00    -0.017 C 
ATOM      5  C   UNL     1      35.405 -21.989 -18.579  0.00  0.00    -0.077 C 
ATOM      6  C   UNL     1      33.020 -21.556 -18.626  0.00  0.00    -0.077 C 
ATOM      7  H   UNL     1      33.979 -23.151 -19.440  0.00  0.00    -0.080 HD
ENDROOT
BRANCH   2  11
ATOM      8  F   UNL     1      35.158 -13.926 -22.693  0.00  0.00    -0.204 F 
ATOM      9  O   UNL     1      35.002 -18.699 -23.260  0.00  0.00    -0.354 OA
ATOM     10  N   UNL     1      34.850 -19.749 -22.365  0.00  0.00    -0.081 NA
ATOM     11  C   UNL     1      34.737 -19.169 -21.171  0.00  0.00    +0.100 A 
ATOM     12  C   UNL     1      34.808 -17.770 -21.231  0.00  0.00    +0.054 A 
ATOM     13  C   UNL     1      34.977 -17.519 -22.582  0.00  0.00    +0.179 A 
ATOM     14  C   UNL     1      34.755 -16.689 -20.339  0.00  0.00    +0.007 C 
ATOM     15  C   UNL     1      35.101 -16.247 -23.134  0.00  0.00    +0.070 C 
ATOM     16  C   UNL     1      34.875 -15.393 -20.861  0.00  0.00    +0.030 C 
ATOM     17  C   UNL     1      35.045 -15.179 -22.232  0.00  0.00    +0.143 C 
ENDBRANCH   2  11
BRANCH   1  18
ATOM     18  C   UNL     1      33.882 -23.462 -17.431  0.00  0.00    -0.076 C 
BRANCH  18  19
ATOM     19  C   UNL     1      33.242 -22.681 -16.293  0.00  0.00    -0.007 C 
BRANCH  19  23
ATOM     20  O   UNL     1      35.878 -22.268 -15.504  0.00  0.00    -0.274 OA
ATOM     21  N   UNL     1      35.653 -23.316 -13.436  0.00  0.00    -0.237 N 
ATOM     22  N   UNL     1      33.577 -24.288 -12.849  0.00  0.00    -0.399 NA
ATOM     23  C   UNL     1      33.752 -23.157 -14.964  0.00  0.00    +0.123 C 
ATOM     24  C   UNL     1      37.078 -23.123 -13.150  0.00  0.00    +0.100 C 
ATOM     25  C   UNL     1      37.461 -23.286 -11.691  0.00  0.00    +0.022 C 
ATOM     26  C   UNL     1      34.819 -24.026 -12.591  0.00  0.00    +0.165 C 
ATOM     27  C   UNL     1      36.859 -24.571 -11.161  0.00  0.00    +0.011 C 
ATOM     28  C   UNL     1      35.349 -24.478 -11.242  0.00  0.00    +0.075 C 
ATOM     29  C   UNL     1      35.191 -22.861 -14.674  0.00  0.00    +0.237 C 
ATOM     30  C   UNL     1      33.054 -23.843 -14.039  0.00  0.00    +0.096 C 
ATOM     31  C   UNL     1      31.594 -24.177 -14.198  0.00  0.00    +0.062 C 
ENDBRANCH  19  23
ENDBRANCH  18  19
ENDBRANCH   1  18
TORSDOF 4
ENDMDL
