MODEL 1
REMARK VINA RESULT:     -12.2      0.000      0.000
REMARK  Name = 24958200
REMARK  3 active torsions:
REMARK  status: ('A' for Active; 'I' for Inactive)
REMARK    1  A    between atoms: N_1  and  C_13
REMARK    2  A    between atoms: C_6  and  C_26
REMARK    3  A    between atoms: C_10  and  C_17
REMARK                            x       y       z     vdW  Elec       q    Type
REMARK                         _______ _______ _______ _____ _____    ______ ____
ROOT
ATOM      1  N   UNL     1      32.426 -22.719 -16.820  0.00  0.00    -0.189 N 
ATOM      2  N   UNL     1      31.081 -22.788 -16.863  0.00  0.00    -0.174 NA
ATOM      3  C   UNL     1      31.938 -23.825 -15.032  0.00  0.00    +0.036 C 
ATOM      4  C   UNL     1      32.996 -23.327 -15.740  0.00  0.00    +0.091 C 
ATOM      5  C   UNL     1      30.740 -23.475 -15.757  0.00  0.00    +0.105 C 
ATOM      6  C   UNL     1      29.474 -23.854 -15.274  0.00  0.00    +0.072 C 
ATOM      7  C   UNL     1      32.022 -24.533 -13.840  0.00  0.00    +0.003 C 
ATOM      8  C   UNL     1      29.526 -24.576 -14.062  0.00  0.00    +0.006 C 
ATOM      9  C   UNL     1      30.742 -24.899 -13.380  0.00  0.00    +0.000 C 
ENDROOT
BRANCH   1  13
ATOM     10  C   UNL     1      34.514 -20.761 -19.856  0.00  0.00    -0.024 C 
ATOM     11  C   UNL     1      35.193 -21.593 -18.966  0.00  0.00    -0.003 C 
ATOM     12  C   UNL     1      33.135 -20.584 -19.731  0.00  0.00    -0.003 C 
ATOM     13  C   UNL     1      33.118 -22.070 -17.826  0.00  0.00    +0.074 C 
ATOM     14  C   UNL     1      34.496 -22.247 -17.952  0.00  0.00    +0.016 C 
ATOM     15  C   UNL     1      32.438 -21.238 -18.716  0.00  0.00    +0.016 C 
BRANCH  10  17
ATOM     16  N   UNL     1      35.083 -18.582 -22.953  0.00  0.00    +0.384 N 
ATOM     17  C   UNL     1      35.273 -20.047 -20.960  0.00  0.00    +0.001 C 
ATOM     18  C   UNL     1      36.387 -19.148 -20.397  0.00  0.00    +0.000 C 
ATOM     19  C   UNL     1      34.336 -19.240 -21.878  0.00  0.00    -0.077 C 
ATOM     20  C   UNL     1      37.095 -18.409 -21.530  0.00  0.00    -0.023 C 
ATOM     21  C   UNL     1      36.098 -17.673 -22.422  0.00  0.00    -0.082 C 
ATOM     22  H   UNL     1      34.431 -18.050 -23.531  0.00  0.00    -0.085 HD
ATOM     23  H   UNL     1      35.552 -19.301 -23.504  0.00  0.00    -0.085 HD
ENDBRANCH  10  17
ENDBRANCH   1  13
BRANCH   6  26
ATOM     24  O   UNL     1      27.828 -24.202 -16.921  0.00  0.00    -0.270 OA
ATOM     25  N   UNL     1      27.484 -22.463 -15.468  0.00  0.00    -0.325 N 
ATOM     26  C   UNL     1      28.234 -23.536 -15.949  0.00  0.00    +0.244 C 
ATOM     27  H   UNL     1      26.634 -22.220 -15.905  0.00  0.00    +0.145 HD
ATOM     28  H   UNL     1      27.802 -21.948 -14.692  0.00  0.00    +0.145 HD
ENDBRANCH   6  26
TORSDOF 3
ENDMDL
MODEL 2
REMARK VINA RESULT:     -11.5      2.199      3.255
REMARK  Name = 24958200
REMARK  3 active torsions:
REMARK  status: ('A' for Active; 'I' for Inactive)
REMARK    1  A    between atoms: N_1  and  C_13
REMARK    2  A    between atoms: C_6  and  C_26
REMARK    3  A    between atoms: C_10  and  C_17
REMARK                            x       y       z     vdW  Elec       q    Type
REMARK                         _______ _______ _______ _____ _____    ______ ____
ROOT
ATOM      1  N   UNL     1      32.853 -22.775 -16.657  0.00  0.00    -0.189 N 
ATOM      2  N   UNL     1      33.605 -23.190 -15.619  0.00  0.00    -0.174 NA
ATOM      3  C   UNL     1      31.412 -23.724 -15.360  0.00  0.00    +0.036 C 
ATOM      4  C   UNL     1      31.524 -23.069 -16.555  0.00  0.00    +0.091 C 
ATOM      5  C   UNL     1      32.735 -23.790 -14.787  0.00  0.00    +0.105 C 
ATOM      6  C   UNL     1      32.945 -24.412 -13.542  0.00  0.00    +0.072 C 
ATOM      7  C   UNL     1      30.235 -24.225 -14.820  0.00  0.00    +0.003 C 
ATOM      8  C   UNL     1      31.765 -24.932 -12.965  0.00  0.00    +0.006 C 
ATOM      9  C   UNL     1      30.475 -24.841 -13.576  0.00  0.00    +0.000 C 
ENDROOT
BRANCH   1  13
ATOM     10  C   UNL     1      34.630 -20.754 -19.846  0.00  0.00    -0.024 C 
ATOM     11  C   UNL     1      33.244 -20.724 -19.686  0.00  0.00    -0.003 C 
ATOM     12  C   UNL     1      35.422 -21.459 -18.939  0.00  0.00    -0.003 C 
ATOM     13  C   UNL     1      33.441 -22.106 -17.714  0.00  0.00    +0.074 C 
ATOM     14  C   UNL     1      32.650 -21.400 -18.620  0.00  0.00    +0.016 C 
ATOM     15  C   UNL     1      34.828 -22.135 -17.874  0.00  0.00    +0.016 C 
BRANCH  10  17
ATOM     16  N   UNL     1      34.879 -18.599 -23.002  0.00  0.00    +0.384 N 
ATOM     17  C   UNL     1      35.276 -20.020 -21.007  0.00  0.00    +0.001 C 
ATOM     18  C   UNL     1      36.376 -19.056 -20.531  0.00  0.00    +0.000 C 
ATOM     19  C   UNL     1      34.240 -19.277 -21.871  0.00  0.00    -0.077 C 
ATOM     20  C   UNL     1      36.969 -18.300 -21.718  0.00  0.00    -0.023 C 
ATOM     21  C   UNL     1      35.878 -17.631 -22.551  0.00  0.00    -0.082 C 
ATOM     22  H   UNL     1      34.164 -18.111 -23.542  0.00  0.00    -0.085 HD
ATOM     23  H   UNL     1      35.348 -19.302 -23.573  0.00  0.00    -0.085 HD
ENDBRANCH  10  17
ENDBRANCH   1  13
BRANCH   6  26
ATOM     24  O   UNL     1      34.429 -24.142 -11.734  0.00  0.00    -0.270 OA
ATOM     25  N   UNL     1      35.290 -25.063 -13.649  0.00  0.00    -0.325 N 
ATOM     26  C   UNL     1      34.242 -24.514 -12.910  0.00  0.00    +0.244 C 
ATOM     27  H   UNL     1      36.186 -25.147 -13.248  0.00  0.00    +0.145 HD
ATOM     28  H   UNL     1      35.135 -25.367 -14.572  0.00  0.00    +0.145 HD
ENDBRANCH   6  26
TORSDOF 3
ENDMDL
MODEL 3
REMARK VINA RESULT:     -11.4      4.189      5.452
REMARK  Name = 24958200
REMARK  3 active torsions:
REMARK  status: ('A' for Active; 'I' for Inactive)
REMARK    1  A    between atoms: N_1  and  C_13
REMARK    2  A    between atoms: C_6  and  C_26
REMARK    3  A    between atoms: C_10  and  C_17
REMARK                            x       y       z     vdW  Elec       q    Type
REMARK                         _______ _______ _______ _____ _____    ______ ____
ROOT
ATOM      1  N   UNL     1      35.780 -22.953 -15.537  0.00  0.00    -0.189 N 
ATOM      2  N   UNL     1      36.759 -23.844 -15.290  0.00  0.00    -0.174 NA
ATOM      3  C   UNL     1      35.336 -23.621 -13.533  0.00  0.00    +0.036 C 
ATOM      4  C   UNL     1      34.894 -22.778 -14.514  0.00  0.00    +0.091 C 
ATOM      5  C   UNL     1      36.513 -24.283 -14.042  0.00  0.00    +0.105 C 
ATOM      6  C   UNL     1      37.203 -25.222 -13.254  0.00  0.00    +0.072 C 
ATOM      7  C   UNL     1      34.747 -23.792 -12.288  0.00  0.00    +0.003 C 
ATOM      8  C   UNL     1      36.629 -25.419 -11.979  0.00  0.00    +0.006 C 
ATOM      9  C   UNL     1      35.458 -24.736 -11.520  0.00  0.00    +0.000 C 
ENDROOT
BRANCH   1  13
ATOM     10  C   UNL     1      35.635 -20.972 -19.207  0.00  0.00    -0.024 C 
ATOM     11  C   UNL     1      34.529 -21.695 -18.760  0.00  0.00    -0.003 C 
ATOM     12  C   UNL     1      36.790 -20.912 -18.427  0.00  0.00    -0.003 C 
ATOM     13  C   UNL     1      35.732 -22.297 -16.754  0.00  0.00    +0.074 C 
ATOM     14  C   UNL     1      34.577 -22.357 -17.533  0.00  0.00    +0.016 C 
ATOM     15  C   UNL     1      36.839 -21.574 -17.200  0.00  0.00    +0.016 C 
BRANCH  10  17
ATOM     16  N   UNL     1      34.126 -19.099 -22.187  0.00  0.00    +0.384 N 
ATOM     17  C   UNL     1      35.583 -20.253 -20.543  0.00  0.00    +0.001 C 
ATOM     18  C   UNL     1      36.585 -19.089 -20.603  0.00  0.00    +0.000 C 
ATOM     19  C   UNL     1      34.162 -19.765 -20.882  0.00  0.00    -0.077 C 
ATOM     20  C   UNL     1      36.470 -18.358 -21.939  0.00  0.00    -0.023 C 
ATOM     21  C   UNL     1      35.028 -17.948 -22.226  0.00  0.00    -0.082 C 
ATOM     22  H   UNL     1      33.174 -18.781 -22.370  0.00  0.00    -0.085 HD
ATOM     23  H   UNL     1      34.428 -19.768 -22.896  0.00  0.00    -0.085 HD
ENDBRANCH  10  17
ENDBRANCH   1  13
BRANCH   6  26
ATOM     24  O   UNL     1      38.363 -27.138 -13.980  0.00  0.00    -0.270 OA
ATOM     25  N   UNL     1      39.570 -25.195 -13.829  0.00  0.00    -0.325 N 
ATOM     26  C   UNL     1      38.387 -25.923 -13.700  0.00  0.00    +0.244 C 
ATOM     27  H   UNL     1      40.394 -25.642 -14.131  0.00  0.00    +0.145 HD
ATOM     28  H   UNL     1      39.582 -24.233 -13.619  0.00  0.00    +0.145 HD
ENDBRANCH   6  26
TORSDOF 3
ENDMDL
MODEL 4
REMARK VINA RESULT:     -11.1      3.380      4.686
REMARK  Name = 24958200
REMARK  3 active torsions:
REMARK  status: ('A' for Active; 'I' for Inactive)
REMARK    1  A    between atoms: N_1  and  C_13
REMARK    2  A    between atoms: C_6  and  C_26
REMARK    3  A    between atoms: C_10  and  C_17
REMARK                            x       y       z     vdW  Elec       q    Type
REMARK                         _______ _______ _______ _____ _____    ______ ____
ROOT
ATOM      1  N   UNL     1      34.636 -22.054 -17.581  0.00  0.00    -0.189 N 
ATOM      2  N   UNL     1      35.708 -22.264 -16.793  0.00  0.00    -0.174 NA
ATOM      3  C   UNL     1      33.840 -23.282 -15.995  0.00  0.00    +0.036 C 
ATOM      4  C   UNL     1      33.483 -22.643 -17.149  0.00  0.00    +0.091 C 
ATOM      5  C   UNL     1      35.246 -23.031 -15.788  0.00  0.00    +0.105 C 
ATOM      6  C   UNL     1      35.911 -23.563 -14.668  0.00  0.00    +0.072 C 
ATOM      7  C   UNL     1      32.991 -24.028 -15.188  0.00  0.00    +0.003 C 
ATOM      8  C   UNL     1      35.074 -24.328 -13.826  0.00  0.00    +0.006 C 
ATOM      9  C   UNL     1      33.682 -24.548 -14.076  0.00  0.00    +0.000 C 
ENDROOT
BRANCH   1  13
ATOM     10  C   UNL     1      35.007 -19.742 -21.036  0.00  0.00    -0.024 C 
ATOM     11  C   UNL     1      33.743 -20.104 -20.570  0.00  0.00    -0.003 C 
ATOM     12  C   UNL     1      36.148 -20.154 -20.346  0.00  0.00    -0.003 C 
ATOM     13  C   UNL     1      34.759 -21.288 -18.726  0.00  0.00    +0.074 C 
ATOM     14  C   UNL     1      33.619 -20.876 -19.416  0.00  0.00    +0.016 C 
ATOM     15  C   UNL     1      36.024 -20.926 -19.191  0.00  0.00    +0.016 C 
BRANCH  10  17
ATOM     16  N   UNL     1      34.123 -18.316 -24.478  0.00  0.00    +0.384 N 
ATOM     17  C   UNL     1      35.143 -18.903 -22.293  0.00  0.00    +0.001 C 
ATOM     18  C   UNL     1      35.319 -17.411 -21.967  0.00  0.00    +0.000 C 
ATOM     19  C   UNL     1      33.960 -19.112 -23.258  0.00  0.00    -0.077 C 
ATOM     20  C   UNL     1      35.402 -16.593 -23.253  0.00  0.00    -0.023 C 
ATOM     21  C   UNL     1      34.223 -16.888 -24.176  0.00  0.00    -0.082 C 
ATOM     22  H   UNL     1      33.318 -18.472 -25.084  0.00  0.00    -0.085 HD
ATOM     23  H   UNL     1      34.986 -18.608 -24.938  0.00  0.00    -0.085 HD
ENDBRANCH  10  17
ENDBRANCH   1  13
BRANCH   6  26
ATOM     24  O   UNL     1      37.739 -23.145 -13.244  0.00  0.00    -0.270 OA
ATOM     25  N   UNL     1      38.204 -23.403 -15.474  0.00  0.00    -0.325 N 
ATOM     26  C   UNL     1      37.316 -23.352 -14.399  0.00  0.00    +0.244 C 
ATOM     27  H   UNL     1      39.168 -23.264 -15.325  0.00  0.00    +0.145 HD
ATOM     28  H   UNL     1      37.868 -23.579 -16.383  0.00  0.00    +0.145 HD
ENDBRANCH   6  26
TORSDOF 3
ENDMDL
MODEL 5
REMARK VINA RESULT:     -11.0      1.328      2.198
REMARK  Name = 24958200
REMARK  3 active torsions:
REMARK  status: ('A' for Active; 'I' for Inactive)
REMARK    1  A    between atoms: N_1  and  C_13
REMARK    2  A    between atoms: C_6  and  C_26
REMARK    3  A    between atoms: C_10  and  C_17
REMARK                            x       y       z     vdW  Elec       q    Type
REMARK                         _______ _______ _______ _____ _____    ______ ____
ROOT
ATOM      1  N   UNL     1      33.783 -22.183 -17.568  0.00  0.00    -0.189 N 
ATOM      2  N   UNL     1      32.497 -22.448 -17.266  0.00  0.00    -0.174 NA
ATOM      3  C   UNL     1      33.939 -23.390 -15.786  0.00  0.00    +0.036 C 
ATOM      4  C   UNL     1      34.695 -22.725 -16.711  0.00  0.00    +0.091 C 
ATOM      5  C   UNL     1      32.557 -23.202 -16.154  0.00  0.00    +0.105 C 
ATOM      6  C   UNL     1      31.527 -23.773 -15.384  0.00  0.00    +0.072 C 
ATOM      7  C   UNL     1      34.431 -24.104 -14.701  0.00  0.00    +0.003 C 
ATOM      8  C   UNL     1      31.995 -24.508 -14.273  0.00  0.00    +0.006 C 
ATOM      9  C   UNL     1      33.380 -24.665 -13.949  0.00  0.00    +0.000 C 
ENDROOT
BRANCH   1  13
ATOM     10  C   UNL     1      34.709 -19.867 -20.913  0.00  0.00    -0.024 C 
ATOM     11  C   UNL     1      33.382 -20.006 -20.507  0.00  0.00    -0.003 C 
ATOM     12  C   UNL     1      35.727 -20.502 -20.201  0.00  0.00    -0.003 C 
ATOM     13  C   UNL     1      34.090 -21.416 -18.677  0.00  0.00    +0.074 C 
ATOM     14  C   UNL     1      33.072 -20.780 -19.389  0.00  0.00    +0.016 C 
ATOM     15  C   UNL     1      35.418 -21.276 -19.083  0.00  0.00    +0.016 C 
BRANCH  10  17
ATOM     16  N   UNL     1      34.322 -18.334 -24.401  0.00  0.00    +0.384 N 
ATOM     17  C   UNL     1      35.047 -19.026 -22.131  0.00  0.00    +0.001 C 
ATOM     18  C   UNL     1      35.300 -17.556 -21.757  0.00  0.00    +0.000 C 
ATOM     19  C   UNL     1      33.966 -19.129 -23.223  0.00  0.00    -0.077 C 
ATOM     20  C   UNL     1      35.587 -16.731 -23.009  0.00  0.00    -0.023 C 
ATOM     21  C   UNL     1      34.497 -16.922 -24.061  0.00  0.00    -0.082 C 
ATOM     22  H   UNL     1      33.580 -18.419 -25.095  0.00  0.00    -0.085 HD
ATOM     23  H   UNL     1      35.206 -18.687 -24.770  0.00  0.00    -0.085 HD
ENDBRANCH  10  17
ENDBRANCH   1  13
BRANCH   6  26
ATOM     24  O   UNL     1      29.293 -24.517 -15.421  0.00  0.00    -0.270 OA
ATOM     25  N   UNL     1      29.706 -22.439 -16.298  0.00  0.00    -0.325 N 
ATOM     26  C   UNL     1      30.122 -23.626 -15.694  0.00  0.00    +0.244 C 
ATOM     27  H   UNL     1      28.756 -22.307 -16.522  0.00  0.00    +0.145 HD
ATOM     28  H   UNL     1      30.361 -21.733 -16.500  0.00  0.00    +0.145 HD
ENDBRANCH   6  26
TORSDOF 3
ENDMDL
MODEL 6
REMARK VINA RESULT:     -10.9      4.688      9.127
REMARK  Name = 24958200
REMARK  3 active torsions:
REMARK  status: ('A' for Active; 'I' for Inactive)
REMARK    1  A    between atoms: N_1  and  C_13
REMARK    2  A    between atoms: C_6  and  C_26
REMARK    3  A    between atoms: C_10  and  C_17
REMARK                            x       y       z     vdW  Elec       q    Type
REMARK                         _______ _______ _______ _____ _____    ______ ____
ROOT
ATOM      1  N   UNL     1      34.915 -18.974 -21.367  0.00  0.00    -0.189 N 
ATOM      2  N   UNL     1      34.948 -17.650 -21.124  0.00  0.00    -0.174 NA
ATOM      3  C   UNL     1      34.539 -18.114 -23.310  0.00  0.00    +0.036 C 
ATOM      4  C   UNL     1      34.672 -19.312 -22.666  0.00  0.00    +0.091 C 
ATOM      5  C   UNL     1      34.716 -17.079 -22.320  0.00  0.00    +0.105 C 
ATOM      6  C   UNL     1      34.635 -15.721 -22.681  0.00  0.00    +0.072 C 
ATOM      7  C   UNL     1      34.280 -17.947 -24.664  0.00  0.00    +0.003 C 
ATOM      8  C   UNL     1      34.373 -15.518 -24.054  0.00  0.00    +0.006 C 
ATOM      9  C   UNL     1      34.204 -16.580 -24.997  0.00  0.00    +0.000 C 
ENDROOT
BRANCH   1  13
ATOM     10  C   UNL     1      35.533 -21.683 -18.253  0.00  0.00    -0.024 C 
ATOM     11  C   UNL     1      36.607 -20.959 -18.772  0.00  0.00    -0.003 C 
ATOM     12  C   UNL     1      34.252 -21.500 -18.774  0.00  0.00    -0.003 C 
ATOM     13  C   UNL     1      35.120 -19.872 -20.335  0.00  0.00    +0.074 C 
ATOM     14  C   UNL     1      36.400 -20.055 -19.813  0.00  0.00    +0.016 C 
ATOM     15  C   UNL     1      34.045 -20.595 -19.815  0.00  0.00    +0.016 C 
BRANCH  10  17
ATOM     16  N   UNL     1      37.176 -23.251 -15.170  0.00  0.00    +0.384 N 
ATOM     17  C   UNL     1      35.758 -22.669 -17.121  0.00  0.00    +0.001 C 
ATOM     18  C   UNL     1      34.494 -22.855 -16.267  0.00  0.00    +0.000 C 
ATOM     19  C   UNL     1      36.957 -22.273 -16.238  0.00  0.00    -0.077 C 
ATOM     20  C   UNL     1      34.770 -23.813 -15.111  0.00  0.00    -0.023 C 
ATOM     21  C   UNL     1      35.998 -23.381 -14.313  0.00  0.00    -0.082 C 
ATOM     22  H   UNL     1      37.968 -22.949 -14.602  0.00  0.00    -0.085 HD
ATOM     23  H   UNL     1      37.362 -24.158 -15.599  0.00  0.00    -0.085 HD
ENDBRANCH  10  17
ENDBRANCH   1  13
BRANCH   6  26
ATOM     24  O   UNL     1      34.917 -13.451 -22.122  0.00  0.00    -0.270 OA
ATOM     25  N   UNL     1      34.813 -14.939 -20.381  0.00  0.00    -0.325 N 
ATOM     26  C   UNL     1      34.802 -14.634 -21.742  0.00  0.00    +0.244 C 
ATOM     27  H   UNL     1      34.925 -14.222 -19.715  0.00  0.00    +0.145 HD
ATOM     28  H   UNL     1      34.709 -15.872 -20.085  0.00  0.00    +0.145 HD
ENDBRANCH   6  26
TORSDOF 3
ENDMDL
MODEL 7
REMARK VINA RESULT:     -10.6      7.803     11.871
REMARK  Name = 24958200
REMARK  3 active torsions:
REMARK  status: ('A' for Active; 'I' for Inactive)
REMARK    1  A    between atoms: N_1  and  C_13
REMARK    2  A    between atoms: C_6  and  C_26
REMARK    3  A    between atoms: C_10  and  C_17
REMARK                            x       y       z     vdW  Elec       q    Type
REMARK                         _______ _______ _______ _____ _____    ______ ____
ROOT
ATOM      1  N   UNL     1      33.856 -13.642 -23.180  0.00  0.00    -0.189 N 
ATOM      2  N   UNL     1      34.327 -14.370 -22.149  0.00  0.00    -0.174 NA
ATOM      3  C   UNL     1      34.108 -15.604 -24.043  0.00  0.00    +0.036 C 
ATOM      4  C   UNL     1      33.704 -14.334 -24.346  0.00  0.00    +0.091 C 
ATOM      5  C   UNL     1      34.497 -15.606 -22.654  0.00  0.00    +0.105 C 
ATOM      6  C   UNL     1      34.963 -16.784 -22.042  0.00  0.00    +0.072 C 
ATOM      7  C   UNL     1      34.132 -16.677 -24.924  0.00  0.00    +0.003 C 
ATOM      8  C   UNL     1      35.000 -17.895 -22.913  0.00  0.00    +0.006 C 
ATOM      9  C   UNL     1      34.603 -17.842 -24.287  0.00  0.00    +0.000 C 
ENDROOT
BRANCH   1  13
ATOM     10  C   UNL     1      32.979  -9.597 -22.654  0.00  0.00    -0.024 C 
ATOM     11  C   UNL     1      33.898  -9.991 -23.626  0.00  0.00    -0.003 C 
ATOM     12  C   UNL     1      32.352 -10.556 -21.858  0.00  0.00    -0.003 C 
ATOM     13  C   UNL     1      33.566 -12.302 -23.005  0.00  0.00    +0.074 C 
ATOM     14  C   UNL     1      34.192 -11.343 -23.802  0.00  0.00    +0.016 C 
ATOM     15  C   UNL     1      32.645 -11.908 -22.033  0.00  0.00    +0.016 C 
BRANCH  10  17
ATOM     16  N   UNL     1      30.885  -6.393 -22.530  0.00  0.00    +0.384 N 
ATOM     17  C   UNL     1      32.661  -8.125 -22.462  0.00  0.00    +0.001 C 
ATOM     18  C   UNL     1      33.110  -7.620 -21.081  0.00  0.00    +0.000 C 
ATOM     19  C   UNL     1      31.168  -7.821 -22.692  0.00  0.00    -0.077 C 
ATOM     20  C   UNL     1      32.730  -6.152 -20.903  0.00  0.00    -0.023 C 
ATOM     21  C   UNL     1      31.249  -5.923 -21.193  0.00  0.00    -0.082 C 
ATOM     22  H   UNL     1      29.889  -6.234 -22.678  0.00  0.00    -0.085 HD
ATOM     23  H   UNL     1      31.441  -5.877 -23.213  0.00  0.00    -0.085 HD
ENDBRANCH  10  17
ENDBRANCH   1  13
BRANCH   6  26
ATOM     24  O   UNL     1      36.123 -17.760 -20.240  0.00  0.00    -0.270 OA
ATOM     25  N   UNL     1      34.907 -15.870 -19.785  0.00  0.00    -0.325 N 
ATOM     26  C   UNL     1      35.370 -16.857 -20.656  0.00  0.00    +0.244 C 
ATOM     27  H   UNL     1      35.166 -15.891 -18.834  0.00  0.00    +0.145 HD
ATOM     28  H   UNL     1      34.323 -15.152 -20.120  0.00  0.00    +0.145 HD
ENDBRANCH   6  26
TORSDOF 3
ENDMDL
MODEL 8
REMARK VINA RESULT:     -10.5      2.585      4.157
REMARK  Name = 24958200
REMARK  3 active torsions:
REMARK  status: ('A' for Active; 'I' for Inactive)
REMARK    1  A    between atoms: N_1  and  C_13
REMARK    2  A    between atoms: C_6  and  C_26
REMARK    3  A    between atoms: C_10  and  C_17
REMARK                            x       y       z     vdW  Elec       q    Type
REMARK                         _______ _______ _______ _____ _____    ______ ____
ROOT
ATOM      1  N   UNL     1      35.830 -21.482 -17.849  0.00  0.00    -0.189 N 
ATOM      2  N   UNL     1      34.739 -22.048 -17.297  0.00  0.00    -0.174 NA
ATOM      3  C   UNL     1      36.625 -22.473 -16.104  0.00  0.00    +0.036 C 
ATOM      4  C   UNL     1      36.994 -21.706 -17.173  0.00  0.00    +0.091 C 
ATOM      5  C   UNL     1      35.200 -22.677 -16.201  0.00  0.00    +0.105 C 
ATOM      6  C   UNL     1      34.518 -23.438 -15.233  0.00  0.00    +0.072 C 
ATOM      7  C   UNL     1      37.478 -22.955 -15.120  0.00  0.00    +0.003 C 
ATOM      8  C   UNL     1      35.359 -23.943 -14.218  0.00  0.00    +0.006 C 
ATOM      9  C   UNL     1      36.770 -23.712 -14.166  0.00  0.00    +0.000 C 
ENDROOT
BRANCH   1  13
ATOM     10  C   UNL     1      35.480 -19.257 -21.361  0.00  0.00    -0.024 C 
ATOM     11  C   UNL     1      34.369 -19.922 -20.843  0.00  0.00    -0.003 C 
ATOM     12  C   UNL     1      36.709 -19.335 -20.705  0.00  0.00    -0.003 C 
ATOM     13  C   UNL     1      35.714 -20.746 -19.013  0.00  0.00    +0.074 C 
ATOM     14  C   UNL     1      34.486 -20.666 -19.669  0.00  0.00    +0.016 C 
ATOM     15  C   UNL     1      36.826 -20.079 -19.531  0.00  0.00    +0.016 C 
BRANCH  10  17
ATOM     16  N   UNL     1      33.990 -18.040 -24.672  0.00  0.00    +0.384 N 
ATOM     17  C   UNL     1      35.353 -18.448 -22.640  0.00  0.00    +0.001 C 
ATOM     18  C   UNL     1      35.411 -16.937 -22.367  0.00  0.00    +0.000 C 
ATOM     19  C   UNL     1      34.080 -18.809 -23.429  0.00  0.00    -0.077 C 
ATOM     20  C   UNL     1      35.231 -16.155 -23.666  0.00  0.00    -0.023 C 
ATOM     21  C   UNL     1      33.976 -16.601 -24.413  0.00  0.00    -0.082 C 
ATOM     22  H   UNL     1      33.131 -18.298 -25.159  0.00  0.00    -0.085 HD
ATOM     23  H   UNL     1      34.808 -18.255 -25.242  0.00  0.00    -0.085 HD
ENDBRANCH  10  17
ENDBRANCH   1  13
BRANCH   6  26
ATOM     24  O   UNL     1      32.489 -24.180 -14.297  0.00  0.00    -0.270 OA
ATOM     25  N   UNL     1      32.395 -23.327 -16.423  0.00  0.00    -0.325 N 
ATOM     26  C   UNL     1      33.093 -23.683 -15.268  0.00  0.00    +0.244 C 
ATOM     27  H   UNL     1      31.424 -23.480 -16.479  0.00  0.00    +0.145 HD
ATOM     28  H   UNL     1      32.874 -22.923 -17.182  0.00  0.00    +0.145 HD
ENDBRANCH   6  26
TORSDOF 3
ENDMDL
MODEL 9
REMARK VINA RESULT:     -10.4      8.224     12.451
REMARK  Name = 24958200
REMARK  3 active torsions:
REMARK  status: ('A' for Active; 'I' for Inactive)
REMARK    1  A    between atoms: N_1  and  C_13
REMARK    2  A    between atoms: C_6  and  C_26
REMARK    3  A    between atoms: C_10  and  C_17
REMARK                            x       y       z     vdW  Elec       q    Type
REMARK                         _______ _______ _______ _____ _____    ______ ____
ROOT
ATOM      1  N   UNL     1      33.491 -12.939 -22.955  0.00  0.00    -0.189 N 
ATOM      2  N   UNL     1      33.973 -13.773 -22.014  0.00  0.00    -0.174 NA
ATOM      3  C   UNL     1      33.922 -14.736 -24.071  0.00  0.00    +0.036 C 
ATOM      4  C   UNL     1      33.437 -13.466 -24.213  0.00  0.00    +0.091 C 
ATOM      5  C   UNL     1      34.254 -14.909 -22.678  0.00  0.00    +0.105 C 
ATOM      6  C   UNL     1      34.782 -16.128 -22.214  0.00  0.00    +0.072 C 
ATOM      7  C   UNL     1      34.061 -15.668 -25.091  0.00  0.00    +0.003 C 
ATOM      8  C   UNL     1      34.935 -17.099 -23.229  0.00  0.00    +0.006 C 
ATOM      9  C   UNL     1      34.591 -16.877 -24.600  0.00  0.00    +0.000 C 
ENDROOT
BRANCH   1  13
ATOM     10  C   UNL     1      32.300  -9.078 -21.912  0.00  0.00    -0.024 C 
ATOM     11  C   UNL     1      31.846 -10.172 -21.175  0.00  0.00    -0.003 C 
ATOM     12  C   UNL     1      33.154  -9.275 -22.998  0.00  0.00    -0.003 C 
ATOM     13  C   UNL     1      33.096 -11.660 -22.610  0.00  0.00    +0.074 C 
ATOM     14  C   UNL     1      32.243 -11.462 -21.524  0.00  0.00    +0.016 C 
ATOM     15  C   UNL     1      33.552 -10.566 -23.347  0.00  0.00    +0.016 C 
BRANCH  10  17
ATOM     16  N   UNL     1      32.631  -5.390 -20.937  0.00  0.00    +0.384 N 
ATOM     17  C   UNL     1      31.866  -7.674 -21.533  0.00  0.00    +0.001 C 
ATOM     18  C   UNL     1      30.884  -7.085 -22.558  0.00  0.00    +0.000 C 
ATOM     19  C   UNL     1      33.068  -6.732 -21.329  0.00  0.00    -0.077 C 
ATOM     20  C   UNL     1      30.509  -5.656 -22.173  0.00  0.00    -0.023 C 
ATOM     21  C   UNL     1      31.750  -4.798 -21.943  0.00  0.00    -0.082 C 
ATOM     22  H   UNL     1      33.452  -4.795 -20.822  0.00  0.00    -0.085 HD
ATOM     23  H   UNL     1      32.113  -5.465 -20.061  0.00  0.00    -0.085 HD
ENDBRANCH  10  17
ENDBRANCH   1  13
BRANCH   6  26
ATOM     24  O   UNL     1      35.675 -17.438 -20.472  0.00  0.00    -0.270 OA
ATOM     25  N   UNL     1      34.879 -15.364 -19.903  0.00  0.00    -0.325 N 
ATOM     26  C   UNL     1      35.138 -16.371 -20.833  0.00  0.00    +0.244 C 
ATOM     27  H   UNL     1      35.109 -15.498 -18.955  0.00  0.00    +0.145 HD
ATOM     28  H   UNL     1      34.467 -14.519 -20.195  0.00  0.00    +0.145 HD
ENDBRANCH   6  26
TORSDOF 3
ENDMDL
