MODEL 1
REMARK VINA RESULT:     -12.1      0.000      0.000
REMARK  Name = 5289109
REMARK  6 active torsions:
REMARK  status: ('A' for Active; 'I' for Inactive)
REMARK    1  A    between atoms: C_3  and  C_9
REMARK    2  A    between atoms: C_4  and  C_21
REMARK    3  A    between atoms: N_8  and  C_11
REMARK    4  A    between atoms: C_11  and  C_12
REMARK    5  A    between atoms: N_20  and  C_23
REMARK    6  A    between atoms: C_23  and  C_24
REMARK                            x       y       z     vdW  Elec       q    Type
REMARK                         _______ _______ _______ _____ _____    ______ ____
ROOT
ATOM      1  N   UNL     1      33.483 -15.547 -25.345  0.00  0.00    -0.244 NA
ATOM      2  N   UNL     1      34.499 -17.301 -24.042  0.00  0.00    -0.244 NA
ATOM      3  C   UNL     1      33.814 -14.679 -24.366  0.00  0.00    +0.115 C 
ATOM      4  C   UNL     1      34.782 -16.369 -23.130  0.00  0.00    +0.115 C 
ATOM      5  C   UNL     1      34.477 -15.043 -23.211  0.00  0.00    +0.100 C 
ATOM      6  C   UNL     1      33.851 -16.823 -25.121  0.00  0.00    +0.250 C 
ENDROOT
BRANCH   3   9
ATOM      7  O   UNL     1      32.848 -12.962 -25.637  0.00  0.00    -0.269 OA
ATOM      8  N   UNL     1      33.713 -12.384 -23.564  0.00  0.00    -0.296 N 
ATOM      9  C   UNL     1      33.426 -13.297 -24.587  0.00  0.00    +0.260 C 
ATOM     10  H   UNL     1      34.173 -12.715 -22.760  0.00  0.00    +0.150 HD
BRANCH   8  11
ATOM     11  C   UNL     1      33.369 -10.981 -23.625  0.00  0.00    +0.117 C 
BRANCH  11  12
ATOM     12  C   UNL     1      32.684 -10.516 -22.373  0.00  0.00    -0.003 C 
ATOM     13  C   UNL     1      32.569  -9.156 -22.117  0.00  0.00    -0.007 C 
ATOM     14  C   UNL     1      31.929  -8.723 -20.955  0.00  0.00    -0.022 C 
ATOM     15  C   UNL     1      32.169 -11.452 -21.482  0.00  0.00    -0.003 C 
ATOM     16  C   UNL     1      31.411  -9.655 -20.056  0.00  0.00    -0.004 C 
ATOM     17  C   UNL     1      31.531 -11.020 -20.320  0.00  0.00    -0.001 C 
ATOM     18  C   UNL     1      31.802  -7.264 -20.672  0.00  0.00    +0.031 C 
ENDBRANCH  11  12
ENDBRANCH   8  11
ENDBRANCH   3   9
BRANCH   4  21
ATOM     19  O   UNL     1      35.379 -16.278 -20.864  0.00  0.00    -0.269 OA
ATOM     20  N   UNL     1      36.242 -18.033 -22.110  0.00  0.00    -0.296 N 
ATOM     21  C   UNL     1      35.496 -16.877 -21.930  0.00  0.00    +0.260 C 
ATOM     22  H   UNL     1      36.275 -18.441 -23.006  0.00  0.00    +0.150 HD
BRANCH  20  23
ATOM     23  C   UNL     1      36.970 -18.661 -21.037  0.00  0.00    +0.117 C 
BRANCH  23  24
ATOM     24  C   UNL     1      36.146 -19.666 -20.304  0.00  0.00    -0.003 C 
ATOM     25  C   UNL     1      34.757 -19.653 -20.432  0.00  0.00    -0.007 C 
ATOM     26  C   UNL     1      33.985 -20.593 -19.747  0.00  0.00    -0.022 C 
ATOM     27  C   UNL     1      36.763 -20.617 -19.493  0.00  0.00    -0.003 C 
ATOM     28  C   UNL     1      34.604 -21.544 -18.936  0.00  0.00    -0.004 C 
ATOM     29  C   UNL     1      35.992 -21.557 -18.809  0.00  0.00    -0.001 C 
ATOM     30  C   UNL     1      32.500 -20.580 -19.882  0.00  0.00    +0.031 C 
ENDBRANCH  23  24
ENDBRANCH  20  23
ENDBRANCH   4  21
TORSDOF 6
ENDMDL
MODEL 2
REMARK VINA RESULT:     -12.1      0.038      8.996
REMARK  Name = 5289109
REMARK  6 active torsions:
REMARK  status: ('A' for Active; 'I' for Inactive)
REMARK    1  A    between atoms: C_3  and  C_9
REMARK    2  A    between atoms: C_4  and  C_21
REMARK    3  A    between atoms: N_8  and  C_11
REMARK    4  A    between atoms: C_11  and  C_12
REMARK    5  A    between atoms: N_20  and  C_23
REMARK    6  A    between atoms: C_23  and  C_24
REMARK                            x       y       z     vdW  Elec       q    Type
REMARK                         _______ _______ _______ _____ _____    ______ ____
ROOT
ATOM      1  N   UNL     1      34.477 -17.259 -24.047  0.00  0.00    -0.244 NA
ATOM      2  N   UNL     1      33.471 -15.492 -25.340  0.00  0.00    -0.244 NA
ATOM      3  C   UNL     1      34.790 -16.343 -23.107  0.00  0.00    +0.115 C 
ATOM      4  C   UNL     1      33.824 -14.661 -24.357  0.00  0.00    +0.115 C 
ATOM      5  C   UNL     1      34.483 -15.001 -23.212  0.00  0.00    +0.100 C 
ATOM      6  C   UNL     1      33.826 -16.772 -25.120  0.00  0.00    +0.250 C 
ENDROOT
BRANCH   3   9
ATOM      7  O   UNL     1      35.401 -16.264 -20.845  0.00  0.00    -0.269 OA
ATOM      8  N   UNL     1      36.244 -18.018 -22.106  0.00  0.00    -0.296 N 
ATOM      9  C   UNL     1      35.492 -16.847 -21.940  0.00  0.00    +0.260 C 
ATOM     10  H   UNL     1      36.274 -18.429 -23.000  0.00  0.00    +0.150 HD
BRANCH   8  11
ATOM     11  C   UNL     1      36.977 -18.656 -21.036  0.00  0.00    +0.117 C 
BRANCH  11  12
ATOM     12  C   UNL     1      36.141 -19.666 -20.306  0.00  0.00    -0.003 C 
ATOM     13  C   UNL     1      34.759 -19.639 -20.439  0.00  0.00    -0.007 C 
ATOM     14  C   UNL     1      33.982 -20.580 -19.762  0.00  0.00    -0.022 C 
ATOM     15  C   UNL     1      36.759 -20.619 -19.504  0.00  0.00    -0.003 C 
ATOM     16  C   UNL     1      34.593 -21.539 -18.955  0.00  0.00    -0.004 C 
ATOM     17  C   UNL     1      35.982 -21.559 -18.826  0.00  0.00    -0.001 C 
ATOM     18  C   UNL     1      32.496 -20.558 -19.898  0.00  0.00    +0.031 C 
ENDBRANCH  11  12
ENDBRANCH   8  11
ENDBRANCH   3   9
BRANCH   4  21
ATOM     19  O   UNL     1      32.912 -12.924 -25.641  0.00  0.00    -0.269 OA
ATOM     20  N   UNL     1      33.699 -12.372 -23.530  0.00  0.00    -0.296 N 
ATOM     21  C   UNL     1      33.442 -13.244 -24.579  0.00  0.00    +0.260 C 
ATOM     22  H   UNL     1      34.129 -12.724 -22.717  0.00  0.00    +0.150 HD
BRANCH  20  23
ATOM     23  C   UNL     1      33.363 -10.972 -23.584  0.00  0.00    +0.117 C 
BRANCH  23  24
ATOM     24  C   UNL     1      32.678 -10.505 -22.344  0.00  0.00    -0.003 C 
ATOM     25  C   UNL     1      32.567  -9.140 -22.081  0.00  0.00    -0.007 C 
ATOM     26  C   UNL     1      31.925  -8.703 -20.921  0.00  0.00    -0.022 C 
ATOM     27  C   UNL     1      32.147 -11.433 -21.449  0.00  0.00    -0.003 C 
ATOM     28  C   UNL     1      31.395  -9.632 -20.027  0.00  0.00    -0.004 C 
ATOM     29  C   UNL     1      31.505 -10.997 -20.290  0.00  0.00    -0.001 C 
ATOM     30  C   UNL     1      31.808  -7.243 -20.639  0.00  0.00    +0.031 C 
ENDBRANCH  23  24
ENDBRANCH  20  23
ENDBRANCH   4  21
TORSDOF 6
ENDMDL
MODEL 3
REMARK VINA RESULT:     -11.8      7.080     12.017
REMARK  Name = 5289109
REMARK  6 active torsions:
REMARK  status: ('A' for Active; 'I' for Inactive)
REMARK    1  A    between atoms: C_3  and  C_9
REMARK    2  A    between atoms: C_4  and  C_21
REMARK    3  A    between atoms: N_8  and  C_11
REMARK    4  A    between atoms: C_11  and  C_12
REMARK    5  A    between atoms: N_20  and  C_23
REMARK    6  A    between atoms: C_23  and  C_24
REMARK                            x       y       z     vdW  Elec       q    Type
REMARK                         _______ _______ _______ _____ _____    ______ ____
ROOT
ATOM      1  N   UNL     1      36.524 -24.470 -13.215  0.00  0.00    -0.244 NA
ATOM      2  N   UNL     1      37.930 -23.475 -14.899  0.00  0.00    -0.244 NA
ATOM      3  C   UNL     1      35.529 -23.652 -13.615  0.00  0.00    +0.115 C 
ATOM      4  C   UNL     1      36.887 -22.709 -15.224  0.00  0.00    +0.115 C 
ATOM      5  C   UNL     1      35.657 -22.731 -14.636  0.00  0.00    +0.100 C 
ATOM      6  C   UNL     1      37.680 -24.331 -13.891  0.00  0.00    +0.250 C 
ENDROOT
BRANCH   3   9
ATOM      7  O   UNL     1      34.179 -24.549 -11.921  0.00  0.00    -0.269 OA
ATOM      8  N   UNL     1      33.198 -23.007 -13.348  0.00  0.00    -0.296 N 
ATOM      9  C   UNL     1      34.272 -23.786 -12.899  0.00  0.00    +0.260 C 
ATOM     10  H   UNL     1      33.339 -22.424 -14.129  0.00  0.00    +0.150 HD
BRANCH   8  11
ATOM     11  C   UNL     1      31.893 -23.011 -12.727  0.00  0.00    +0.117 C 
BRANCH  11  12
ATOM     12  C   UNL     1      30.851 -23.633 -13.611  0.00  0.00    -0.003 C 
ATOM     13  C   UNL     1      30.036 -22.820 -14.389  0.00  0.00    -0.007 C 
ATOM     14  C   UNL     1      29.070 -23.399 -15.213  0.00  0.00    -0.022 C 
ATOM     15  C   UNL     1      30.714 -25.016 -13.643  0.00  0.00    -0.003 C 
ATOM     16  C   UNL     1      28.925 -24.786 -15.251  0.00  0.00    -0.004 C 
ATOM     17  C   UNL     1      29.748 -25.594 -14.466  0.00  0.00    -0.001 C 
ATOM     18  C   UNL     1      28.189 -22.534 -16.051  0.00  0.00    +0.031 C 
ENDBRANCH  11  12
ENDBRANCH   8  11
ENDBRANCH   3   9
BRANCH   4  21
ATOM     19  O   UNL     1      37.838 -20.765 -16.128  0.00  0.00    -0.269 OA
ATOM     20  N   UNL     1      36.577 -22.085 -17.559  0.00  0.00    -0.296 N 
ATOM     21  C   UNL     1      37.142 -21.756 -16.334  0.00  0.00    +0.260 C 
ATOM     22  H   UNL     1      36.033 -22.903 -17.625  0.00  0.00    +0.150 HD
BRANCH  20  23
ATOM     23  C   UNL     1      36.754 -21.274 -18.737  0.00  0.00    +0.117 C 
BRANCH  23  24
ATOM     24  C   UNL     1      35.455 -20.888 -19.361  0.00  0.00    -0.003 C 
ATOM     25  C   UNL     1      35.441 -20.072 -20.491  0.00  0.00    -0.007 C 
ATOM     26  C   UNL     1      34.225 -19.711 -21.076  0.00  0.00    -0.022 C 
ATOM     27  C   UNL     1      34.256 -21.343 -18.813  0.00  0.00    -0.003 C 
ATOM     28  C   UNL     1      33.027 -20.166 -20.528  0.00  0.00    -0.004 C 
ATOM     29  C   UNL     1      33.041 -20.982 -19.397  0.00  0.00    -0.001 C 
ATOM     30  C   UNL     1      34.209 -18.837 -22.284  0.00  0.00    +0.031 C 
ENDBRANCH  23  24
ENDBRANCH  20  23
ENDBRANCH   4  21
TORSDOF 6
ENDMDL
MODEL 4
REMARK VINA RESULT:     -11.8      1.744      9.348
REMARK  Name = 5289109
REMARK  6 active torsions:
REMARK  status: ('A' for Active; 'I' for Inactive)
REMARK    1  A    between atoms: C_3  and  C_9
REMARK    2  A    between atoms: C_4  and  C_21
REMARK    3  A    between atoms: N_8  and  C_11
REMARK    4  A    between atoms: C_11  and  C_12
REMARK    5  A    between atoms: N_20  and  C_23
REMARK    6  A    between atoms: C_23  and  C_24
REMARK                            x       y       z     vdW  Elec       q    Type
REMARK                         _______ _______ _______ _____ _____    ______ ____
ROOT
ATOM      1  N   UNL     1      34.756 -19.477 -23.076  0.00  0.00    -0.244 NA
ATOM      2  N   UNL     1      34.002 -17.900 -24.734  0.00  0.00    -0.244 NA
ATOM      3  C   UNL     1      35.175 -18.435 -22.328  0.00  0.00    +0.115 C 
ATOM      4  C   UNL     1      34.448 -16.937 -23.925  0.00  0.00    +0.115 C 
ATOM      5  C   UNL     1      35.045 -17.115 -22.712  0.00  0.00    +0.100 C 
ATOM      6  C   UNL     1      34.187 -19.142 -24.249  0.00  0.00    +0.250 C 
ENDROOT
BRANCH   3   9
ATOM      7  O   UNL     1      36.234 -17.883 -20.310  0.00  0.00    -0.269 OA
ATOM      8  N   UNL     1      35.839 -20.132 -20.715  0.00  0.00    -0.296 N 
ATOM      9  C   UNL     1      35.792 -18.774 -21.057  0.00  0.00    +0.260 C 
ATOM     10  H   UNL     1      35.471 -20.786 -21.352  0.00  0.00    +0.150 HD
BRANCH   8  11
ATOM     11  C   UNL     1      36.398 -20.625 -19.477  0.00  0.00    +0.117 C 
BRANCH  11  12
ATOM     12  C   UNL     1      35.388 -21.387 -18.669  0.00  0.00    -0.003 C 
ATOM     13  C   UNL     1      35.773 -21.986 -17.476  0.00  0.00    -0.007 C 
ATOM     14  C   UNL     1      34.834 -22.692 -16.724  0.00  0.00    -0.022 C 
ATOM     15  C   UNL     1      34.077 -21.486 -19.122  0.00  0.00    -0.003 C 
ATOM     16  C   UNL     1      33.517 -22.797 -17.171  0.00  0.00    -0.004 C 
ATOM     17  C   UNL     1      33.139 -22.192 -18.371  0.00  0.00    -0.001 C 
ATOM     18  C   UNL     1      35.239 -23.340 -15.442  0.00  0.00    +0.031 C 
ENDBRANCH  11  12
ENDBRANCH   8  11
ENDBRANCH   3   9
BRANCH   4  21
ATOM     19  O   UNL     1      34.264 -15.364 -25.655  0.00  0.00    -0.269 OA
ATOM     20  N   UNL     1      34.050 -14.573 -23.485  0.00  0.00    -0.296 N 
ATOM     21  C   UNL     1      34.255 -15.558 -24.442  0.00  0.00    +0.260 C 
ATOM     22  H   UNL     1      34.060 -14.827 -22.534  0.00  0.00    +0.150 HD
BRANCH  20  23
ATOM     23  C   UNL     1      33.823 -13.192 -23.830  0.00  0.00    +0.117 C 
BRANCH  23  24
ATOM     24  C   UNL     1      33.113 -12.448 -22.750  0.00  0.00    -0.003 C 
ATOM     25  C   UNL     1      32.977 -11.063 -22.832  0.00  0.00    -0.007 C 
ATOM     26  C   UNL     1      32.312 -10.365 -21.822  0.00  0.00    -0.022 C 
ATOM     27  C   UNL     1      32.584 -13.137 -21.658  0.00  0.00    -0.003 C 
ATOM     28  C   UNL     1      31.784 -11.055 -20.731  0.00  0.00    -0.004 C 
ATOM     29  C   UNL     1      31.920 -12.441 -20.649  0.00  0.00    -0.001 C 
ATOM     30  C   UNL     1      32.166  -8.884 -21.909  0.00  0.00    +0.031 C 
ENDBRANCH  23  24
ENDBRANCH  20  23
ENDBRANCH   4  21
TORSDOF 6
ENDMDL
MODEL 5
REMARK VINA RESULT:     -11.7      1.711      2.570
REMARK  Name = 5289109
REMARK  6 active torsions:
REMARK  status: ('A' for Active; 'I' for Inactive)
REMARK    1  A    between atoms: C_3  and  C_9
REMARK    2  A    between atoms: C_4  and  C_21
REMARK    3  A    between atoms: N_8  and  C_11
REMARK    4  A    between atoms: C_11  and  C_12
REMARK    5  A    between atoms: N_20  and  C_23
REMARK    6  A    between atoms: C_23  and  C_24
REMARK                            x       y       z     vdW  Elec       q    Type
REMARK                         _______ _______ _______ _____ _____    ______ ____
ROOT
ATOM      1  N   UNL     1      34.000 -17.700 -24.658  0.00  0.00    -0.244 NA
ATOM      2  N   UNL     1      34.776 -19.350 -23.084  0.00  0.00    -0.244 NA
ATOM      3  C   UNL     1      34.404 -16.742 -23.797  0.00  0.00    +0.115 C 
ATOM      4  C   UNL     1      35.143 -18.334 -22.300  0.00  0.00    +0.115 C 
ATOM      5  C   UNL     1      34.994 -17.007 -22.577  0.00  0.00    +0.100 C 
ATOM      6  C   UNL     1      34.214 -18.963 -24.244  0.00  0.00    +0.250 C 
ENDROOT
BRANCH   3   9
ATOM      7  O   UNL     1      34.045 -15.099 -25.431  0.00  0.00    -0.269 OA
ATOM      8  N   UNL     1      34.111 -14.396 -23.222  0.00  0.00    -0.296 N 
ATOM      9  C   UNL     1      34.183 -15.372 -24.225  0.00  0.00    +0.260 C 
ATOM     10  H   UNL     1      34.230 -14.680 -22.287  0.00  0.00    +0.150 HD
BRANCH   8  11
ATOM     11  C   UNL     1      33.873 -12.995 -23.485  0.00  0.00    +0.117 C 
BRANCH  11  12
ATOM     12  C   UNL     1      33.073 -12.346 -22.392  0.00  0.00    -0.003 C 
ATOM     13  C   UNL     1      32.729 -11.005 -22.497  0.00  0.00    -0.007 C 
ATOM     14  C   UNL     1      31.984 -10.402 -21.483  0.00  0.00    -0.022 C 
ATOM     15  C   UNL     1      32.685 -13.095 -21.287  0.00  0.00    -0.003 C 
ATOM     16  C   UNL     1      31.590 -11.146 -20.370  0.00  0.00    -0.004 C 
ATOM     17  C   UNL     1      31.940 -12.493 -20.273  0.00  0.00    -0.001 C 
ATOM     18  C   UNL     1      31.610  -8.962 -21.586  0.00  0.00    +0.031 C 
ENDBRANCH  11  12
ENDBRANCH   8  11
ENDBRANCH   3   9
BRANCH   4  21
ATOM     19  O   UNL     1      36.228 -17.877 -20.272  0.00  0.00    -0.269 OA
ATOM     20  N   UNL     1      35.754 -20.100 -20.734  0.00  0.00    -0.296 N 
ATOM     21  C   UNL     1      35.765 -18.740 -21.014  0.00  0.00    +0.260 C 
ATOM     22  H   UNL     1      35.359 -20.715 -21.394  0.00  0.00    +0.150 HD
BRANCH  20  23
ATOM     23  C   UNL     1      36.297 -20.646 -19.516  0.00  0.00    +0.117 C 
BRANCH  23  24
ATOM     24  C   UNL     1      35.272 -21.378 -18.717  0.00  0.00    -0.003 C 
ATOM     25  C   UNL     1      35.638 -22.019 -17.535  0.00  0.00    -0.007 C 
ATOM     26  C   UNL     1      34.679 -22.704 -16.786  0.00  0.00    -0.022 C 
ATOM     27  C   UNL     1      33.947 -21.421 -19.152  0.00  0.00    -0.003 C 
ATOM     28  C   UNL     1      33.355 -22.746 -17.222  0.00  0.00    -0.004 C 
ATOM     29  C   UNL     1      32.989 -22.105 -18.405  0.00  0.00    -0.001 C 
ATOM     30  C   UNL     1      35.071 -23.391 -15.521  0.00  0.00    +0.031 C 
ENDBRANCH  23  24
ENDBRANCH  20  23
ENDBRANCH   4  21
TORSDOF 6
ENDMDL
MODEL 6
REMARK VINA RESULT:     -11.6      0.366      1.322
REMARK  Name = 5289109
REMARK  6 active torsions:
REMARK  status: ('A' for Active; 'I' for Inactive)
REMARK    1  A    between atoms: C_3  and  C_9
REMARK    2  A    between atoms: C_4  and  C_21
REMARK    3  A    between atoms: N_8  and  C_11
REMARK    4  A    between atoms: C_11  and  C_12
REMARK    5  A    between atoms: N_20  and  C_23
REMARK    6  A    between atoms: C_23  and  C_24
REMARK                            x       y       z     vdW  Elec       q    Type
REMARK                         _______ _______ _______ _____ _____    ______ ____
ROOT
ATOM      1  N   UNL     1      33.473 -15.645 -25.348  0.00  0.00    -0.244 NA
ATOM      2  N   UNL     1      34.500 -17.393 -24.046  0.00  0.00    -0.244 NA
ATOM      3  C   UNL     1      33.824 -14.771 -24.382  0.00  0.00    +0.115 C 
ATOM      4  C   UNL     1      34.803 -16.455 -23.147  0.00  0.00    +0.115 C 
ATOM      5  C   UNL     1      34.503 -15.127 -23.235  0.00  0.00    +0.100 C 
ATOM      6  C   UNL     1      33.838 -16.921 -25.119  0.00  0.00    +0.250 C 
ENDROOT
BRANCH   3   9
ATOM      7  O   UNL     1      32.785 -13.071 -25.619  0.00  0.00    -0.269 OA
ATOM      8  N   UNL     1      33.820 -12.454 -23.638  0.00  0.00    -0.296 N 
ATOM      9  C   UNL     1      33.440 -13.388 -24.610  0.00  0.00    +0.260 C 
ATOM     10  H   UNL     1      34.338 -12.772 -22.864  0.00  0.00    +0.150 HD
BRANCH   8  11
ATOM     11  C   UNL     1      33.493 -11.048 -23.709  0.00  0.00    +0.117 C 
BRANCH  11  12
ATOM     12  C   UNL     1      32.752 -10.581 -22.490  0.00  0.00    -0.003 C 
ATOM     13  C   UNL     1      32.618  -9.220 -22.247  0.00  0.00    -0.007 C 
ATOM     14  C   UNL     1      31.927  -8.785 -21.115  0.00  0.00    -0.022 C 
ATOM     15  C   UNL     1      32.206 -11.515 -21.617  0.00  0.00    -0.003 C 
ATOM     16  C   UNL     1      31.377  -9.716 -20.234  0.00  0.00    -0.004 C 
ATOM     17  C   UNL     1      31.516 -11.081 -20.486  0.00  0.00    -0.001 C 
ATOM     18  C   UNL     1      31.780  -7.326 -20.845  0.00  0.00    +0.031 C 
ENDBRANCH  11  12
ENDBRANCH   8  11
ENDBRANCH   3   9
BRANCH   4  21
ATOM     19  O   UNL     1      35.394 -16.378 -20.879  0.00  0.00    -0.269 OA
ATOM     20  N   UNL     1      36.319 -18.082 -22.151  0.00  0.00    -0.296 N 
ATOM     21  C   UNL     1      35.533 -16.955 -21.954  0.00  0.00    +0.260 C 
ATOM     22  H   UNL     1      36.366 -18.474 -23.053  0.00  0.00    +0.150 HD
BRANCH  20  23
ATOM     23  C   UNL     1      37.068 -18.701 -21.086  0.00  0.00    +0.117 C 
BRANCH  23  24
ATOM     24  C   UNL     1      36.248 -19.674 -20.308  0.00  0.00    -0.003 C 
ATOM     25  C   UNL     1      36.813 -20.355 -19.230  0.00  0.00    -0.007 C 
ATOM     26  C   UNL     1      36.046 -21.266 -18.501  0.00  0.00    -0.022 C 
ATOM     27  C   UNL     1      34.917 -19.902 -20.656  0.00  0.00    -0.003 C 
ATOM     28  C   UNL     1      34.715 -21.492 -18.850  0.00  0.00    -0.004 C 
ATOM     29  C   UNL     1      34.150 -20.811 -19.928  0.00  0.00    -0.001 C 
ATOM     30  C   UNL     1      36.650 -21.995 -17.349  0.00  0.00    +0.031 C 
ENDBRANCH  23  24
ENDBRANCH  20  23
ENDBRANCH   4  21
TORSDOF 6
ENDMDL
MODEL 7
REMARK VINA RESULT:     -11.5      3.145      9.918
REMARK  Name = 5289109
REMARK  6 active torsions:
REMARK  status: ('A' for Active; 'I' for Inactive)
REMARK    1  A    between atoms: C_3  and  C_9
REMARK    2  A    between atoms: C_4  and  C_21
REMARK    3  A    between atoms: N_8  and  C_11
REMARK    4  A    between atoms: C_11  and  C_12
REMARK    5  A    between atoms: N_20  and  C_23
REMARK    6  A    between atoms: C_23  and  C_24
REMARK                            x       y       z     vdW  Elec       q    Type
REMARK                         _______ _______ _______ _____ _____    ______ ____
ROOT
ATOM      1  N   UNL     1      36.004 -20.272 -19.554  0.00  0.00    -0.244 NA
ATOM      2  N   UNL     1      36.639 -18.541 -21.106  0.00  0.00    -0.244 NA
ATOM      3  C   UNL     1      34.760 -20.232 -20.076  0.00  0.00    +0.115 C 
ATOM      4  C   UNL     1      35.382 -18.575 -21.555  0.00  0.00    +0.115 C 
ATOM      5  C   UNL     1      34.384 -19.384 -21.099  0.00  0.00    +0.100 C 
ATOM      6  C   UNL     1      36.880 -19.413 -20.109  0.00  0.00    +0.250 C 
ENDROOT
BRANCH   3   9
ATOM      7  O   UNL     1      32.576 -20.958 -19.625  0.00  0.00    -0.269 OA
ATOM      8  N   UNL     1      34.313 -22.259 -18.807  0.00  0.00    -0.296 N 
ATOM      9  C   UNL     1      33.798 -21.151 -19.493  0.00  0.00    +0.260 C 
ATOM     10  H   UNL     1      35.290 -22.352 -18.739  0.00  0.00    +0.150 HD
BRANCH   8  11
ATOM     11  C   UNL     1      33.486 -23.274 -18.193  0.00  0.00    +0.117 C 
BRANCH  11  12
ATOM     12  C   UNL     1      33.506 -23.183 -16.695  0.00  0.00    -0.003 C 
ATOM     13  C   UNL     1      32.311 -23.239 -15.987  0.00  0.00    -0.007 C 
ATOM     14  C   UNL     1      32.329 -23.157 -14.595  0.00  0.00    -0.022 C 
ATOM     15  C   UNL     1      34.719 -23.046 -16.030  0.00  0.00    -0.003 C 
ATOM     16  C   UNL     1      33.542 -23.019 -13.920  0.00  0.00    -0.004 C 
ATOM     17  C   UNL     1      34.737 -22.964 -14.638  0.00  0.00    -0.001 C 
ATOM     18  C   UNL     1      31.051 -23.215 -13.827  0.00  0.00    +0.031 C 
ENDBRANCH  11  12
ENDBRANCH   8  11
ENDBRANCH   3   9
BRANCH   4  21
ATOM     19  O   UNL     1      34.511 -18.019 -23.660  0.00  0.00    -0.269 OA
ATOM     20  N   UNL     1      35.500 -16.309 -22.445  0.00  0.00    -0.296 N 
ATOM     21  C   UNL     1      35.095 -17.620 -22.656  0.00  0.00    +0.260 C 
ATOM     22  H   UNL     1      35.962 -16.086 -21.605  0.00  0.00    +0.150 HD
BRANCH  20  23
ATOM     23  C   UNL     1      35.270 -15.261 -23.408  0.00  0.00    +0.117 C 
BRANCH  23  24
ATOM     24  C   UNL     1      34.376 -14.191 -22.878  0.00  0.00    -0.003 C 
ATOM     25  C   UNL     1      33.729 -14.366 -21.655  0.00  0.00    -0.007 C 
ATOM     26  C   UNL     1      32.892 -13.365 -21.158  0.00  0.00    -0.022 C 
ATOM     27  C   UNL     1      34.188 -13.016 -23.604  0.00  0.00    -0.003 C 
ATOM     28  C   UNL     1      32.705 -12.190 -21.885  0.00  0.00    -0.004 C 
ATOM     29  C   UNL     1      33.353 -12.015 -23.108  0.00  0.00    -0.001 C 
ATOM     30  C   UNL     1      32.199 -13.552 -19.851  0.00  0.00    +0.031 C 
ENDBRANCH  23  24
ENDBRANCH  20  23
ENDBRANCH   4  21
TORSDOF 6
ENDMDL
MODEL 8
REMARK VINA RESULT:     -11.5      3.163      5.298
REMARK  Name = 5289109
REMARK  6 active torsions:
REMARK  status: ('A' for Active; 'I' for Inactive)
REMARK    1  A    between atoms: C_3  and  C_9
REMARK    2  A    between atoms: C_4  and  C_21
REMARK    3  A    between atoms: N_8  and  C_11
REMARK    4  A    between atoms: C_11  and  C_12
REMARK    5  A    between atoms: N_20  and  C_23
REMARK    6  A    between atoms: C_23  and  C_24
REMARK                            x       y       z     vdW  Elec       q    Type
REMARK                         _______ _______ _______ _____ _____    ______ ____
ROOT
ATOM      1  N   UNL     1      36.656 -18.581 -21.069  0.00  0.00    -0.244 NA
ATOM      2  N   UNL     1      35.983 -20.304 -19.526  0.00  0.00    -0.244 NA
ATOM      3  C   UNL     1      35.395 -18.571 -21.550  0.00  0.00    +0.115 C 
ATOM      4  C   UNL     1      34.766 -20.222 -20.066  0.00  0.00    +0.115 C 
ATOM      5  C   UNL     1      34.387 -19.388 -21.077  0.00  0.00    +0.100 C 
ATOM      6  C   UNL     1      36.876 -19.459 -20.072  0.00  0.00    +0.250 C 
ENDROOT
BRANCH   3   9
ATOM      7  O   UNL     1      34.592 -18.009 -23.680  0.00  0.00    -0.269 OA
ATOM      8  N   UNL     1      35.502 -16.296 -22.408  0.00  0.00    -0.296 N 
ATOM      9  C   UNL     1      35.135 -17.631 -22.626  0.00  0.00    +0.260 C 
ATOM     10  H   UNL     1      35.928 -16.065 -21.552  0.00  0.00    +0.150 HD
BRANCH   8  11
ATOM     11  C   UNL     1      35.287 -15.241 -23.371  0.00  0.00    +0.117 C 
BRANCH  11  12
ATOM     12  C   UNL     1      34.368 -14.177 -22.844  0.00  0.00    -0.003 C 
ATOM     13  C   UNL     1      33.731 -14.363 -21.624  0.00  0.00    -0.007 C 
ATOM     14  C   UNL     1      32.879 -13.373 -21.133  0.00  0.00    -0.022 C 
ATOM     15  C   UNL     1      34.165 -13.016 -23.582  0.00  0.00    -0.003 C 
ATOM     16  C   UNL     1      32.669 -12.206 -21.867  0.00  0.00    -0.004 C 
ATOM     17  C   UNL     1      33.313 -12.027 -23.091  0.00  0.00    -0.001 C 
ATOM     18  C   UNL     1      32.188 -13.565 -19.824  0.00  0.00    +0.031 C 
ENDBRANCH  11  12
ENDBRANCH   8  11
ENDBRANCH   3   9
BRANCH   4  21
ATOM     19  O   UNL     1      32.568 -20.936 -19.664  0.00  0.00    -0.269 OA
ATOM     20  N   UNL     1      34.276 -22.222 -18.763  0.00  0.00    -0.296 N 
ATOM     21  C   UNL     1      33.764 -21.147 -19.478  0.00  0.00    +0.260 C 
ATOM     22  H   UNL     1      35.252 -22.306 -18.668  0.00  0.00    +0.150 HD
BRANCH  20  23
ATOM     23  C   UNL     1      33.433 -23.219 -18.154  0.00  0.00    +0.117 C 
BRANCH  23  24
ATOM     24  C   UNL     1      33.474 -23.163 -16.664  0.00  0.00    -0.003 C 
ATOM     25  C   UNL     1      32.288 -23.212 -15.932  0.00  0.00    -0.007 C 
ATOM     26  C   UNL     1      32.325 -23.160 -14.537  0.00  0.00    -0.022 C 
ATOM     27  C   UNL     1      34.697 -23.061 -16.002  0.00  0.00    -0.003 C 
ATOM     28  C   UNL     1      33.550 -23.059 -13.877  0.00  0.00    -0.004 C 
ATOM     29  C   UNL     1      34.736 -23.010 -14.609  0.00  0.00    -0.001 C 
ATOM     30  C   UNL     1      31.057 -23.212 -13.754  0.00  0.00    +0.031 C 
ENDBRANCH  23  24
ENDBRANCH  20  23
ENDBRANCH   4  21
TORSDOF 6
ENDMDL
MODEL 9
REMARK VINA RESULT:     -11.5      1.748      3.295
REMARK  Name = 5289109
REMARK  6 active torsions:
REMARK  status: ('A' for Active; 'I' for Inactive)
REMARK    1  A    between atoms: C_3  and  C_9
REMARK    2  A    between atoms: C_4  and  C_21
REMARK    3  A    between atoms: N_8  and  C_11
REMARK    4  A    between atoms: C_11  and  C_12
REMARK    5  A    between atoms: N_20  and  C_23
REMARK    6  A    between atoms: C_23  and  C_24
REMARK                            x       y       z     vdW  Elec       q    Type
REMARK                         _______ _______ _______ _____ _____    ______ ____
ROOT
ATOM      1  N   UNL     1      33.311 -11.880 -24.087  0.00  0.00    -0.244 NA
ATOM      2  N   UNL     1      33.782 -13.815 -25.442  0.00  0.00    -0.244 NA
ATOM      3  C   UNL     1      33.088 -12.710 -23.046  0.00  0.00    +0.115 C 
ATOM      4  C   UNL     1      33.542 -14.553 -24.357  0.00  0.00    +0.115 C 
ATOM      5  C   UNL     1      33.191 -14.084 -23.125  0.00  0.00    +0.100 C 
ATOM      6  C   UNL     1      33.649 -12.491 -25.237  0.00  0.00    +0.250 C 
ENDROOT
BRANCH   3   9
ATOM      7  O   UNL     1      32.869 -12.667 -20.712  0.00  0.00    -0.269 OA
ATOM      8  N   UNL     1      32.225 -10.763 -21.868  0.00  0.00    -0.296 N 
ATOM      9  C   UNL     1      32.722 -12.070 -21.794  0.00  0.00    +0.260 C 
ATOM     10  H   UNL     1      32.133 -10.349 -22.757  0.00  0.00    +0.150 HD
BRANCH   8  11
ATOM     11  C   UNL     1      31.840  -9.986 -20.712  0.00  0.00    +0.117 C 
BRANCH  11  12
ATOM     12  C   UNL     1      32.026  -8.514 -20.936  0.00  0.00    -0.003 C 
ATOM     13  C   UNL     1      31.419  -7.903 -22.026  0.00  0.00    -0.007 C 
ATOM     14  C   UNL     1      31.590  -6.534 -22.233  0.00  0.00    -0.022 C 
ATOM     15  C   UNL     1      32.804  -7.776 -20.050  0.00  0.00    -0.003 C 
ATOM     16  C   UNL     1      32.369  -5.786 -21.349  0.00  0.00    -0.004 C 
ATOM     17  C   UNL     1      32.975  -6.408 -20.257  0.00  0.00    -0.001 C 
ATOM     18  C   UNL     1      30.943  -5.869 -23.401  0.00  0.00    +0.031 C 
ENDBRANCH  11  12
ENDBRANCH   8  11
ENDBRANCH   3   9
BRANCH   4  21
ATOM     19  O   UNL     1      33.177 -16.536 -25.554  0.00  0.00    -0.269 OA
ATOM     20  N   UNL     1      34.415 -16.698 -23.599  0.00  0.00    -0.296 N 
ATOM     21  C   UNL     1      33.682 -16.017 -24.561  0.00  0.00    +0.260 C 
ATOM     22  H   UNL     1      34.781 -16.193 -22.838  0.00  0.00    +0.150 HD
BRANCH  20  23
ATOM     23  C   UNL     1      34.660 -18.117 -23.671  0.00  0.00    +0.117 C 
BRANCH  23  24
ATOM     24  C   UNL     1      35.259 -18.653 -22.415  0.00  0.00    -0.003 C 
ATOM     25  C   UNL     1      34.507 -19.484 -21.585  0.00  0.00    -0.007 C 
ATOM     26  C   UNL     1      35.067 -19.987 -20.409  0.00  0.00    -0.022 C 
ATOM     27  C   UNL     1      36.569 -18.323 -22.070  0.00  0.00    -0.003 C 
ATOM     28  C   UNL     1      36.378 -19.657 -20.066  0.00  0.00    -0.004 C 
ATOM     29  C   UNL     1      37.129 -18.826 -20.895  0.00  0.00    -0.001 C 
ATOM     30  C   UNL     1      34.264 -20.876 -19.521  0.00  0.00    +0.031 C 
ENDBRANCH  23  24
ENDBRANCH  20  23
ENDBRANCH   4  21
TORSDOF 6
ENDMDL
