MODEL 1
REMARK VINA RESULT:     -12.5      0.000      0.000
REMARK  Name = 22479942
REMARK  4 active torsions:
REMARK  status: ('A' for Active; 'I' for Inactive)
REMARK    1  A    between atoms: C_4  and  C_17
REMARK    2  A    between atoms: C_7  and  C_14
REMARK    3  A    between atoms: C_20  and  N_24
REMARK    4  A    between atoms: C_25  and  C_28
REMARK                            x       y       z     vdW  Elec       q    Type
REMARK                         _______ _______ _______ _____ _____    ______ ____
ROOT
ATOM      1  N   UNL     1      31.130 -22.910 -16.805  0.00  0.00    -0.276 N 
ATOM      2  N   UNL     1      31.892 -22.334 -17.749  0.00  0.00    -0.173 NA
ATOM      3  C   UNL     1      33.158 -23.046 -15.981  0.00  0.00    +0.036 A 
ATOM      4  C   UNL     1      33.125 -22.418 -17.245  0.00  0.00    +0.102 A 
ATOM      5  C   UNL     1      31.830 -23.359 -15.717  0.00  0.00    +0.075 A 
ATOM      6  C   UNL     1      34.145 -23.382 -15.040  0.00  0.00    +0.006 C 
ATOM      7  C   UNL     1      33.752 -24.026 -13.859  0.00  0.00    +0.033 C 
ATOM      8  C   UNL     1      31.416 -24.000 -14.547  0.00  0.00    +0.019 C 
ATOM      9  C   UNL     1      32.410 -24.329 -13.620  0.00  0.00    +0.004 C 
ATOM     10  H   UNL     1      30.154 -23.003 -16.888  0.00  0.00    +0.189 HD
ENDROOT
BRANCH   7  14
ATOM     11  N   UNL     1      35.795 -25.206 -13.147  0.00  0.00    -0.218 N 
ATOM     12  N   UNL     1      34.809 -23.984 -11.627  0.00  0.00    -0.206 NA
ATOM     13  N   UNL     1      36.573 -25.373 -12.067  0.00  0.00    -0.157 NA
ATOM     14  C   UNL     1      34.749 -24.379 -12.878  0.00  0.00    +0.149 C 
ATOM     15  C   UNL     1      35.934 -24.613 -11.175  0.00  0.00    +0.218 C 
ATOM     16  H   UNL     1      35.960 -25.628 -14.021  0.00  0.00    +0.176 HD
ENDBRANCH   7  14
BRANCH   4  17
ATOM     17  C   UNL     1      34.246 -21.897 -17.986  0.00  0.00    +0.021 C 
ATOM     18  C   UNL     1      34.030 -21.165 -19.154  0.00  0.00    +0.016 C 
ATOM     19  C   UNL     1      35.545 -22.124 -17.535  0.00  0.00    +0.002 C 
ATOM     20  C   UNL     1      35.115 -20.661 -19.870  0.00  0.00    +0.051 C 
ATOM     21  C   UNL     1      36.631 -21.620 -18.252  0.00  0.00    +0.001 C 
ATOM     22  C   UNL     1      36.416 -20.888 -19.420  0.00  0.00    +0.015 C 
BRANCH  20  24
ATOM     23  O   UNL     1      35.564 -17.782 -20.416  0.00  0.00    -0.266 OA
ATOM     24  N   UNL     1      34.901 -19.927 -21.038  0.00  0.00    -0.278 N 
ATOM     25  C   UNL     1      35.126 -18.555 -21.266  0.00  0.00    +0.284 C 
ATOM     26  H   UNL     1      34.548 -20.436 -21.803  0.00  0.00    +0.155 HD
BRANCH  25  28
ATOM     27  O   UNL     1      35.092 -16.801 -22.942  0.00  0.00    -0.446 OA
ATOM     28  C   UNL     1      34.757 -18.075 -22.608  0.00  0.00    +0.199 C 
ATOM     29  C   UNL     1      34.104 -18.691 -23.650  0.00  0.00    +0.045 C 
ATOM     30  C   UNL     1      34.034 -17.735 -24.691  0.00  0.00    +0.044 C 
ATOM     31  C   UNL     1      34.650 -16.602 -24.211  0.00  0.00    +0.180 C 
ENDBRANCH  25  28
ENDBRANCH  20  24
ENDBRANCH   4  17
TORSDOF 4
ENDMDL
MODEL 2
REMARK VINA RESULT:     -12.4      1.886      2.805
REMARK  Name = 22479942
REMARK  4 active torsions:
REMARK  status: ('A' for Active; 'I' for Inactive)
REMARK    1  A    between atoms: C_4  and  C_17
REMARK    2  A    between atoms: C_7  and  C_14
REMARK    3  A    between atoms: C_20  and  N_24
REMARK    4  A    between atoms: C_25  and  C_28
REMARK                            x       y       z     vdW  Elec       q    Type
REMARK                         _______ _______ _______ _____ _____    ______ ____
ROOT
ATOM      1  N   UNL     1      32.218 -21.915 -18.640  0.00  0.00    -0.276 N 
ATOM      2  N   UNL     1      32.802 -21.081 -19.517  0.00  0.00    -0.173 NA
ATOM      3  C   UNL     1      34.311 -21.868 -17.987  0.00  0.00    +0.036 A 
ATOM      4  C   UNL     1      34.075 -21.055 -19.117  0.00  0.00    +0.102 A 
ATOM      5  C   UNL     1      33.070 -22.421 -17.695  0.00  0.00    +0.075 A 
ATOM      6  C   UNL     1      35.417 -22.196 -17.185  0.00  0.00    +0.006 C 
ATOM      7  C   UNL     1      35.227 -23.077 -16.112  0.00  0.00    +0.033 C 
ATOM      8  C   UNL     1      32.858 -23.301 -16.631  0.00  0.00    +0.019 C 
ATOM      9  C   UNL     1      33.968 -23.618 -15.842  0.00  0.00    +0.004 C 
ATOM     10  H   UNL     1      31.261 -22.142 -18.675  0.00  0.00    +0.189 HD
ENDROOT
BRANCH   7  14
ATOM     11  N   UNL     1      37.634 -23.109 -15.585  0.00  0.00    -0.218 N 
ATOM     12  N   UNL     1      36.318 -24.079 -14.135  0.00  0.00    -0.206 NA
ATOM     13  N   UNL     1      38.485 -23.549 -14.645  0.00  0.00    -0.157 NA
ATOM     14  C   UNL     1      36.349 -23.427 -15.275  0.00  0.00    +0.149 C 
ATOM     15  C   UNL     1      37.638 -24.128 -13.790  0.00  0.00    +0.218 C 
ATOM     16  H   UNL     1      37.906 -22.618 -16.395  0.00  0.00    +0.176 HD
ENDBRANCH   7  14
BRANCH   4  17
ATOM     17  C   UNL     1      35.039 -20.254 -19.827  0.00  0.00    +0.021 C 
ATOM     18  C   UNL     1      34.613 -19.352 -20.802  0.00  0.00    +0.016 C 
ATOM     19  C   UNL     1      36.397 -20.379 -19.538  0.00  0.00    +0.002 C 
ATOM     20  C   UNL     1      35.547 -18.576 -21.489  0.00  0.00    +0.051 C 
ATOM     21  C   UNL     1      37.331 -19.603 -20.225  0.00  0.00    +0.001 C 
ATOM     22  C   UNL     1      36.906 -18.701 -21.201  0.00  0.00    +0.015 C 
BRANCH  20  24
ATOM     23  O   UNL     1      35.047 -15.661 -21.292  0.00  0.00    -0.266 OA
ATOM     24  N   UNL     1      35.122 -17.672 -22.465  0.00  0.00    -0.278 N 
ATOM     25  C   UNL     1      34.894 -16.288 -22.338  0.00  0.00    +0.284 C 
ATOM     26  H   UNL     1      34.963 -18.053 -23.358  0.00  0.00    +0.155 HD
BRANCH  25  28
ATOM     27  O   UNL     1      33.823 -14.400 -23.424  0.00  0.00    -0.446 OA
ATOM     28  C   UNL     1      34.407 -15.620 -23.557  0.00  0.00    +0.199 C 
ATOM     29  C   UNL     1      34.425 -16.005 -24.877  0.00  0.00    +0.045 C 
ATOM     30  C   UNL     1      33.813 -14.954 -25.602  0.00  0.00    +0.044 C 
ATOM     31  C   UNL     1      33.466 -14.001 -24.672  0.00  0.00    +0.180 C 
ENDBRANCH  25  28
ENDBRANCH  20  24
ENDBRANCH   4  17
TORSDOF 4
ENDMDL
MODEL 3
REMARK VINA RESULT:     -11.2      7.229     11.611
REMARK  Name = 22479942
REMARK  4 active torsions:
REMARK  status: ('A' for Active; 'I' for Inactive)
REMARK    1  A    between atoms: C_4  and  C_17
REMARK    2  A    between atoms: C_7  and  C_14
REMARK    3  A    between atoms: C_20  and  N_24
REMARK    4  A    between atoms: C_25  and  C_28
REMARK                            x       y       z     vdW  Elec       q    Type
REMARK                         _______ _______ _______ _____ _____    ______ ____
ROOT
ATOM      1  N   UNL     1      33.083 -13.896 -25.348  0.00  0.00    -0.276 N 
ATOM      2  N   UNL     1      32.587 -12.935 -24.550  0.00  0.00    -0.173 NA
ATOM      3  C   UNL     1      33.733 -14.507 -23.344  0.00  0.00    +0.036 A 
ATOM      4  C   UNL     1      32.985 -13.310 -23.333  0.00  0.00    +0.102 A 
ATOM      5  C   UNL     1      33.781 -14.871 -24.685  0.00  0.00    +0.075 A 
ATOM      6  C   UNL     1      34.368 -15.317 -22.388  0.00  0.00    +0.006 C 
ATOM      7  C   UNL     1      35.032 -16.471 -22.825  0.00  0.00    +0.033 C 
ATOM      8  C   UNL     1      34.437 -16.016 -25.141  0.00  0.00    +0.019 C 
ATOM      9  C   UNL     1      35.064 -16.812 -24.178  0.00  0.00    +0.004 C 
ATOM     10  H   UNL     1      32.955 -13.900 -26.324  0.00  0.00    +0.189 HD
ENDROOT
BRANCH   7  14
ATOM     11  N   UNL     1      35.466 -17.231 -20.521  0.00  0.00    -0.218 N 
ATOM     12  N   UNL     1      36.570 -18.263 -22.100  0.00  0.00    -0.206 NA
ATOM     13  N   UNL     1      36.202 -18.128 -19.845  0.00  0.00    -0.157 NA
ATOM     14  C   UNL     1      35.690 -17.318 -21.859  0.00  0.00    +0.149 C 
ATOM     15  C   UNL     1      36.851 -18.727 -20.846  0.00  0.00    +0.218 C 
ATOM     16  H   UNL     1      34.844 -16.594 -20.101  0.00  0.00    +0.176 HD
ENDBRANCH   7  14
BRANCH   4  17
ATOM     17  C   UNL     1      32.641 -12.512 -22.183  0.00  0.00    +0.021 C 
ATOM     18  C   UNL     1      32.462 -11.134 -22.319  0.00  0.00    +0.016 C 
ATOM     19  C   UNL     1      32.487 -13.115 -20.936  0.00  0.00    +0.002 C 
ATOM     20  C   UNL     1      32.130 -10.362 -21.206  0.00  0.00    +0.051 C 
ATOM     21  C   UNL     1      32.155 -12.342 -19.823  0.00  0.00    +0.001 C 
ATOM     22  C   UNL     1      31.976 -10.966 -19.958  0.00  0.00    +0.015 C 
BRANCH  20  24
ATOM     23  O   UNL     1      33.050  -8.146 -19.467  0.00  0.00    -0.266 OA
ATOM     24  N   UNL     1      31.949  -8.985 -21.341  0.00  0.00    -0.278 N 
ATOM     25  C   UNL     1      32.401  -7.954 -20.493  0.00  0.00    +0.284 C 
ATOM     26  H   UNL     1      31.440  -8.696 -22.132  0.00  0.00    +0.155 HD
BRANCH  25  28
ATOM     27  O   UNL     1      30.739  -6.409 -21.350  0.00  0.00    -0.446 OA
ATOM     28  C   UNL     1      32.006  -6.594 -20.896  0.00  0.00    +0.199 C 
ATOM     29  C   UNL     1      32.700  -5.407 -20.906  0.00  0.00    +0.045 C 
ATOM     30  C   UNL     1      31.802  -4.429 -21.398  0.00  0.00    +0.044 C 
ATOM     31  C   UNL     1      30.622  -5.089 -21.653  0.00  0.00    +0.180 C 
ENDBRANCH  25  28
ENDBRANCH  20  24
ENDBRANCH   4  17
TORSDOF 4
ENDMDL
MODEL 4
REMARK VINA RESULT:     -10.6      3.793      8.129
REMARK  Name = 22479942
REMARK  4 active torsions:
REMARK  status: ('A' for Active; 'I' for Inactive)
REMARK    1  A    between atoms: C_4  and  C_17
REMARK    2  A    between atoms: C_7  and  C_14
REMARK    3  A    between atoms: C_20  and  N_24
REMARK    4  A    between atoms: C_25  and  C_28
REMARK                            x       y       z     vdW  Elec       q    Type
REMARK                         _______ _______ _______ _____ _____    ______ ____
ROOT
ATOM      1  N   UNL     1      36.468 -23.453 -14.708  0.00  0.00    -0.276 N 
ATOM      2  N   UNL     1      35.429 -23.932 -14.003  0.00  0.00    -0.173 NA
ATOM      3  C   UNL     1      34.724 -22.872 -15.905  0.00  0.00    +0.036 A 
ATOM      4  C   UNL     1      34.371 -23.576 -14.734  0.00  0.00    +0.102 A 
ATOM      5  C   UNL     1      36.112 -22.805 -15.861  0.00  0.00    +0.075 A 
ATOM      6  C   UNL     1      34.041 -22.288 -16.985  0.00  0.00    +0.006 C 
ATOM      7  C   UNL     1      34.789 -21.656 -17.987  0.00  0.00    +0.033 C 
ATOM      8  C   UNL     1      36.877 -22.181 -16.849  0.00  0.00    +0.019 C 
ATOM      9  C   UNL     1      36.183 -21.605 -17.917  0.00  0.00    +0.004 C 
ATOM     10  H   UNL     1      37.403 -23.560 -14.421  0.00  0.00    +0.189 HD
ENDROOT
BRANCH   7  14
ATOM     11  N   UNL     1      32.762 -21.129 -19.285  0.00  0.00    -0.218 N 
ATOM     12  N   UNL     1      34.644 -20.357 -20.083  0.00  0.00    -0.206 NA
ATOM     13  N   UNL     1      32.382 -20.483 -20.398  0.00  0.00    -0.157 NA
ATOM     14  C   UNL     1      34.107 -21.049 -19.104  0.00  0.00    +0.149 C 
ATOM     15  C   UNL     1      33.558 -20.034 -20.844  0.00  0.00    +0.218 C 
ATOM     16  H   UNL     1      32.146 -21.599 -18.678  0.00  0.00    +0.176 HD
ENDBRANCH   7  14
BRANCH   4  17
ATOM     17  C   UNL     1      33.041 -23.921 -14.296  0.00  0.00    +0.021 C 
ATOM     18  C   UNL     1      31.932 -23.334 -14.907  0.00  0.00    +0.016 C 
ATOM     19  C   UNL     1      32.864 -24.840 -13.264  0.00  0.00    +0.002 C 
ATOM     20  C   UNL     1      30.646 -23.668 -14.483  0.00  0.00    +0.051 C 
ATOM     21  C   UNL     1      31.577 -25.174 -12.840  0.00  0.00    +0.001 C 
ATOM     22  C   UNL     1      30.468 -24.589 -13.450  0.00  0.00    +0.015 C 
BRANCH  20  24
ATOM     23  O   UNL     1      28.529 -24.896 -16.155  0.00  0.00    -0.266 OA
ATOM     24  N   UNL     1      29.536 -23.083 -15.094  0.00  0.00    -0.278 N 
ATOM     25  C   UNL     1      28.544 -23.698 -15.885  0.00  0.00    +0.284 C 
ATOM     26  H   UNL     1      29.431 -22.115 -14.951  0.00  0.00    +0.155 HD
BRANCH  25  28
ATOM     27  O   UNL     1      27.254 -22.839 -17.751  0.00  0.00    -0.446 OA
ATOM     28  C   UNL     1      27.518 -22.787 -16.419  0.00  0.00    +0.199 C 
ATOM     29  C   UNL     1      26.728 -21.843 -15.807  0.00  0.00    +0.045 C 
ATOM     30  C   UNL     1      25.927 -21.277 -16.828  0.00  0.00    +0.044 C 
ATOM     31  C   UNL     1      26.285 -21.917 -17.993  0.00  0.00    +0.180 C 
ENDBRANCH  25  28
ENDBRANCH  20  24
ENDBRANCH   4  17
TORSDOF 4
ENDMDL
MODEL 5
REMARK VINA RESULT:     -10.5      3.409      6.912
REMARK  Name = 22479942
REMARK  4 active torsions:
REMARK  status: ('A' for Active; 'I' for Inactive)
REMARK    1  A    between atoms: C_4  and  C_17
REMARK    2  A    between atoms: C_7  and  C_14
REMARK    3  A    between atoms: C_20  and  N_24
REMARK    4  A    between atoms: C_25  and  C_28
REMARK                            x       y       z     vdW  Elec       q    Type
REMARK                         _______ _______ _______ _____ _____    ______ ____
ROOT
ATOM      1  N   UNL     1      38.029 -18.948 -21.007  0.00  0.00    -0.276 N 
ATOM      2  N   UNL     1      37.460 -18.268 -22.017  0.00  0.00    -0.173 NA
ATOM      3  C   UNL     1      35.899 -19.438 -20.821  0.00  0.00    +0.036 A 
ATOM      4  C   UNL     1      36.165 -18.568 -21.900  0.00  0.00    +0.102 A 
ATOM      5  C   UNL     1      37.145 -19.672 -20.252  0.00  0.00    +0.075 A 
ATOM      6  C   UNL     1      34.762 -20.049 -20.266  0.00  0.00    +0.006 C 
ATOM      7  C   UNL     1      34.927 -20.878 -19.148  0.00  0.00    +0.033 C 
ATOM      8  C   UNL     1      37.332 -20.494 -19.138  0.00  0.00    +0.019 C 
ATOM      9  C   UNL     1      36.191 -21.095 -18.597  0.00  0.00    +0.004 C 
ATOM     10  H   UNL     1      38.995 -18.928 -20.827  0.00  0.00    +0.189 HD
ENDROOT
BRANCH   7  14
ATOM     11  N   UNL     1      32.501 -21.083 -18.768  0.00  0.00    -0.218 N 
ATOM     12  N   UNL     1      33.761 -22.566 -17.773  0.00  0.00    -0.206 NA
ATOM     13  N   UNL     1      31.615 -21.847 -18.111  0.00  0.00    -0.157 NA
ATOM     14  C   UNL     1      33.774 -21.516 -18.562  0.00  0.00    +0.149 C 
ATOM     15  C   UNL     1      32.428 -22.730 -17.525  0.00  0.00    +0.218 C 
ATOM     16  H   UNL     1      32.260 -20.309 -19.327  0.00  0.00    +0.176 HD
ENDBRANCH   7  14
BRANCH   4  17
ATOM     17  C   UNL     1      35.208 -18.013 -22.825  0.00  0.00    +0.021 C 
ATOM     18  C   UNL     1      35.071 -16.628 -22.938  0.00  0.00    +0.016 C 
ATOM     19  C   UNL     1      34.422 -18.858 -23.605  0.00  0.00    +0.002 C 
ATOM     20  C   UNL     1      34.146 -16.091 -23.833  0.00  0.00    +0.051 C 
ATOM     21  C   UNL     1      33.496 -18.320 -24.500  0.00  0.00    +0.001 C 
ATOM     22  C   UNL     1      33.358 -16.937 -24.614  0.00  0.00    +0.015 C 
BRANCH  20  24
ATOM     23  O   UNL     1      33.460 -14.071 -21.776  0.00  0.00    -0.266 OA
ATOM     24  N   UNL     1      34.007 -14.708 -23.948  0.00  0.00    -0.278 N 
ATOM     25  C   UNL     1      33.679 -13.772 -22.947  0.00  0.00    +0.284 C 
ATOM     26  H   UNL     1      34.160 -14.337 -24.848  0.00  0.00    +0.155 HD
BRANCH  25  28
ATOM     27  O   UNL     1      33.096 -11.454 -22.529  0.00  0.00    -0.446 OA
ATOM     28  C   UNL     1      33.571 -12.377 -23.406  0.00  0.00    +0.199 C 
ATOM     29  C   UNL     1      33.872 -11.787 -24.611  0.00  0.00    +0.045 C 
ATOM     30  C   UNL     1      33.562 -10.413 -24.466  0.00  0.00    +0.044 C 
ATOM     31  C   UNL     1      33.094 -10.262 -23.181  0.00  0.00    +0.180 C 
ENDBRANCH  25  28
ENDBRANCH  20  24
ENDBRANCH   4  17
TORSDOF 4
ENDMDL
MODEL 6
REMARK VINA RESULT:     -10.2      8.592     14.166
REMARK  Name = 22479942
REMARK  4 active torsions:
REMARK  status: ('A' for Active; 'I' for Inactive)
REMARK    1  A    between atoms: C_4  and  C_17
REMARK    2  A    between atoms: C_7  and  C_14
REMARK    3  A    between atoms: C_20  and  N_24
REMARK    4  A    between atoms: C_25  and  C_28
REMARK                            x       y       z     vdW  Elec       q    Type
REMARK                         _______ _______ _______ _____ _____    ______ ____
ROOT
ATOM      1  N   UNL     1      31.779 -10.412 -19.776  0.00  0.00    -0.276 N 
ATOM      2  N   UNL     1      32.122 -11.403 -20.616  0.00  0.00    -0.173 NA
ATOM      3  C   UNL     1      32.352  -9.355 -21.611  0.00  0.00    +0.036 A 
ATOM      4  C   UNL     1      32.470 -10.757 -21.730  0.00  0.00    +0.102 A 
ATOM      5  C   UNL     1      31.894  -9.158 -20.313  0.00  0.00    +0.075 A 
ATOM      6  C   UNL     1      32.575  -8.243 -22.439  0.00  0.00    +0.006 C 
ATOM      7  C   UNL     1      32.328  -6.964 -21.922  0.00  0.00    +0.033 C 
ATOM      8  C   UNL     1      31.641  -7.892 -19.778  0.00  0.00    +0.019 C 
ATOM      9  C   UNL     1      31.868  -6.795 -20.615  0.00  0.00    +0.004 C 
ATOM     10  H   UNL     1      31.472 -10.574 -18.855  0.00  0.00    +0.189 HD
ENDROOT
BRANCH   7  14
ATOM     11  N   UNL     1      33.556  -5.731 -23.667  0.00  0.00    -0.218 N 
ATOM     12  N   UNL     1      31.854  -4.693 -22.772  0.00  0.00    -0.206 NA
ATOM     13  N   UNL     1      33.544  -4.553 -24.309  0.00  0.00    -0.157 NA
ATOM     14  C   UNL     1      32.550  -5.807 -22.756  0.00  0.00    +0.149 C 
ATOM     15  C   UNL     1      32.495  -3.962 -23.730  0.00  0.00    +0.218 C 
ATOM     16  H   UNL     1      34.210  -6.448 -23.835  0.00  0.00    +0.176 HD
ENDBRANCH   7  14
BRANCH   4  17
ATOM     17  C   UNL     1      32.911 -11.495 -22.887  0.00  0.00    +0.021 C 
ATOM     18  C   UNL     1      33.080 -12.878 -22.808  0.00  0.00    +0.016 C 
ATOM     19  C   UNL     1      33.167 -10.829 -24.084  0.00  0.00    +0.002 C 
ATOM     20  C   UNL     1      33.507 -13.593 -23.927  0.00  0.00    +0.051 C 
ATOM     21  C   UNL     1      33.593 -11.544 -25.203  0.00  0.00    +0.001 C 
ATOM     22  C   UNL     1      33.763 -12.926 -25.125  0.00  0.00    +0.015 C 
BRANCH  20  24
ATOM     23  O   UNL     1      35.734 -15.174 -22.777  0.00  0.00    -0.266 OA
ATOM     24  N   UNL     1      33.676 -14.976 -23.850  0.00  0.00    -0.278 N 
ATOM     25  C   UNL     1      34.751 -15.699 -23.294  0.00  0.00    +0.284 C 
ATOM     26  H   UNL     1      32.948 -15.517 -24.233  0.00  0.00    +0.155 HD
BRANCH  25  28
ATOM     27  O   UNL     1      33.906 -17.669 -24.431  0.00  0.00    -0.446 OA
ATOM     28  C   UNL     1      34.645 -17.163 -23.409  0.00  0.00    +0.199 C 
ATOM     29  C   UNL     1      35.173 -18.179 -22.647  0.00  0.00    +0.045 C 
ATOM     30  C   UNL     1      34.731 -19.386 -23.238  0.00  0.00    +0.044 C 
ATOM     31  C   UNL     1      33.964 -19.022 -24.321  0.00  0.00    +0.180 C 
ENDBRANCH  25  28
ENDBRANCH  20  24
ENDBRANCH   4  17
TORSDOF 4
ENDMDL
MODEL 7
REMARK VINA RESULT:      -9.9      1.955      4.617
REMARK  Name = 22479942
REMARK  4 active torsions:
REMARK  status: ('A' for Active; 'I' for Inactive)
REMARK    1  A    between atoms: C_4  and  C_17
REMARK    2  A    between atoms: C_7  and  C_14
REMARK    3  A    between atoms: C_20  and  N_24
REMARK    4  A    between atoms: C_25  and  C_28
REMARK                            x       y       z     vdW  Elec       q    Type
REMARK                         _______ _______ _______ _____ _____    ______ ____
ROOT
ATOM      1  N   UNL     1      33.939 -24.933 -12.457  0.00  0.00    -0.276 N 
ATOM      2  N   UNL     1      35.010 -24.436 -13.098  0.00  0.00    -0.173 NA
ATOM      3  C   UNL     1      33.078 -23.982 -14.235  0.00  0.00    +0.036 A 
ATOM      4  C   UNL     1      34.482 -23.858 -14.178  0.00  0.00    +0.102 A 
ATOM      5  C   UNL     1      32.748 -24.695 -13.089  0.00  0.00    +0.075 A 
ATOM      6  C   UNL     1      32.057 -23.579 -15.113  0.00  0.00    +0.006 C 
ATOM      7  C   UNL     1      30.734 -23.914 -14.798  0.00  0.00    +0.033 C 
ATOM      8  C   UNL     1      31.436 -25.039 -12.756  0.00  0.00    +0.019 C 
ATOM      9  C   UNL     1      30.431 -24.631 -13.639  0.00  0.00    +0.004 C 
ATOM     10  H   UNL     1      34.005 -25.426 -11.608  0.00  0.00    +0.189 HD
ENDROOT
BRANCH   7  14
ATOM     11  N   UNL     1      28.687 -24.356 -16.098  0.00  0.00    -0.218 N 
ATOM     12  N   UNL     1      29.483 -22.325 -16.218  0.00  0.00    -0.206 NA
ATOM     13  N   UNL     1      27.825 -23.736 -16.918  0.00  0.00    -0.157 NA
ATOM     14  C   UNL     1      29.670 -23.511 -15.686  0.00  0.00    +0.149 C 
ATOM     15  C   UNL     1      28.351 -22.510 -16.958  0.00  0.00    +0.218 C 
ATOM     16  H   UNL     1      28.617 -25.301 -15.829  0.00  0.00    +0.176 HD
ENDBRANCH   7  14
BRANCH   4  17
ATOM     17  C   UNL     1      35.335 -23.196 -15.134  0.00  0.00    +0.021 C 
ATOM     18  C   UNL     1      34.786 -22.636 -16.288  0.00  0.00    +0.016 C 
ATOM     19  C   UNL     1      36.707 -23.115 -14.904  0.00  0.00    +0.002 C 
ATOM     20  C   UNL     1      35.611 -21.996 -17.212  0.00  0.00    +0.051 C 
ATOM     21  C   UNL     1      37.533 -22.474 -15.828  0.00  0.00    +0.001 C 
ATOM     22  C   UNL     1      36.985 -21.915 -16.982  0.00  0.00    +0.015 C 
BRANCH  20  24
ATOM     23  O   UNL     1      36.834 -20.172 -19.203  0.00  0.00    -0.266 OA
ATOM     24  N   UNL     1      35.064 -21.435 -18.367  0.00  0.00    -0.278 N 
ATOM     25  C   UNL     1      35.675 -20.568 -19.295  0.00  0.00    +0.284 C 
ATOM     26  H   UNL     1      34.129 -21.677 -18.557  0.00  0.00    +0.155 HD
BRANCH  25  28
ATOM     27  O   UNL     1      35.399 -19.640 -21.520  0.00  0.00    -0.446 OA
ATOM     28  C   UNL     1      34.805 -20.118 -20.395  0.00  0.00    +0.199 C 
ATOM     29  C   UNL     1      33.436 -20.082 -20.520  0.00  0.00    +0.045 C 
ATOM     30  C   UNL     1      33.172 -19.548 -21.804  0.00  0.00    +0.044 C 
ATOM     31  C   UNL     1      34.399 -19.296 -22.373  0.00  0.00    +0.180 C 
ENDBRANCH  25  28
ENDBRANCH  20  24
ENDBRANCH   4  17
TORSDOF 4
ENDMDL
MODEL 8
REMARK VINA RESULT:      -9.6      2.166      3.296
REMARK  Name = 22479942
REMARK  4 active torsions:
REMARK  status: ('A' for Active; 'I' for Inactive)
REMARK    1  A    between atoms: C_4  and  C_17
REMARK    2  A    between atoms: C_7  and  C_14
REMARK    3  A    between atoms: C_20  and  N_24
REMARK    4  A    between atoms: C_25  and  C_28
REMARK                            x       y       z     vdW  Elec       q    Type
REMARK                         _______ _______ _______ _____ _____    ______ ____
ROOT
ATOM      1  N   UNL     1      37.450 -22.172 -16.815  0.00  0.00    -0.276 N 
ATOM      2  N   UNL     1      36.859 -21.644 -17.901  0.00  0.00    -0.173 NA
ATOM      3  C   UNL     1      35.311 -22.449 -16.420  0.00  0.00    +0.036 A 
ATOM      4  C   UNL     1      35.558 -21.815 -17.656  0.00  0.00    +0.102 A 
ATOM      5  C   UNL     1      36.575 -22.673 -15.888  0.00  0.00    +0.075 A 
ATOM      6  C   UNL     1      34.177 -22.857 -15.696  0.00  0.00    +0.006 C 
ATOM      7  C   UNL     1      34.365 -23.477 -14.454  0.00  0.00    +0.033 C 
ATOM      8  C   UNL     1      36.785 -23.290 -14.653  0.00  0.00    +0.019 C 
ATOM      9  C   UNL     1      35.648 -23.689 -13.944  0.00  0.00    +0.004 C 
ATOM     10  H   UNL     1      38.427 -22.195 -16.697  0.00  0.00    +0.189 HD
ENDROOT
BRANCH   7  14
ATOM     11  N   UNL     1      32.438 -23.048 -12.979  0.00  0.00    -0.218 N 
ATOM     12  N   UNL     1      32.753 -25.128 -13.571  0.00  0.00    -0.206 NA
ATOM     13  N   UNL     1      31.437 -23.697 -12.365  0.00  0.00    -0.157 NA
ATOM     14  C   UNL     1      33.215 -23.905 -13.694  0.00  0.00    +0.149 C 
ATOM     15  C   UNL     1      31.673 -24.953 -12.755  0.00  0.00    +0.218 C 
ATOM     16  H   UNL     1      32.589 -22.077 -12.920  0.00  0.00    +0.176 HD
ENDBRANCH   7  14
BRANCH   4  17
ATOM     17  C   UNL     1      34.578 -21.364 -18.612  0.00  0.00    +0.021 C 
ATOM     18  C   UNL     1      34.862 -20.279 -19.443  0.00  0.00    +0.016 C 
ATOM     19  C   UNL     1      33.348 -22.012 -18.708  0.00  0.00    +0.002 C 
ATOM     20  C   UNL     1      33.914 -19.843 -20.368  0.00  0.00    +0.051 C 
ATOM     21  C   UNL     1      32.399 -21.576 -19.634  0.00  0.00    +0.001 C 
ATOM     22  C   UNL     1      32.682 -20.492 -20.464  0.00  0.00    +0.015 C 
BRANCH  20  24
ATOM     23  O   UNL     1      34.892 -19.799 -23.166  0.00  0.00    -0.266 OA
ATOM     24  N   UNL     1      34.197 -18.759 -21.200  0.00  0.00    -0.278 N 
ATOM     25  C   UNL     1      34.662 -18.772 -22.531  0.00  0.00    +0.284 C 
ATOM     26  H   UNL     1      34.051 -17.869 -20.806  0.00  0.00    +0.155 HD
BRANCH  25  28
ATOM     27  O   UNL     1      34.647 -17.284 -24.447  0.00  0.00    -0.446 OA
ATOM     28  C   UNL     1      34.902 -17.445 -23.122  0.00  0.00    +0.199 C 
ATOM     29  C   UNL     1      35.359 -16.270 -22.572  0.00  0.00    +0.045 C 
ATOM     30  C   UNL     1      35.386 -15.326 -23.626  0.00  0.00    +0.044 C 
ATOM     31  C   UNL     1      34.943 -15.992 -24.746  0.00  0.00    +0.180 C 
ENDBRANCH  25  28
ENDBRANCH  20  24
ENDBRANCH   4  17
TORSDOF 4
ENDMDL
