MODEL 1
REMARK VINA RESULT:     -12.4      0.000      0.000
REMARK  Name = 3822
REMARK  5 active torsions:
REMARK  status: ('A' for Active; 'I' for Inactive)
REMARK    1  A    between atoms: N_1  and  C_17
REMARK    2  A    between atoms: C_2  and  C_9
REMARK    3  A    between atoms: C_9  and  C_11
REMARK    4  A    between atoms: C_17  and  C_18
REMARK    5  A    between atoms: C_18  and  N_21
REMARK                            x       y       z     vdW  Elec       q    Type
REMARK                         _______ _______ _______ _____ _____    ______ ____
ROOT
ATOM      1  N   UNL     1      35.892 -20.069 -20.405  0.00  0.00    +0.388 N 
ATOM      2  C   UNL     1      35.754 -18.089 -22.570  0.00  0.00    +0.058 C 
ATOM      3  C   UNL     1      37.067 -18.465 -21.884  0.00  0.00    -0.015 C 
ATOM      4  C   UNL     1      34.688 -19.164 -22.368  0.00  0.00    -0.015 C 
ATOM      5  C   UNL     1      36.869 -18.974 -20.453  0.00  0.00    -0.077 C 
ATOM      6  C   UNL     1      34.587 -19.629 -20.913  0.00  0.00    -0.077 C 
ATOM      7  H   UNL     1      36.228 -20.822 -21.006  0.00  0.00    -0.080 HD
ENDROOT
BRANCH   2   9
ATOM      8  O   UNL     1      35.358 -16.437 -20.906  0.00  0.00    -0.291 OA
ATOM      9  C   UNL     1      35.250 -16.760 -22.086  0.00  0.00    +0.172 C 
BRANCH   9  11
ATOM     10  F   UNL     1      32.861 -13.271 -25.733  0.00  0.00    -0.204 F 
ATOM     11  C   UNL     1      34.613 -15.829 -23.060  0.00  0.00    +0.035 C 
ATOM     12  C   UNL     1      34.465 -16.237 -24.366  0.00  0.00    +0.005 C 
ATOM     13  C   UNL     1      34.194 -14.594 -22.616  0.00  0.00    +0.005 C 
ATOM     14  C   UNL     1      33.868 -15.366 -25.277  0.00  0.00    +0.030 C 
ATOM     15  C   UNL     1      33.597 -13.722 -23.527  0.00  0.00    +0.030 C 
ATOM     16  C   UNL     1      33.434 -14.108 -24.858  0.00  0.00    +0.140 C 
ENDBRANCH   9  11
ENDBRANCH   2   9
BRANCH   1  17
ATOM     17  C   UNL     1      35.763 -20.580 -19.040  0.00  0.00    -0.052 C 
BRANCH  17  18
ATOM     18  C   UNL     1      35.376 -22.051 -19.061  0.00  0.00    +0.091 C 
BRANCH  18  21
ATOM     19  O   UNL     1      36.027 -22.856 -16.489  0.00  0.00    -0.267 OA
ATOM     20  O   UNL     1      32.613 -21.843 -19.518  0.00  0.00    -0.246 OA
ATOM     21  N   UNL     1      34.380 -22.341 -18.067  0.00  0.00    -0.251 N 
ATOM     22  N   UNL     1      32.097 -22.500 -17.401  0.00  0.00    -0.306 N 
ATOM     23  C   UNL     1      34.840 -22.746 -16.789  0.00  0.00    +0.265 A 
ATOM     24  C   UNL     1      33.005 -22.204 -18.405  0.00  0.00    +0.330 A 
ATOM     25  C   UNL     1      33.807 -23.043 -15.777  0.00  0.00    +0.072 A 
ATOM     26  C   UNL     1      32.464 -22.910 -16.116  0.00  0.00    +0.065 A 
ATOM     27  C   UNL     1      34.167 -23.453 -14.490  0.00  0.00    +0.006 C 
ATOM     28  C   UNL     1      31.471 -23.187 -15.173  0.00  0.00    +0.017 C 
ATOM     29  C   UNL     1      33.175 -23.730 -13.547  0.00  0.00    +0.000 C 
ATOM     30  C   UNL     1      31.829 -23.597 -13.889  0.00  0.00    +0.001 C 
ATOM     31  H   UNL     1      31.138 -22.416 -17.605  0.00  0.00    +0.170 HD
ENDBRANCH  18  21
ENDBRANCH  17  18
ENDBRANCH   1  17
TORSDOF 5
ENDMDL
MODEL 2
REMARK VINA RESULT:     -12.1      0.683      2.029
REMARK  Name = 3822
REMARK  5 active torsions:
REMARK  status: ('A' for Active; 'I' for Inactive)
REMARK    1  A    between atoms: N_1  and  C_17
REMARK    2  A    between atoms: C_2  and  C_9
REMARK    3  A    between atoms: C_9  and  C_11
REMARK    4  A    between atoms: C_17  and  C_18
REMARK    5  A    between atoms: C_18  and  N_21
REMARK                            x       y       z     vdW  Elec       q    Type
REMARK                         _______ _______ _______ _____ _____    ______ ____
ROOT
ATOM      1  N   UNL     1      35.895 -20.078 -20.393  0.00  0.00    +0.388 N 
ATOM      2  C   UNL     1      35.713 -18.126 -22.580  0.00  0.00    +0.058 C 
ATOM      3  C   UNL     1      37.043 -18.513 -21.933  0.00  0.00    -0.015 C 
ATOM      4  C   UNL     1      34.639 -19.183 -22.327  0.00  0.00    -0.015 C 
ATOM      5  C   UNL     1      36.886 -18.999 -20.490  0.00  0.00    -0.077 C 
ATOM      6  C   UNL     1      34.580 -19.626 -20.863  0.00  0.00    -0.077 C 
ATOM      7  H   UNL     1      36.200 -20.844 -20.995  0.00  0.00    -0.080 HD
ENDROOT
BRANCH   2   9
ATOM      8  O   UNL     1      35.389 -16.449 -20.924  0.00  0.00    -0.291 OA
ATOM      9  C   UNL     1      35.245 -16.784 -22.098  0.00  0.00    +0.172 C 
BRANCH   9  11
ATOM     10  F   UNL     1      32.823 -13.296 -25.723  0.00  0.00    -0.204 F 
ATOM     11  C   UNL     1      34.598 -15.852 -23.065  0.00  0.00    +0.035 C 
ATOM     12  C   UNL     1      34.208 -14.607 -22.626  0.00  0.00    +0.005 C 
ATOM     13  C   UNL     1      34.415 -16.272 -24.364  0.00  0.00    +0.005 C 
ATOM     14  C   UNL     1      33.603 -13.736 -23.531  0.00  0.00    +0.030 C 
ATOM     15  C   UNL     1      33.810 -15.401 -25.270  0.00  0.00    +0.030 C 
ATOM     16  C   UNL     1      33.404 -14.133 -24.854  0.00  0.00    +0.140 C 
ENDBRANCH   9  11
ENDBRANCH   2   9
BRANCH   1  17
ATOM     17  C   UNL     1      35.806 -20.569 -19.017  0.00  0.00    -0.052 C 
BRANCH  17  18
ATOM     18  C   UNL     1      35.369 -22.026 -19.004  0.00  0.00    +0.091 C 
BRANCH  18  21
ATOM     19  O   UNL     1      32.620 -22.282 -18.758  0.00  0.00    -0.267 OA
ATOM     20  O   UNL     1      36.770 -22.513 -16.618  0.00  0.00    -0.246 OA
ATOM     21  N   UNL     1      34.733 -22.367 -17.761  0.00  0.00    -0.251 N 
ATOM     22  N   UNL     1      34.862 -22.916 -15.446  0.00  0.00    -0.306 N 
ATOM     23  C   UNL     1      33.319 -22.466 -17.764  0.00  0.00    +0.265 A 
ATOM     24  C   UNL     1      35.539 -22.593 -16.611  0.00  0.00    +0.330 A 
ATOM     25  C   UNL     1      32.677 -22.815 -16.482  0.00  0.00    +0.072 A 
ATOM     26  C   UNL     1      33.472 -23.029 -15.359  0.00  0.00    +0.065 A 
ATOM     27  C   UNL     1      31.287 -22.930 -16.388  0.00  0.00    +0.006 C 
ATOM     28  C   UNL     1      32.883 -23.360 -14.135  0.00  0.00    +0.017 C 
ATOM     29  C   UNL     1      30.699 -23.260 -15.165  0.00  0.00    +0.000 C 
ATOM     30  C   UNL     1      31.497 -23.475 -14.041  0.00  0.00    +0.001 C 
ATOM     31  H   UNL     1      35.392 -23.077 -14.632  0.00  0.00    +0.170 HD
ENDBRANCH  18  21
ENDBRANCH  17  18
ENDBRANCH   1  17
TORSDOF 5
ENDMDL
MODEL 3
REMARK VINA RESULT:     -11.7      4.521     10.254
REMARK  Name = 3822
REMARK  5 active torsions:
REMARK  status: ('A' for Active; 'I' for Inactive)
REMARK    1  A    between atoms: N_1  and  C_17
REMARK    2  A    between atoms: C_2  and  C_9
REMARK    3  A    between atoms: C_9  and  C_11
REMARK    4  A    between atoms: C_17  and  C_18
REMARK    5  A    between atoms: C_18  and  N_21
REMARK                            x       y       z     vdW  Elec       q    Type
REMARK                         _______ _______ _______ _____ _____    ______ ____
ROOT
ATOM      1  N   UNL     1      35.304 -15.736 -21.588  0.00  0.00    +0.388 N 
ATOM      2  C   UNL     1      35.612 -18.620 -22.052  0.00  0.00    +0.058 C 
ATOM      3  C   UNL     1      35.409 -17.622 -23.192  0.00  0.00    -0.015 C 
ATOM      4  C   UNL     1      36.120 -17.930 -20.787  0.00  0.00    -0.015 C 
ATOM      5  C   UNL     1      34.663 -16.358 -22.754  0.00  0.00    -0.077 C 
ATOM      6  C   UNL     1      35.332 -16.662 -20.449  0.00  0.00    -0.077 C 
ATOM      7  H   UNL     1      36.268 -15.511 -21.837  0.00  0.00    -0.080 HD
ENDROOT
BRANCH   2   9
ATOM      8  O   UNL     1      33.367 -19.270 -22.493  0.00  0.00    -0.291 OA
ATOM      9  C   UNL     1      34.347 -19.375 -21.760  0.00  0.00    +0.172 C 
BRANCH   9  11
ATOM     10  F   UNL     1      34.143 -22.689 -17.271  0.00  0.00    -0.204 F 
ATOM     11  C   UNL     1      34.293 -20.260 -20.562  0.00  0.00    +0.035 C 
ATOM     12  C   UNL     1      35.467 -20.795 -20.081  0.00  0.00    +0.005 C 
ATOM     13  C   UNL     1      33.070 -20.508 -19.979  0.00  0.00    +0.005 C 
ATOM     14  C   UNL     1      35.416 -21.623 -18.960  0.00  0.00    +0.030 C 
ATOM     15  C   UNL     1      33.019 -21.336 -18.857  0.00  0.00    +0.030 C 
ATOM     16  C   UNL     1      34.191 -21.894 -18.348  0.00  0.00    +0.140 C 
ENDBRANCH   9  11
ENDBRANCH   2   9
BRANCH   1  17
ATOM     17  C   UNL     1      34.613 -14.499 -21.224  0.00  0.00    -0.052 C 
BRANCH  17  18
ATOM     18  C   UNL     1      33.632 -14.101 -22.317  0.00  0.00    +0.091 C 
BRANCH  18  21
ATOM     19  O   UNL     1      34.337 -11.847 -23.769  0.00  0.00    -0.267 OA
ATOM     20  O   UNL     1      31.706 -13.614 -20.332  0.00  0.00    -0.246 OA
ATOM     21  N   UNL     1      33.063 -12.806 -22.059  0.00  0.00    -0.251 N 
ATOM     22  N   UNL     1      31.586 -11.396 -20.831  0.00  0.00    -0.306 N 
ATOM     23  C   UNL     1      33.507 -11.732 -22.870  0.00  0.00    +0.265 A 
ATOM     24  C   UNL     1      32.093 -12.671 -21.028  0.00  0.00    +0.330 A 
ATOM     25  C   UNL     1      32.916 -10.408 -22.594  0.00  0.00    +0.072 A 
ATOM     26  C   UNL     1      31.971 -10.282 -21.580  0.00  0.00    +0.065 A 
ATOM     27  C   UNL     1      33.296  -9.288 -23.340  0.00  0.00    +0.006 C 
ATOM     28  C   UNL     1      31.401  -9.036 -21.303  0.00  0.00    +0.017 C 
ATOM     29  C   UNL     1      32.727  -8.044 -23.063  0.00  0.00    +0.000 C 
ATOM     30  C   UNL     1      31.780  -7.919 -22.046  0.00  0.00    +0.001 C 
ATOM     31  H   UNL     1      30.914 -11.270 -20.123  0.00  0.00    +0.170 HD
ENDBRANCH  18  21
ENDBRANCH  17  18
ENDBRANCH   1  17
TORSDOF 5
ENDMDL
MODEL 4
REMARK VINA RESULT:     -11.7      0.980      1.534
REMARK  Name = 3822
REMARK  5 active torsions:
REMARK  status: ('A' for Active; 'I' for Inactive)
REMARK    1  A    between atoms: N_1  and  C_17
REMARK    2  A    between atoms: C_2  and  C_9
REMARK    3  A    between atoms: C_9  and  C_11
REMARK    4  A    between atoms: C_17  and  C_18
REMARK    5  A    between atoms: C_18  and  N_21
REMARK                            x       y       z     vdW  Elec       q    Type
REMARK                         _______ _______ _______ _____ _____    ______ ____
ROOT
ATOM      1  N   UNL     1      35.108 -19.973 -20.859  0.00  0.00    +0.388 N 
ATOM      2  C   UNL     1      35.761 -17.781 -22.701  0.00  0.00    +0.058 C 
ATOM      3  C   UNL     1      36.776 -18.350 -21.709  0.00  0.00    -0.015 C 
ATOM      4  C   UNL     1      34.620 -18.763 -22.960  0.00  0.00    -0.015 C 
ATOM      5  C   UNL     1      36.119 -18.979 -20.477  0.00  0.00    -0.077 C 
ATOM      6  C   UNL     1      34.050 -19.361 -21.671  0.00  0.00    -0.077 C 
ATOM      7  H   UNL     1      35.565 -20.691 -21.422  0.00  0.00    -0.080 HD
ENDROOT
BRANCH   2   9
ATOM      8  O   UNL     1      35.333 -16.122 -21.052  0.00  0.00    -0.291 OA
ATOM      9  C   UNL     1      35.216 -16.465 -22.225  0.00  0.00    +0.172 C 
BRANCH   9  11
ATOM     10  F   UNL     1      32.635 -13.123 -25.877  0.00  0.00    -0.204 F 
ATOM     11  C   UNL     1      34.527 -15.573 -23.200  0.00  0.00    +0.035 C 
ATOM     12  C   UNL     1      33.958 -14.406 -22.741  0.00  0.00    +0.005 C 
ATOM     13  C   UNL     1      34.485 -15.949 -24.524  0.00  0.00    +0.005 C 
ATOM     14  C   UNL     1      33.313 -13.571 -23.653  0.00  0.00    +0.030 C 
ATOM     15  C   UNL     1      33.840 -15.113 -25.437  0.00  0.00    +0.030 C 
ATOM     16  C   UNL     1      33.254 -13.925 -25.002  0.00  0.00    +0.140 C 
ENDBRANCH   9  11
ENDBRANCH   2   9
BRANCH   1  17
ATOM     17  C   UNL     1      34.537 -20.605 -19.668  0.00  0.00    -0.052 C 
BRANCH  17  18
ATOM     18  C   UNL     1      35.486 -21.664 -19.126  0.00  0.00    +0.091 C 
BRANCH  18  21
ATOM     19  O   UNL     1      37.073 -21.850 -16.861  0.00  0.00    -0.267 OA
ATOM     20  O   UNL     1      32.870 -22.617 -18.759  0.00  0.00    -0.246 OA
ATOM     21  N   UNL     1      35.003 -22.210 -17.887  0.00  0.00    -0.251 N 
ATOM     22  N   UNL     1      33.258 -23.181 -16.588  0.00  0.00    -0.306 N 
ATOM     23  C   UNL     1      35.913 -22.252 -16.801  0.00  0.00    +0.265 A 
ATOM     24  C   UNL     1      33.658 -22.665 -17.810  0.00  0.00    +0.330 A 
ATOM     25  C   UNL     1      35.406 -22.817 -15.535  0.00  0.00    +0.072 A 
ATOM     26  C   UNL     1      34.090 -23.265 -15.469  0.00  0.00    +0.065 A 
ATOM     27  C   UNL     1      36.233 -22.903 -14.411  0.00  0.00    +0.006 C 
ATOM     28  C   UNL     1      33.591 -23.803 -14.279  0.00  0.00    +0.017 C 
ATOM     29  C   UNL     1      35.734 -23.442 -13.223  0.00  0.00    +0.000 C 
ATOM     30  C   UNL     1      34.416 -23.890 -13.158  0.00  0.00    +0.001 C 
ATOM     31  H   UNL     1      32.332 -23.506 -16.503  0.00  0.00    +0.170 HD
ENDBRANCH  18  21
ENDBRANCH  17  18
ENDBRANCH   1  17
TORSDOF 5
ENDMDL
MODEL 5
REMARK VINA RESULT:     -11.5      4.749     10.449
REMARK  Name = 3822
REMARK  5 active torsions:
REMARK  status: ('A' for Active; 'I' for Inactive)
REMARK    1  A    between atoms: N_1  and  C_17
REMARK    2  A    between atoms: C_2  and  C_9
REMARK    3  A    between atoms: C_9  and  C_11
REMARK    4  A    between atoms: C_17  and  C_18
REMARK    5  A    between atoms: C_18  and  N_21
REMARK                            x       y       z     vdW  Elec       q    Type
REMARK                         _______ _______ _______ _____ _____    ______ ____
ROOT
ATOM      1  N   UNL     1      34.947 -15.155 -21.446  0.00  0.00    +0.388 N 
ATOM      2  C   UNL     1      35.743 -17.887 -22.172  0.00  0.00    +0.058 C 
ATOM      3  C   UNL     1      35.544 -16.786 -23.213  0.00  0.00    -0.015 C 
ATOM      4  C   UNL     1      35.971 -17.305 -20.778  0.00  0.00    -0.015 C 
ATOM      5  C   UNL     1      34.565 -15.701 -22.755  0.00  0.00    -0.077 C 
ATOM      6  C   UNL     1      34.963 -16.207 -20.424  0.00  0.00    -0.077 C 
ATOM      7  H   UNL     1      35.889 -14.773 -21.524  0.00  0.00    -0.080 HD
ENDROOT
BRANCH   2   9
ATOM      8  O   UNL     1      33.768 -18.855 -23.077  0.00  0.00    -0.291 OA
ATOM      9  C   UNL     1      34.579 -18.835 -22.154  0.00  0.00    +0.172 C 
BRANCH   9  11
ATOM     10  F   UNL     1      33.969 -22.301 -17.819  0.00  0.00    -0.204 F 
ATOM     11  C   UNL     1      34.417 -19.761 -20.998  0.00  0.00    +0.035 C 
ATOM     12  C   UNL     1      35.537 -20.358 -20.465  0.00  0.00    +0.005 C 
ATOM     13  C   UNL     1      33.151 -19.983 -20.502  0.00  0.00    +0.005 C 
ATOM     14  C   UNL     1      35.385 -21.224 -19.382  0.00  0.00    +0.030 C 
ATOM     15  C   UNL     1      32.998 -20.849 -19.419  0.00  0.00    +0.030 C 
ATOM     16  C   UNL     1      34.115 -21.470 -18.859  0.00  0.00    +0.140 C 
ENDBRANCH   9  11
ENDBRANCH   2   9
BRANCH   1  17
ATOM     17  C   UNL     1      34.035 -14.078 -21.057  0.00  0.00    -0.052 C 
BRANCH  17  18
ATOM     18  C   UNL     1      33.108 -13.728 -22.210  0.00  0.00    +0.091 C 
BRANCH  18  21
ATOM     19  O   UNL     1      31.712 -12.034 -20.516  0.00  0.00    -0.267 OA
ATOM     20  O   UNL     1      34.390 -12.405 -24.331  0.00  0.00    -0.246 OA
ATOM     21  N   UNL     1      33.047 -12.306 -22.417  0.00  0.00    -0.251 N 
ATOM     22  N   UNL     1      33.634 -10.364 -23.666  0.00  0.00    -0.306 N 
ATOM     23  C   UNL     1      32.299 -11.549 -21.481  0.00  0.00    +0.265 A 
ATOM     24  C   UNL     1      33.734 -11.739 -23.525  0.00  0.00    +0.330 A 
ATOM     25  C   UNL     1      32.243 -10.091 -21.705  0.00  0.00    +0.072 A 
ATOM     26  C   UNL     1      32.914  -9.543 -22.794  0.00  0.00    +0.065 A 
ATOM     27  C   UNL     1      31.526  -9.263 -20.836  0.00  0.00    +0.006 C 
ATOM     28  C   UNL     1      32.873  -8.165 -23.023  0.00  0.00    +0.017 C 
ATOM     29  C   UNL     1      31.484  -7.887 -21.065  0.00  0.00    +0.000 C 
ATOM     30  C   UNL     1      32.158  -7.339 -22.157  0.00  0.00    +0.001 C 
ATOM     31  H   UNL     1      34.098  -9.941 -24.425  0.00  0.00    +0.170 HD
ENDBRANCH  18  21
ENDBRANCH  17  18
ENDBRANCH   1  17
TORSDOF 5
ENDMDL
MODEL 6
REMARK VINA RESULT:     -11.2      5.293     11.019
REMARK  Name = 3822
REMARK  5 active torsions:
REMARK  status: ('A' for Active; 'I' for Inactive)
REMARK    1  A    between atoms: N_1  and  C_17
REMARK    2  A    between atoms: C_2  and  C_9
REMARK    3  A    between atoms: C_9  and  C_11
REMARK    4  A    between atoms: C_17  and  C_18
REMARK    5  A    between atoms: C_18  and  N_21
REMARK                            x       y       z     vdW  Elec       q    Type
REMARK                         _______ _______ _______ _____ _____    ______ ____
ROOT
ATOM      1  N   UNL     1      33.758 -14.256 -23.698  0.00  0.00    +0.388 N 
ATOM      2  C   UNL     1      35.319 -16.743 -23.763  0.00  0.00    +0.058 C 
ATOM      3  C   UNL     1      34.669 -16.149 -25.012  0.00  0.00    -0.015 C 
ATOM      4  C   UNL     1      35.487 -15.693 -22.666  0.00  0.00    -0.015 C 
ATOM      5  C   UNL     1      33.443 -15.288 -24.695  0.00  0.00    -0.077 C 
ATOM      6  C   UNL     1      34.219 -14.863 -22.444  0.00  0.00    -0.077 C 
ATOM      7  H   UNL     1      34.513 -13.678 -24.067  0.00  0.00    -0.080 HD
ENDROOT
BRANCH   2   9
ATOM      8  O   UNL     1      33.483 -18.255 -23.783  0.00  0.00    -0.291 OA
ATOM      9  C   UNL     1      34.534 -17.914 -23.246  0.00  0.00    +0.172 C 
BRANCH   9  11
ATOM     10  F   UNL     1      36.457 -20.727 -18.823  0.00  0.00    -0.204 F 
ATOM     11  C   UNL     1      35.047 -18.665 -22.065  0.00  0.00    +0.035 C 
ATOM     12  C   UNL     1      34.181 -19.483 -21.374  0.00  0.00    +0.005 C 
ATOM     13  C   UNL     1      36.369 -18.514 -21.710  0.00  0.00    +0.005 C 
ATOM     14  C   UNL     1      34.662 -20.185 -20.269  0.00  0.00    +0.030 C 
ATOM     15  C   UNL     1      36.850 -19.216 -20.605  0.00  0.00    +0.030 C 
ATOM     16  C   UNL     1      35.997 -20.052 -19.884  0.00  0.00    +0.140 C 
ENDBRANCH   9  11
ENDBRANCH   2   9
BRANCH   1  17
ATOM     17  C   UNL     1      32.591 -13.406 -23.456  0.00  0.00    -0.052 C 
BRANCH  17  18
ATOM     18  C   UNL     1      32.741 -12.667 -22.135  0.00  0.00    +0.091 C 
BRANCH  18  21
ATOM     19  O   UNL     1      31.319 -10.780 -20.686  0.00  0.00    -0.267 OA
ATOM     20  O   UNL     1      34.509 -11.557 -24.014  0.00  0.00    -0.246 OA
ATOM     21  N   UNL     1      32.898 -11.254 -22.344  0.00  0.00    -0.251 N 
ATOM     22  N   UNL     1      33.924  -9.425 -23.475  0.00  0.00    -0.306 N 
ATOM     23  C   UNL     1      32.112 -10.391 -21.540  0.00  0.00    +0.265 A 
ATOM     24  C   UNL     1      33.823 -10.799 -23.324  0.00  0.00    +0.330 A 
ATOM     25  C   UNL     1      32.281  -8.942 -21.766  0.00  0.00    +0.072 A 
ATOM     26  C   UNL     1      33.184  -8.503 -22.729  0.00  0.00    +0.065 A 
ATOM     27  C   UNL     1      31.544  -8.014 -21.023  0.00  0.00    +0.006 C 
ATOM     28  C   UNL     1      33.358  -7.136 -22.958  0.00  0.00    +0.017 C 
ATOM     29  C   UNL     1      31.717  -6.648 -21.252  0.00  0.00    +0.000 C 
ATOM     30  C   UNL     1      32.623  -6.210 -22.217  0.00  0.00    +0.001 C 
ATOM     31  H   UNL     1      34.555  -9.078 -24.147  0.00  0.00    +0.170 HD
ENDBRANCH  18  21
ENDBRANCH  17  18
ENDBRANCH   1  17
TORSDOF 5
ENDMDL
MODEL 7
REMARK VINA RESULT:     -10.8      5.379     11.006
REMARK  Name = 3822
REMARK  5 active torsions:
REMARK  status: ('A' for Active; 'I' for Inactive)
REMARK    1  A    between atoms: N_1  and  C_17
REMARK    2  A    between atoms: C_2  and  C_9
REMARK    3  A    between atoms: C_9  and  C_11
REMARK    4  A    between atoms: C_17  and  C_18
REMARK    5  A    between atoms: C_18  and  N_21
REMARK                            x       y       z     vdW  Elec       q    Type
REMARK                         _______ _______ _______ _____ _____    ______ ____
ROOT
ATOM      1  N   UNL     1      33.709 -14.129 -23.645  0.00  0.00    +0.388 N 
ATOM      2  C   UNL     1      35.278 -16.599 -23.889  0.00  0.00    +0.058 C 
ATOM      3  C   UNL     1      34.554 -15.966 -25.077  0.00  0.00    -0.015 C 
ATOM      4  C   UNL     1      35.503 -15.588 -22.767  0.00  0.00    -0.015 C 
ATOM      5  C   UNL     1      33.344 -15.126 -24.659  0.00  0.00    -0.077 C 
ATOM      6  C   UNL     1      34.246 -14.776 -22.443  0.00  0.00    -0.077 C 
ATOM      7  H   UNL     1      34.439 -13.531 -24.036  0.00  0.00    -0.080 HD
ENDROOT
BRANCH   2   9
ATOM      8  O   UNL     1      33.484 -18.160 -23.898  0.00  0.00    -0.291 OA
ATOM      9  C   UNL     1      34.531 -17.794 -23.371  0.00  0.00    +0.172 C 
BRANCH   9  11
ATOM     10  F   UNL     1      36.581 -20.579 -18.987  0.00  0.00    -0.204 F 
ATOM     11  C   UNL     1      35.078 -18.537 -22.200  0.00  0.00    +0.035 C 
ATOM     12  C   UNL     1      34.251 -19.405 -21.523  0.00  0.00    +0.005 C 
ATOM     13  C   UNL     1      36.391 -18.329 -21.841  0.00  0.00    +0.005 C 
ATOM     14  C   UNL     1      34.763 -20.101 -20.428  0.00  0.00    +0.030 C 
ATOM     15  C   UNL     1      36.903 -19.025 -20.746  0.00  0.00    +0.030 C 
ATOM     16  C   UNL     1      36.090 -19.911 -20.039  0.00  0.00    +0.140 C 
ENDBRANCH   9  11
ENDBRANCH   2   9
BRANCH   1  17
ATOM     17  C   UNL     1      32.554 -13.297 -23.306  0.00  0.00    -0.052 C 
BRANCH  17  18
ATOM     18  C   UNL     1      32.723 -12.698 -21.918  0.00  0.00    +0.091 C 
BRANCH  18  21
ATOM     19  O   UNL     1      34.243 -10.940 -23.429  0.00  0.00    -0.267 OA
ATOM     20  O   UNL     1      30.680 -11.454 -20.446  0.00  0.00    -0.246 OA
ATOM     21  N   UNL     1      32.482 -11.281 -21.930  0.00  0.00    -0.251 N 
ATOM     22  N   UNL     1      31.242  -9.381 -21.201  0.00  0.00    -0.306 N 
ATOM     23  C   UNL     1      33.330 -10.488 -22.742  0.00  0.00    +0.265 A 
ATOM     24  C   UNL     1      31.419 -10.755 -21.145  0.00  0.00    +0.330 A 
ATOM     25  C   UNL     1      33.073  -9.034 -22.744  0.00  0.00    +0.072 A 
ATOM     26  C   UNL     1      32.034  -8.525 -21.971  0.00  0.00    +0.065 A 
ATOM     27  C   UNL     1      33.862  -8.172 -23.512  0.00  0.00    +0.006 C 
ATOM     28  C   UNL     1      31.776  -7.152 -21.958  0.00  0.00    +0.017 C 
ATOM     29  C   UNL     1      33.603  -6.800 -23.499  0.00  0.00    +0.000 C 
ATOM     30  C   UNL     1      32.562  -6.291 -22.724  0.00  0.00    +0.001 C 
ATOM     31  H   UNL     1      30.515  -8.986 -20.668  0.00  0.00    +0.170 HD
ENDBRANCH  18  21
ENDBRANCH  17  18
ENDBRANCH   1  17
TORSDOF 5
ENDMDL
MODEL 8
REMARK VINA RESULT:     -10.8      4.090      9.224
REMARK  Name = 3822
REMARK  5 active torsions:
REMARK  status: ('A' for Active; 'I' for Inactive)
REMARK    1  A    between atoms: N_1  and  C_17
REMARK    2  A    between atoms: C_2  and  C_9
REMARK    3  A    between atoms: C_9  and  C_11
REMARK    4  A    between atoms: C_17  and  C_18
REMARK    5  A    between atoms: C_18  and  N_21
REMARK                            x       y       z     vdW  Elec       q    Type
REMARK                         _______ _______ _______ _____ _____    ______ ____
ROOT
ATOM      1  N   UNL     1      33.227 -23.176 -13.872  0.00  0.00    +0.388 N 
ATOM      2  C   UNL     1      30.624 -24.315 -13.129  0.00  0.00    +0.058 C 
ATOM      3  C   UNL     1      31.941 -25.057 -12.900  0.00  0.00    -0.015 C 
ATOM      4  C   UNL     1      30.849 -22.813 -13.295  0.00  0.00    -0.015 C 
ATOM      5  C   UNL     1      33.043 -24.633 -13.874  0.00  0.00    -0.077 C 
ATOM      6  C   UNL     1      31.990 -22.491 -14.264  0.00  0.00    -0.077 C 
ATOM      7  H   UNL     1      33.463 -22.887 -12.922  0.00  0.00    -0.080 HD
ENDROOT
BRANCH   2   9
ATOM      8  O   UNL     1      30.076 -26.019 -14.695  0.00  0.00    -0.291 OA
ATOM      9  C   UNL     1      29.891 -24.865 -14.318  0.00  0.00    +0.172 C 
BRANCH   9  11
ATOM     10  F   UNL     1      26.275 -21.584 -17.028  0.00  0.00    -0.204 F 
ATOM     11  C   UNL     1      28.926 -23.989 -15.042  0.00  0.00    +0.035 C 
ATOM     12  C   UNL     1      28.727 -24.195 -16.388  0.00  0.00    +0.005 C 
ATOM     13  C   UNL     1      28.268 -23.007 -14.335  0.00  0.00    +0.005 C 
ATOM     14  C   UNL     1      27.824 -23.376 -17.065  0.00  0.00    +0.030 C 
ATOM     15  C   UNL     1      27.365 -22.187 -15.012  0.00  0.00    +0.030 C 
ATOM     16  C   UNL     1      27.142 -22.371 -16.377  0.00  0.00    +0.140 C 
ENDBRANCH   9  11
ENDBRANCH   2   9
BRANCH   1  17
ATOM     17  C   UNL     1      34.325 -22.798 -14.763  0.00  0.00    -0.052 C 
BRANCH  17  18
ATOM     18  C   UNL     1      34.229 -23.565 -16.073  0.00  0.00    +0.091 C 
BRANCH  18  21
ATOM     19  O   UNL     1      36.425 -22.361 -17.263  0.00  0.00    -0.267 OA
ATOM     20  O   UNL     1      31.780 -22.889 -17.269  0.00  0.00    -0.246 OA
ATOM     21  N   UNL     1      34.108 -22.672 -17.192  0.00  0.00    -0.251 N 
ATOM     22  N   UNL     1      32.772 -21.526 -18.798  0.00  0.00    -0.306 N 
ATOM     23  C   UNL     1      35.306 -22.118 -17.710  0.00  0.00    +0.265 A 
ATOM     24  C   UNL     1      32.817 -22.397 -17.721  0.00  0.00    +0.330 A 
ATOM     25  C   UNL     1      35.168 -21.201 -18.858  0.00  0.00    +0.072 A 
ATOM     26  C   UNL     1      33.901 -20.933 -19.367  0.00  0.00    +0.065 A 
ATOM     27  C   UNL     1      36.294 -20.604 -19.433  0.00  0.00    +0.006 C 
ATOM     28  C   UNL     1      33.750 -20.066 -20.453  0.00  0.00    +0.017 C 
ATOM     29  C   UNL     1      36.143 -19.738 -20.517  0.00  0.00    +0.000 C 
ATOM     30  C   UNL     1      34.873 -19.470 -21.027  0.00  0.00    +0.001 C 
ATOM     31  H   UNL     1      31.892 -21.315 -19.186  0.00  0.00    +0.170 HD
ENDBRANCH  18  21
ENDBRANCH  17  18
ENDBRANCH   1  17
TORSDOF 5
ENDMDL
MODEL 9
REMARK VINA RESULT:     -10.8      2.126      3.474
REMARK  Name = 3822
REMARK  5 active torsions:
REMARK  status: ('A' for Active; 'I' for Inactive)
REMARK    1  A    between atoms: N_1  and  C_17
REMARK    2  A    between atoms: C_2  and  C_9
REMARK    3  A    between atoms: C_9  and  C_11
REMARK    4  A    between atoms: C_17  and  C_18
REMARK    5  A    between atoms: C_18  and  N_21
REMARK                            x       y       z     vdW  Elec       q    Type
REMARK                         _______ _______ _______ _____ _____    ______ ____
ROOT
ATOM      1  N   UNL     1      35.045 -17.891 -22.197  0.00  0.00    +0.388 N 
ATOM      2  C   UNL     1      34.918 -16.167 -24.571  0.00  0.00    +0.058 C 
ATOM      3  C   UNL     1      35.657 -15.757 -23.297  0.00  0.00    -0.015 C 
ATOM      4  C   UNL     1      34.716 -17.680 -24.639  0.00  0.00    -0.015 C 
ATOM      5  C   UNL     1      35.101 -16.431 -22.040  0.00  0.00    -0.077 C 
ATOM      6  C   UNL     1      34.187 -18.265 -23.327  0.00  0.00    -0.077 C 
ATOM      7  H   UNL     1      35.989 -18.226 -22.391  0.00  0.00    -0.080 HD
ENDROOT
BRANCH   2   9
ATOM      8  O   UNL     1      32.591 -16.061 -25.052  0.00  0.00    -0.291 OA
ATOM      9  C   UNL     1      33.598 -15.461 -24.683  0.00  0.00    +0.172 C 
BRANCH   9  11
ATOM     10  F   UNL     1      33.308 -10.034 -23.400  0.00  0.00    -0.204 F 
ATOM     11  C   UNL     1      33.520 -14.012 -24.341  0.00  0.00    +0.035 C 
ATOM     12  C   UNL     1      33.228 -13.654 -23.044  0.00  0.00    +0.005 C 
ATOM     13  C   UNL     1      33.745 -13.085 -25.334  0.00  0.00    +0.005 C 
ATOM     14  C   UNL     1      33.156 -12.298 -22.723  0.00  0.00    +0.030 C 
ATOM     15  C   UNL     1      33.672 -11.730 -25.014  0.00  0.00    +0.030 C 
ATOM     16  C   UNL     1      33.378 -11.336 -23.709  0.00  0.00    +0.140 C 
ENDBRANCH   9  11
ENDBRANCH   2   9
BRANCH   1  17
ATOM     17  C   UNL     1      34.569 -18.519 -20.964  0.00  0.00    -0.052 C 
BRANCH  17  18
ATOM     18  C   UNL     1      34.578 -20.034 -21.105  0.00  0.00    +0.091 C 
BRANCH  18  21
ATOM     19  O   UNL     1      32.779 -21.560 -19.649  0.00  0.00    -0.267 OA
ATOM     20  O   UNL     1      37.130 -19.873 -19.942  0.00  0.00    -0.246 OA
ATOM     21  N   UNL     1      34.931 -20.670 -19.865  0.00  0.00    -0.251 N 
ATOM     22  N   UNL     1      36.526 -21.161 -18.165  0.00  0.00    -0.306 N 
ATOM     23  C   UNL     1      33.921 -21.422 -19.214  0.00  0.00    +0.265 A 
ATOM     24  C   UNL     1      36.254 -20.523 -19.364  0.00  0.00    +0.330 A 
ATOM     25  C   UNL     1      34.294 -22.069 -17.941  0.00  0.00    +0.072 A 
ATOM     26  C   UNL     1      35.589 -21.917 -17.455  0.00  0.00    +0.065 A 
ATOM     27  C   UNL     1      33.363 -22.827 -17.227  0.00  0.00    +0.006 C 
ATOM     28  C   UNL     1      35.962 -22.521 -16.251  0.00  0.00    +0.017 C 
ATOM     29  C   UNL     1      33.735 -23.430 -16.024  0.00  0.00    +0.000 C 
ATOM     30  C   UNL     1      35.033 -23.278 -15.538  0.00  0.00    +0.001 C 
ATOM     31  H   UNL     1      37.433 -21.077 -17.791  0.00  0.00    +0.170 HD
ENDBRANCH  18  21
ENDBRANCH  17  18
ENDBRANCH   1  17
TORSDOF 5
ENDMDL
