MODEL 1
REMARK VINA RESULT:     -11.7      0.000      0.000
REMARK  Name = 16040323
REMARK  5 active torsions:
REMARK  status: ('A' for Active; 'I' for Inactive)
REMARK    1  A    between atoms: C_1  and  C_2
REMARK    2  A    between atoms: C_1  and  C_16
REMARK    3  A    between atoms: C_5  and  C_8
REMARK    4  A    between atoms: C_11  and  O_14
REMARK    5  A    between atoms: C_16  and  C_21
REMARK                            x       y       z     vdW  Elec       q    Type
REMARK                         _______ _______ _______ _____ _____    ______ ____
ROOT
ATOM      1  C   UNL     1      36.186 -22.915 -16.137  0.00  0.00    +0.028 C 
ENDROOT
BRANCH   1   2
ATOM      2  C   UNL     1      35.257 -22.382 -17.197  0.00  0.00    -0.022 C 
ATOM      3  C   UNL     1      35.749 -21.515 -18.161  0.00  0.00    -0.004 C 
ATOM      4  C   UNL     1      33.924 -22.766 -17.191  0.00  0.00    -0.004 C 
ATOM      5  C   UNL     1      34.889 -21.021 -19.143  0.00  0.00    -0.000 C 
ATOM      6  C   UNL     1      33.064 -22.273 -18.172  0.00  0.00    -0.000 C 
ATOM      7  C   UNL     1      33.547 -21.400 -19.148  0.00  0.00    -0.000 C 
BRANCH   5   8
ATOM      8  C   UNL     1      35.389 -20.116 -20.155  0.00  0.00    +0.003 C 
ATOM      9  C   UNL     1      34.566 -19.729 -21.212  0.00  0.00    +0.037 C 
ATOM     10  C   UNL     1      36.694 -19.631 -20.073  0.00  0.00    +0.000 C 
ATOM     11  C   UNL     1      35.047 -18.856 -22.187  0.00  0.00    +0.139 C 
ATOM     12  C   UNL     1      37.176 -18.759 -21.049  0.00  0.00    +0.003 C 
ATOM     13  C   UNL     1      36.352 -18.371 -22.105  0.00  0.00    +0.037 C 
BRANCH  11  14
ATOM     14  O   UNL     1      34.245 -18.477 -23.219  0.00  0.00    -0.471 OA
ATOM     15  C   UNL     1      34.570 -17.255 -23.880  0.00  0.00    +0.252 C 
ENDBRANCH  11  14
ENDBRANCH   5   8
ENDBRANCH   1   2
BRANCH   1  16
ATOM     16  C   UNL     1      35.793 -22.407 -14.755  0.00  0.00    +0.028 C 
BRANCH  16  21
ATOM     17  O   UNL     1      38.168 -23.046 -11.697  0.00  0.00    -0.274 OA
ATOM     18  N   UNL     1      35.759 -24.830 -14.473  0.00  0.00    -0.247 NA
ATOM     19  N   UNL     1      37.836 -24.691 -13.335  0.00  0.00    -0.231 N 
ATOM     20  N   UNL     1      37.343 -26.449 -14.892  0.00  0.00    -0.331 N 
ATOM     21  C   UNL     1      35.356 -23.568 -13.849  0.00  0.00    +0.096 C 
ATOM     22  C   UNL     1      35.943 -23.453 -12.447  0.00  0.00    +0.108 C 
ATOM     23  C   UNL     1      33.824 -23.582 -13.759  0.00  0.00    +0.025 C 
ATOM     24  C   UNL     1      37.434 -23.674 -12.457  0.00  0.00    +0.233 C 
ATOM     25  C   UNL     1      36.945 -25.307 -14.239  0.00  0.00    +0.183 C 
ATOM     26  C   UNL     1      39.236 -25.111 -13.291  0.00  0.00    +0.123 C 
ATOM     27  H   UNL     1      36.734 -26.892 -15.527  0.00  0.00    +0.145 HD
ATOM     28  H   UNL     1      38.238 -26.825 -14.726  0.00  0.00    +0.145 HD
ENDBRANCH  16  21
ENDBRANCH   1  16
TORSDOF 5
ENDMDL
MODEL 2
REMARK VINA RESULT:     -11.5      6.619     11.289
REMARK  Name = 16040323
REMARK  5 active torsions:
REMARK  status: ('A' for Active; 'I' for Inactive)
REMARK    1  A    between atoms: C_1  and  C_2
REMARK    2  A    between atoms: C_1  and  C_16
REMARK    3  A    between atoms: C_5  and  C_8
REMARK    4  A    between atoms: C_11  and  O_14
REMARK    5  A    between atoms: C_16  and  C_21
REMARK                            x       y       z     vdW  Elec       q    Type
REMARK                         _______ _______ _______ _____ _____    ______ ____
ROOT
ATOM      1  C   UNL     1      34.834 -14.806 -20.830  0.00  0.00    +0.028 C 
ENDROOT
BRANCH   1   2
ATOM      2  C   UNL     1      35.000 -16.179 -21.429  0.00  0.00    -0.022 C 
ATOM      3  C   UNL     1      35.018 -17.289 -20.597  0.00  0.00    -0.004 C 
ATOM      4  C   UNL     1      35.133 -16.312 -22.804  0.00  0.00    -0.004 C 
ATOM      5  C   UNL     1      35.172 -18.560 -21.152  0.00  0.00    -0.000 C 
ATOM      6  C   UNL     1      35.287 -17.582 -23.359  0.00  0.00    -0.000 C 
ATOM      7  C   UNL     1      35.307 -18.706 -22.532  0.00  0.00    -0.000 C 
BRANCH   5   8
ATOM      8  C   UNL     1      35.192 -19.726 -20.296  0.00  0.00    +0.003 C 
ATOM      9  C   UNL     1      33.996 -20.334 -19.918  0.00  0.00    +0.037 C 
ATOM     10  C   UNL     1      36.409 -20.242 -19.850  0.00  0.00    +0.000 C 
ATOM     11  C   UNL     1      34.015 -21.459 -19.093  0.00  0.00    +0.139 C 
ATOM     12  C   UNL     1      36.428 -21.366 -19.025  0.00  0.00    +0.003 C 
ATOM     13  C   UNL     1      35.232 -21.975 -18.647  0.00  0.00    +0.037 C 
BRANCH  11  14
ATOM     14  O   UNL     1      32.848 -22.053 -18.723  0.00  0.00    -0.471 OA
ATOM     15  C   UNL     1      32.825 -22.707 -17.456  0.00  0.00    +0.252 C 
ENDBRANCH  11  14
ENDBRANCH   5   8
ENDBRANCH   1   2
BRANCH   1  16
ATOM     16  C   UNL     1      34.811 -13.733 -21.912  0.00  0.00    +0.028 C 
BRANCH  16  21
ATOM     17  O   UNL     1      33.201 -14.189 -25.461  0.00  0.00    -0.274 OA
ATOM     18  N   UNL     1      33.536 -11.681 -22.254  0.00  0.00    -0.247 NA
ATOM     19  N   UNL     1      33.632 -12.054 -24.595  0.00  0.00    -0.231 N 
ATOM     20  N   UNL     1      33.879  -9.868 -23.633  0.00  0.00    -0.331 N 
ATOM     21  C   UNL     1      33.406 -13.126 -22.050  0.00  0.00    +0.096 C 
ATOM     22  C   UNL     1      32.619 -13.759 -23.191  0.00  0.00    +0.108 C 
ATOM     23  C   UNL     1      32.644 -13.327 -20.733  0.00  0.00    +0.025 C 
ATOM     24  C   UNL     1      33.200 -13.386 -24.531  0.00  0.00    +0.233 C 
ATOM     25  C   UNL     1      33.678 -11.218 -23.459  0.00  0.00    +0.183 C 
ATOM     26  C   UNL     1      34.045 -11.536 -25.898  0.00  0.00    +0.123 C 
ATOM     27  H   UNL     1      33.914  -9.270 -22.851  0.00  0.00    +0.145 HD
ATOM     28  H   UNL     1      33.989  -9.500 -24.539  0.00  0.00    +0.145 HD
ENDBRANCH  16  21
ENDBRANCH   1  16
TORSDOF 5
ENDMDL
MODEL 3
REMARK VINA RESULT:     -11.4      1.607      2.483
REMARK  Name = 16040323
REMARK  5 active torsions:
REMARK  status: ('A' for Active; 'I' for Inactive)
REMARK    1  A    between atoms: C_1  and  C_2
REMARK    2  A    between atoms: C_1  and  C_16
REMARK    3  A    between atoms: C_5  and  C_8
REMARK    4  A    between atoms: C_11  and  O_14
REMARK    5  A    between atoms: C_16  and  C_21
REMARK                            x       y       z     vdW  Elec       q    Type
REMARK                         _______ _______ _______ _____ _____    ______ ____
ROOT
ATOM      1  C   UNL     1      37.430 -22.139 -16.493  0.00  0.00    +0.028 C 
ENDROOT
BRANCH   1   2
ATOM      2  C   UNL     1      36.273 -21.880 -17.423  0.00  0.00    -0.022 C 
ATOM      3  C   UNL     1      36.439 -21.014 -18.494  0.00  0.00    -0.004 C 
ATOM      4  C   UNL     1      35.060 -22.513 -17.194  0.00  0.00    -0.004 C 
ATOM      5  C   UNL     1      35.368 -20.775 -19.356  0.00  0.00    -0.000 C 
ATOM      6  C   UNL     1      33.989 -22.274 -18.055  0.00  0.00    -0.000 C 
ATOM      7  C   UNL     1      34.143 -21.405 -19.136  0.00  0.00    -0.000 C 
BRANCH   5   8
ATOM      8  C   UNL     1      35.527 -19.875 -20.477  0.00  0.00    +0.003 C 
ATOM      9  C   UNL     1      34.509 -19.749 -21.421  0.00  0.00    +0.037 C 
ATOM     10  C   UNL     1      36.700 -19.132 -20.612  0.00  0.00    +0.000 C 
ATOM     11  C   UNL     1      34.662 -18.880 -22.501  0.00  0.00    +0.139 C 
ATOM     12  C   UNL     1      36.853 -18.263 -21.693  0.00  0.00    +0.003 C 
ATOM     13  C   UNL     1      35.834 -18.137 -22.637  0.00  0.00    +0.037 C 
BRANCH  11  14
ATOM     14  O   UNL     1      33.668 -18.757 -23.423  0.00  0.00    -0.471 OA
ATOM     15  C   UNL     1      33.901 -17.867 -24.514  0.00  0.00    +0.252 C 
ENDBRANCH  11  14
ENDBRANCH   5   8
ENDBRANCH   1   2
BRANCH   1  16
ATOM     16  C   UNL     1      36.958 -22.265 -15.050  0.00  0.00    +0.028 C 
BRANCH  16  21
ATOM     17  O   UNL     1      34.181 -24.805 -13.937  0.00  0.00    -0.274 OA
ATOM     18  N   UNL     1      37.852 -23.268 -13.014  0.00  0.00    -0.247 NA
ATOM     19  N   UNL     1      35.644 -23.850 -12.372  0.00  0.00    -0.231 N 
ATOM     20  N   UNL     1      37.263 -23.038 -10.798  0.00  0.00    -0.331 N 
ATOM     21  C   UNL     1      37.500 -23.551 -14.407  0.00  0.00    +0.096 C 
ATOM     22  C   UNL     1      36.498 -24.696 -14.484  0.00  0.00    +0.108 C 
ATOM     23  C   UNL     1      38.795 -23.958 -15.123  0.00  0.00    +0.025 C 
ATOM     24  C   UNL     1      35.306 -24.442 -13.598  0.00  0.00    +0.233 C 
ATOM     25  C   UNL     1      36.945 -23.383 -12.091  0.00  0.00    +0.183 C 
ATOM     26  C   UNL     1      34.591 -23.725 -11.366  0.00  0.00    +0.123 C 
ATOM     27  H   UNL     1      38.167 -22.710 -10.584  0.00  0.00    +0.145 HD
ATOM     28  H   UNL     1      36.588 -23.119 -10.087  0.00  0.00    +0.145 HD
ENDBRANCH  16  21
ENDBRANCH   1  16
TORSDOF 5
ENDMDL
MODEL 4
REMARK VINA RESULT:     -10.5      8.874     13.284
REMARK  Name = 16040323
REMARK  5 active torsions:
REMARK  status: ('A' for Active; 'I' for Inactive)
REMARK    1  A    between atoms: C_1  and  C_2
REMARK    2  A    between atoms: C_1  and  C_16
REMARK    3  A    between atoms: C_5  and  C_8
REMARK    4  A    between atoms: C_11  and  O_14
REMARK    5  A    between atoms: C_16  and  C_21
REMARK                            x       y       z     vdW  Elec       q    Type
REMARK                         _______ _______ _______ _____ _____    ______ ____
ROOT
ATOM      1  C   UNL     1      34.071  -9.690 -24.112  0.00  0.00    +0.028 C 
ENDROOT
BRANCH   1   2
ATOM      2  C   UNL     1      33.864 -11.168 -24.323  0.00  0.00    -0.022 C 
ATOM      3  C   UNL     1      34.226 -12.057 -23.322  0.00  0.00    -0.004 C 
ATOM      4  C   UNL     1      33.316 -11.616 -25.516  0.00  0.00    -0.004 C 
ATOM      5  C   UNL     1      34.034 -13.425 -23.517  0.00  0.00    -0.000 C 
ATOM      6  C   UNL     1      33.124 -12.984 -25.711  0.00  0.00    -0.000 C 
ATOM      7  C   UNL     1      33.484 -13.888 -24.711  0.00  0.00    -0.000 C 
BRANCH   5   8
ATOM      8  C   UNL     1      34.406 -14.363 -22.480  0.00  0.00    +0.003 C 
ATOM      9  C   UNL     1      34.929 -15.610 -22.823  0.00  0.00    +0.037 C 
ATOM     10  C   UNL     1      34.243 -14.020 -21.139  0.00  0.00    +0.000 C 
ATOM     11  C   UNL     1      35.288 -16.514 -21.824  0.00  0.00    +0.139 C 
ATOM     12  C   UNL     1      34.602 -14.925 -20.139  0.00  0.00    +0.003 C 
ATOM     13  C   UNL     1      35.125 -16.171 -20.482  0.00  0.00    +0.037 C 
BRANCH  11  14
ATOM     14  O   UNL     1      35.798 -17.732 -22.158  0.00  0.00    -0.471 OA
ATOM     15  C   UNL     1      34.865 -18.784 -22.393  0.00  0.00    +0.252 C 
ENDBRANCH  11  14
ENDBRANCH   5   8
ENDBRANCH   1   2
BRANCH   1  16
ATOM     16  C   UNL     1      33.831  -9.303 -22.658  0.00  0.00    +0.028 C 
BRANCH  16  21
ATOM     17  O   UNL     1      33.176  -7.825 -19.082  0.00  0.00    -0.274 OA
ATOM     18  N   UNL     1      31.463  -9.735 -22.262  0.00  0.00    -0.247 NA
ATOM     19  N   UNL     1      31.860  -9.571 -19.928  0.00  0.00    -0.231 N 
ATOM     20  N   UNL     1      30.382 -11.213 -20.865  0.00  0.00    -0.331 N 
ATOM     21  C   UNL     1      32.443  -8.669 -22.482  0.00  0.00    +0.096 C 
ATOM     22  C   UNL     1      32.412  -7.667 -21.334  0.00  0.00    +0.108 C 
ATOM     23  C   UNL     1      32.050  -7.960 -23.785  0.00  0.00    +0.025 C 
ATOM     24  C   UNL     1      32.557  -8.357 -20.002  0.00  0.00    +0.233 C 
ATOM     25  C   UNL     1      31.244 -10.158 -21.054  0.00  0.00    +0.183 C 
ATOM     26  C   UNL     1      31.784 -10.233 -18.627  0.00  0.00    +0.123 C 
ATOM     27  H   UNL     1      29.943 -11.636 -21.640  0.00  0.00    +0.145 HD
ATOM     28  H   UNL     1      30.204 -11.548 -19.956  0.00  0.00    +0.145 HD
ENDBRANCH  16  21
ENDBRANCH   1  16
TORSDOF 5
ENDMDL
MODEL 5
REMARK VINA RESULT:     -10.2     10.656     15.416
REMARK  Name = 16040323
REMARK  5 active torsions:
REMARK  status: ('A' for Active; 'I' for Inactive)
REMARK    1  A    between atoms: C_1  and  C_2
REMARK    2  A    between atoms: C_1  and  C_16
REMARK    3  A    between atoms: C_5  and  C_8
REMARK    4  A    between atoms: C_11  and  O_14
REMARK    5  A    between atoms: C_16  and  C_21
REMARK                            x       y       z     vdW  Elec       q    Type
REMARK                         _______ _______ _______ _____ _____    ______ ____
ROOT
ATOM      1  C   UNL     1      32.675  -8.949 -22.815  0.00  0.00    +0.028 C 
ENDROOT
BRANCH   1   2
ATOM      2  C   UNL     1      32.512 -10.327 -22.227  0.00  0.00    -0.022 C 
ATOM      3  C   UNL     1      33.082 -11.416 -22.870  0.00  0.00    -0.004 C 
ATOM      4  C   UNL     1      31.793 -10.486 -21.051  0.00  0.00    -0.004 C 
ATOM      5  C   UNL     1      32.931 -12.691 -22.326  0.00  0.00    -0.000 C 
ATOM      6  C   UNL     1      31.641 -11.761 -20.506  0.00  0.00    -0.000 C 
ATOM      7  C   UNL     1      32.211 -12.864 -21.144  0.00  0.00    -0.000 C 
BRANCH   5   8
ATOM      8  C   UNL     1      33.522 -13.835 -22.986  0.00  0.00    +0.003 C 
ATOM      9  C   UNL     1      34.332 -14.714 -22.268  0.00  0.00    +0.037 C 
ATOM     10  C   UNL     1      33.280 -14.059 -24.341  0.00  0.00    +0.000 C 
ATOM     11  C   UNL     1      34.900 -15.817 -22.904  0.00  0.00    +0.139 C 
ATOM     12  C   UNL     1      33.849 -15.162 -24.978  0.00  0.00    +0.003 C 
ATOM     13  C   UNL     1      34.658 -16.041 -24.260  0.00  0.00    +0.037 C 
BRANCH  11  14
ATOM     14  O   UNL     1      35.691 -16.675 -22.204  0.00  0.00    -0.471 OA
ATOM     15  C   UNL     1      35.330 -16.931 -20.848  0.00  0.00    +0.252 C 
ENDBRANCH  11  14
ENDBRANCH   5   8
ENDBRANCH   1   2
BRANCH   1  16
ATOM     16  C   UNL     1      31.801  -7.934 -22.088  0.00  0.00    +0.028 C 
BRANCH  16  21
ATOM     17  O   UNL     1      30.182  -4.376 -22.429  0.00  0.00    -0.274 OA
ATOM     18  N   UNL     1      33.700  -6.452 -22.472  0.00  0.00    -0.247 NA
ATOM     19  N   UNL     1      32.227  -4.877 -23.461  0.00  0.00    -0.231 N 
ATOM     20  N   UNL     1      34.414  -5.319 -24.346  0.00  0.00    -0.331 N 
ATOM     21  C   UNL     1      32.653  -6.795 -21.507  0.00  0.00    +0.096 C 
ATOM     22  C   UNL     1      31.815  -5.569 -21.168  0.00  0.00    +0.108 C 
ATOM     23  C   UNL     1      33.357  -7.296 -20.239  0.00  0.00    +0.025 C 
ATOM     24  C   UNL     1      31.295  -4.899 -22.414  0.00  0.00    +0.233 C 
ATOM     25  C   UNL     1      33.452  -5.576 -23.397  0.00  0.00    +0.183 C 
ATOM     26  C   UNL     1      31.894  -4.096 -24.650  0.00  0.00    +0.123 C 
ATOM     27  H   UNL     1      35.274  -5.797 -24.317  0.00  0.00    +0.145 HD
ATOM     28  H   UNL     1      34.242  -4.657 -25.055  0.00  0.00    +0.145 HD
ENDBRANCH  16  21
ENDBRANCH   1  16
TORSDOF 5
ENDMDL
MODEL 6
REMARK VINA RESULT:     -10.1      1.573      2.278
REMARK  Name = 16040323
REMARK  5 active torsions:
REMARK  status: ('A' for Active; 'I' for Inactive)
REMARK    1  A    between atoms: C_1  and  C_2
REMARK    2  A    between atoms: C_1  and  C_16
REMARK    3  A    between atoms: C_5  and  C_8
REMARK    4  A    between atoms: C_11  and  O_14
REMARK    5  A    between atoms: C_16  and  C_21
REMARK                            x       y       z     vdW  Elec       q    Type
REMARK                         _______ _______ _______ _____ _____    ______ ____
ROOT
ATOM      1  C   UNL     1      34.853 -23.939 -15.476  0.00  0.00    +0.028 C 
ENDROOT
BRANCH   1   2
ATOM      2  C   UNL     1      34.093 -23.135 -16.500  0.00  0.00    -0.022 C 
ATOM      3  C   UNL     1      34.792 -22.377 -17.428  0.00  0.00    -0.004 C 
ATOM      4  C   UNL     1      32.706 -23.165 -16.498  0.00  0.00    -0.004 C 
ATOM      5  C   UNL     1      34.088 -21.633 -18.375  0.00  0.00    -0.000 C 
ATOM      6  C   UNL     1      32.002 -22.421 -17.444  0.00  0.00    -0.000 C 
ATOM      7  C   UNL     1      32.694 -21.655 -18.384  0.00  0.00    -0.000 C 
BRANCH   5   8
ATOM      8  C   UNL     1      34.805 -20.839 -19.349  0.00  0.00    +0.003 C 
ATOM      9  C   UNL     1      34.125 -20.286 -20.434  0.00  0.00    +0.037 C 
ATOM     10  C   UNL     1      36.175 -20.625 -19.202  0.00  0.00    +0.000 C 
ATOM     11  C   UNL     1      34.816 -19.519 -21.373  0.00  0.00    +0.139 C 
ATOM     12  C   UNL     1      36.866 -19.860 -20.142  0.00  0.00    +0.003 C 
ATOM     13  C   UNL     1      36.186 -19.306 -21.226  0.00  0.00    +0.037 C 
BRANCH  11  14
ATOM     14  O   UNL     1      34.153 -18.979 -22.433  0.00  0.00    -0.471 OA
ATOM     15  C   UNL     1      34.726 -17.820 -23.034  0.00  0.00    +0.252 C 
ENDBRANCH  11  14
ENDBRANCH   5   8
ENDBRANCH   1   2
BRANCH   1  16
ATOM     16  C   UNL     1      35.494 -23.034 -14.431  0.00  0.00    +0.028 C 
BRANCH  16  21
ATOM     17  O   UNL     1      36.888 -26.701 -14.338  0.00  0.00    -0.274 OA
ATOM     18  N   UNL     1      37.568 -22.848 -13.161  0.00  0.00    -0.247 NA
ATOM     19  N   UNL     1      37.423 -25.161 -12.653  0.00  0.00    -0.231 N 
ATOM     20  N   UNL     1      38.139 -23.536 -11.038  0.00  0.00    -0.331 N 
ATOM     21  C   UNL     1      37.026 -23.128 -14.493  0.00  0.00    +0.096 C 
ATOM     22  C   UNL     1      37.497 -24.490 -14.987  0.00  0.00    +0.108 C 
ATOM     23  C   UNL     1      37.556 -22.035 -15.431  0.00  0.00    +0.025 C 
ATOM     24  C   UNL     1      37.208 -25.570 -13.976  0.00  0.00    +0.233 C 
ATOM     25  C   UNL     1      37.705 -23.821 -12.311  0.00  0.00    +0.183 C 
ATOM     26  C   UNL     1      37.347 -26.179 -11.607  0.00  0.00    +0.123 C 
ATOM     27  H   UNL     1      38.340 -22.606 -10.782  0.00  0.00    +0.145 HD
ATOM     28  H   UNL     1      38.248 -24.261 -10.381  0.00  0.00    +0.145 HD
ENDBRANCH  16  21
ENDBRANCH   1  16
TORSDOF 5
ENDMDL
MODEL 7
REMARK VINA RESULT:     -10.0      8.538     13.482
REMARK  Name = 16040323
REMARK  5 active torsions:
REMARK  status: ('A' for Active; 'I' for Inactive)
REMARK    1  A    between atoms: C_1  and  C_2
REMARK    2  A    between atoms: C_1  and  C_16
REMARK    3  A    between atoms: C_5  and  C_8
REMARK    4  A    between atoms: C_11  and  O_14
REMARK    5  A    between atoms: C_16  and  C_21
REMARK                            x       y       z     vdW  Elec       q    Type
REMARK                         _______ _______ _______ _____ _____    ______ ____
ROOT
ATOM      1  C   UNL     1      33.174 -11.869 -21.886  0.00  0.00    +0.028 C 
ENDROOT
BRANCH   1   2
ATOM      2  C   UNL     1      33.378 -12.820 -23.037  0.00  0.00    -0.022 C 
ATOM      3  C   UNL     1      33.764 -14.127 -22.782  0.00  0.00    -0.004 C 
ATOM      4  C   UNL     1      33.176 -12.373 -24.335  0.00  0.00    -0.004 C 
ATOM      5  C   UNL     1      33.953 -15.008 -23.848  0.00  0.00    -0.000 C 
ATOM      6  C   UNL     1      33.365 -13.252 -25.400  0.00  0.00    -0.000 C 
ATOM      7  C   UNL     1      33.754 -14.570 -25.157  0.00  0.00    -0.000 C 
BRANCH   5   8
ATOM      8  C   UNL     1      34.356 -16.374 -23.595  0.00  0.00    +0.003 C 
ATOM      9  C   UNL     1      35.184 -16.669 -22.513  0.00  0.00    +0.037 C 
ATOM     10  C   UNL     1      33.914 -17.397 -24.435  0.00  0.00    +0.000 C 
ATOM     11  C   UNL     1      35.571 -17.986 -22.269  0.00  0.00    +0.139 C 
ATOM     12  C   UNL     1      34.303 -18.714 -24.192  0.00  0.00    +0.003 C 
ATOM     13  C   UNL     1      35.130 -19.009 -23.109  0.00  0.00    +0.037 C 
BRANCH  11  14
ATOM     14  O   UNL     1      36.380 -18.275 -21.212  0.00  0.00    -0.471 OA
ATOM     15  C   UNL     1      36.090 -19.464 -20.479  0.00  0.00    +0.252 C 
ENDBRANCH  11  14
ENDBRANCH   5   8
ENDBRANCH   1   2
BRANCH   1  16
ATOM     16  C   UNL     1      32.802 -10.476 -22.382  0.00  0.00    +0.028 C 
BRANCH  16  21
ATOM     17  O   UNL     1      31.379  -7.072 -23.715  0.00  0.00    -0.274 OA
ATOM     18  N   UNL     1      32.422  -9.161 -20.363  0.00  0.00    -0.247 NA
ATOM     19  N   UNL     1      32.525  -7.186 -21.673  0.00  0.00    -0.231 N 
ATOM     20  N   UNL     1      33.514  -7.330 -19.491  0.00  0.00    -0.331 N 
ATOM     21  C   UNL     1      31.743  -9.836 -21.472  0.00  0.00    +0.096 C 
ATOM     22  C   UNL     1      30.853  -8.859 -22.229  0.00  0.00    +0.108 C 
ATOM     23  C   UNL     1      30.876 -10.944 -20.859  0.00  0.00    +0.025 C 
ATOM     24  C   UNL     1      31.618  -7.630 -22.646  0.00  0.00    +0.233 C 
ATOM     25  C   UNL     1      32.808  -7.929 -20.508  0.00  0.00    +0.183 C 
ATOM     26  C   UNL     1      33.188  -5.902 -21.898  0.00  0.00    +0.123 C 
ATOM     27  H   UNL     1      33.720  -7.834 -18.670  0.00  0.00    +0.145 HD
ATOM     28  H   UNL     1      33.814  -6.396 -19.584  0.00  0.00    +0.145 HD
ENDBRANCH  16  21
ENDBRANCH   1  16
TORSDOF 5
ENDMDL
MODEL 8
REMARK VINA RESULT:     -10.0      5.325      9.051
REMARK  Name = 16040323
REMARK  5 active torsions:
REMARK  status: ('A' for Active; 'I' for Inactive)
REMARK    1  A    between atoms: C_1  and  C_2
REMARK    2  A    between atoms: C_1  and  C_16
REMARK    3  A    between atoms: C_5  and  C_8
REMARK    4  A    between atoms: C_11  and  O_14
REMARK    5  A    between atoms: C_16  and  C_21
REMARK                            x       y       z     vdW  Elec       q    Type
REMARK                         _______ _______ _______ _____ _____    ______ ____
ROOT
ATOM      1  C   UNL     1      35.700 -16.212 -21.204  0.00  0.00    +0.028 C 
ENDROOT
BRANCH   1   2
ATOM      2  C   UNL     1      34.777 -15.355 -22.031  0.00  0.00    -0.022 C 
ATOM      3  C   UNL     1      34.200 -14.229 -21.463  0.00  0.00    -0.004 C 
ATOM      4  C   UNL     1      34.519 -15.705 -23.349  0.00  0.00    -0.004 C 
ATOM      5  C   UNL     1      33.345 -13.435 -22.229  0.00  0.00    -0.000 C 
ATOM      6  C   UNL     1      33.665 -14.911 -24.114  0.00  0.00    -0.000 C 
ATOM      7  C   UNL     1      33.078 -13.776 -23.554  0.00  0.00    -0.000 C 
BRANCH   5   8
ATOM      8  C   UNL     1      32.737 -12.257 -21.648  0.00  0.00    +0.003 C 
ATOM      9  C   UNL     1      32.717 -11.059 -22.361  0.00  0.00    +0.037 C 
ATOM     10  C   UNL     1      32.170 -12.322 -20.376  0.00  0.00    +0.000 C 
ATOM     11  C   UNL     1      32.129  -9.924 -21.802  0.00  0.00    +0.139 C 
ATOM     12  C   UNL     1      31.583 -11.186 -19.816  0.00  0.00    +0.003 C 
ATOM     13  C   UNL     1      31.562  -9.989 -20.529  0.00  0.00    +0.037 C 
BRANCH  11  14
ATOM     14  O   UNL     1      32.109  -8.754 -22.498  0.00  0.00    -0.471 OA
ATOM     15  C   UNL     1      33.369  -8.180 -22.838  0.00  0.00    +0.252 C 
ENDBRANCH  11  14
ENDBRANCH   5   8
ENDBRANCH   1   2
BRANCH   1  16
ATOM     16  C   UNL     1      34.963 -17.414 -20.626  0.00  0.00    +0.028 C 
BRANCH  16  21
ATOM     17  O   UNL     1      32.100 -20.055 -21.108  0.00  0.00    -0.274 OA
ATOM     18  N   UNL     1      36.079 -19.562 -20.323  0.00  0.00    -0.247 NA
ATOM     19  N   UNL     1      33.982 -20.538 -19.795  0.00  0.00    -0.231 N 
ATOM     20  N   UNL     1      35.995 -21.113 -18.622  0.00  0.00    -0.331 N 
ATOM     21  C   UNL     1      35.412 -18.713 -21.312  0.00  0.00    +0.096 C 
ATOM     22  C   UNL     1      34.246 -19.455 -21.954  0.00  0.00    +0.108 C 
ATOM     23  C   UNL     1      36.453 -18.375 -22.388  0.00  0.00    +0.025 C 
ATOM     24  C   UNL     1      33.313 -20.017 -20.912  0.00  0.00    +0.233 C 
ATOM     25  C   UNL     1      35.371 -20.379 -19.603  0.00  0.00    +0.183 C 
ATOM     26  C   UNL     1      33.188 -21.268 -18.809  0.00  0.00    +0.123 C 
ATOM     27  H   UNL     1      36.964 -21.015 -18.473  0.00  0.00    +0.145 HD
ATOM     28  H   UNL     1      35.473 -21.737 -18.066  0.00  0.00    +0.145 HD
ENDBRANCH  16  21
ENDBRANCH   1  16
TORSDOF 5
ENDMDL
MODEL 9
REMARK VINA RESULT:     -10.0     10.944     15.634
REMARK  Name = 16040323
REMARK  5 active torsions:
REMARK  status: ('A' for Active; 'I' for Inactive)
REMARK    1  A    between atoms: C_1  and  C_2
REMARK    2  A    between atoms: C_1  and  C_16
REMARK    3  A    between atoms: C_5  and  C_8
REMARK    4  A    between atoms: C_11  and  O_14
REMARK    5  A    between atoms: C_16  and  C_21
REMARK                            x       y       z     vdW  Elec       q    Type
REMARK                         _______ _______ _______ _____ _____    ______ ____
ROOT
ATOM      1  C   UNL     1      32.614  -8.825 -22.912  0.00  0.00    +0.028 C 
ENDROOT
BRANCH   1   2
ATOM      2  C   UNL     1      32.294 -10.066 -22.120  0.00  0.00    -0.022 C 
ATOM      3  C   UNL     1      33.060 -11.208 -22.302  0.00  0.00    -0.004 C 
ATOM      4  C   UNL     1      31.238 -10.048 -21.220  0.00  0.00    -0.004 C 
ATOM      5  C   UNL     1      32.764 -12.358 -21.568  0.00  0.00    -0.000 C 
ATOM      6  C   UNL     1      30.941 -11.196 -20.487  0.00  0.00    -0.000 C 
ATOM      7  C   UNL     1      31.705 -12.352 -20.661  0.00  0.00    -0.000 C 
BRANCH   5   8
ATOM      8  C   UNL     1      33.555 -13.555 -21.748  0.00  0.00    +0.003 C 
ATOM      9  C   UNL     1      33.744 -14.081 -23.026  0.00  0.00    +0.037 C 
ATOM     10  C   UNL     1      34.129 -14.184 -20.643  0.00  0.00    +0.000 C 
ATOM     11  C   UNL     1      34.507 -15.236 -23.199  0.00  0.00    +0.139 C 
ATOM     12  C   UNL     1      34.892 -15.339 -20.817  0.00  0.00    +0.003 C 
ATOM     13  C   UNL     1      35.082 -15.864 -22.094  0.00  0.00    +0.037 C 
BRANCH  11  14
ATOM     14  O   UNL     1      34.692 -15.749 -24.446  0.00  0.00    -0.471 OA
ATOM     15  C   UNL     1      34.199 -17.067 -24.685  0.00  0.00    +0.252 C 
ENDBRANCH  11  14
ENDBRANCH   5   8
ENDBRANCH   1   2
BRANCH   1  16
ATOM     16  C   UNL     1      31.779  -7.641 -22.440  0.00  0.00    +0.028 C 
BRANCH  16  21
ATOM     17  O   UNL     1      30.308  -4.019 -22.783  0.00  0.00    -0.274 OA
ATOM     18  N   UNL     1      33.738  -6.237 -22.818  0.00  0.00    -0.247 NA
ATOM     19  N   UNL     1      32.332  -4.604 -23.810  0.00  0.00    -0.231 N 
ATOM     20  N   UNL     1      34.502  -5.133 -24.690  0.00  0.00    -0.331 N 
ATOM     21  C   UNL     1      32.675  -6.538 -21.856  0.00  0.00    +0.096 C 
ATOM     22  C   UNL     1      31.887  -5.279 -21.519  0.00  0.00    +0.108 C 
ATOM     23  C   UNL     1      33.356  -7.068 -20.587  0.00  0.00    +0.025 C 
ATOM     24  C   UNL     1      31.398  -4.587 -22.765  0.00  0.00    +0.233 C 
ATOM     25  C   UNL     1      33.527  -5.351 -23.744  0.00  0.00    +0.183 C 
ATOM     26  C   UNL     1      32.034  -3.809 -25.000  0.00  0.00    +0.123 C 
ATOM     27  H   UNL     1      35.342  -5.646 -24.660  0.00  0.00    +0.145 HD
ATOM     28  H   UNL     1      34.359  -4.465 -25.399  0.00  0.00    +0.145 HD
ENDBRANCH  16  21
ENDBRANCH   1  16
TORSDOF 5
ENDMDL
