MODEL 1
REMARK VINA RESULT:     -12.5      0.000      0.000
REMARK  Name = 11974440
REMARK  4 active torsions:
REMARK  status: ('A' for Active; 'I' for Inactive)
REMARK    1  A    between atoms: C_1  and  C_25
REMARK    2  A    between atoms: C_2  and  N_31
REMARK    3  A    between atoms: C_5  and  C_12
REMARK    4  A    between atoms: C_17  and  C_21
REMARK                            x       y       z     vdW  Elec       q    Type
REMARK                         _______ _______ _______ _____ _____    ______ ____
ROOT
ATOM      1  C   UNL     1      34.574 -19.745 -19.925  0.00  0.00    +0.009 C 
ATOM      2  C   UNL     1      35.640 -20.862 -19.772  0.00  0.00    -0.057 C 
ATOM      3  C   UNL     1      35.440 -21.622 -18.445  0.00  0.00    +0.009 C 
ATOM      4  C   UNL     1      33.149 -20.346 -19.878  0.00  0.00    +0.028 C 
ATOM      5  C   UNL     1      34.004 -21.960 -18.180  0.00  0.00    +0.025 C 
ATOM      6  C   UNL     1      32.972 -21.400 -18.825  0.00  0.00    -0.026 C 
ENDROOT
BRANCH   5  12
ATOM      7  O   UNL     1      32.715 -23.700 -17.340  0.00  0.00    -0.270 OA
ATOM      8  N   UNL     1      34.554 -23.074 -16.063  0.00  0.00    -0.267 N 
ATOM      9  N   UNL     1      36.782 -24.179 -14.874  0.00  0.00    -0.292 N 
ATOM     10  N   UNL     1      35.734 -25.784 -13.834  0.00  0.00    -0.132 NA
ATOM     11  N   UNL     1      37.096 -25.950 -13.653  0.00  0.00    -0.125 NA
ATOM     12  C   UNL     1      33.700 -22.983 -17.158  0.00  0.00    +0.245 C 
ATOM     13  C   UNL     1      35.697 -22.185 -15.775  0.00  0.00    +0.119 C 
ATOM     14  C   UNL     1      34.286 -24.091 -15.034  0.00  0.00    +0.160 C 
ATOM     15  C   UNL     1      36.983 -23.004 -15.695  0.00  0.00    +0.130 C 
ATOM     16  C   UNL     1      35.557 -24.711 -14.576  0.00  0.00    +0.164 A 
ATOM     17  C   UNL     1      37.708 -24.974 -14.288  0.00  0.00    +0.238 A 
BRANCH  17  21
ATOM     18  F   UNL     1      39.862 -25.797 -14.924  0.00  0.00    -0.163 F 
ATOM     19  F   UNL     1      39.516 -23.668 -15.150  0.00  0.00    -0.163 F 
ATOM     20  F   UNL     1      39.755 -24.523 -13.166  0.00  0.00    -0.163 F 
ATOM     21  C   UNL     1      39.160 -24.749 -14.382  0.00  0.00    +0.452 C 
ENDBRANCH  17  21
ENDBRANCH   5  12
BRANCH   1  25
ATOM     22  F   UNL     1      35.636 -17.114 -19.880  0.00  0.00    -0.204 F 
ATOM     23  F   UNL     1      34.156 -19.110 -24.751  0.00  0.00    -0.202 F 
ATOM     24  F   UNL     1      35.194 -16.589 -24.561  0.00  0.00    -0.202 F 
ATOM     25  C   UNL     1      34.744 -18.893 -21.173  0.00  0.00    +0.006 C 
ATOM     26  C   UNL     1      35.273 -17.611 -21.070  0.00  0.00    +0.138 C 
ATOM     27  C   UNL     1      34.365 -19.404 -22.411  0.00  0.00    +0.030 C 
ATOM     28  C   UNL     1      34.519 -18.624 -23.557  0.00  0.00    +0.167 C 
ATOM     29  C   UNL     1      35.427 -16.831 -22.217  0.00  0.00    +0.061 C 
ATOM     30  C   UNL     1      35.049 -17.339 -23.460  0.00  0.00    +0.170 C 
ENDBRANCH   1  25
BRANCH   2  31
ATOM     31  N   UNL     1      36.999 -20.316 -19.818  0.00  0.00    +0.382 N 
ATOM     32  H   UNL     1      37.453 -20.608 -20.684  0.00  0.00    -0.089 HD
ATOM     33  H   UNL     1      37.532 -20.663 -19.022  0.00  0.00    -0.089 HD
ATOM     34  H   UNL     1      36.958 -19.298 -19.783  0.00  0.00    -0.089 HD
ENDBRANCH   2  31
TORSDOF 4
ENDMDL
MODEL 2
REMARK VINA RESULT:     -12.2      3.577      4.371
REMARK  Name = 11974440
REMARK  4 active torsions:
REMARK  status: ('A' for Active; 'I' for Inactive)
REMARK    1  A    between atoms: C_1  and  C_25
REMARK    2  A    between atoms: C_2  and  N_31
REMARK    3  A    between atoms: C_5  and  C_12
REMARK    4  A    between atoms: C_17  and  C_21
REMARK                            x       y       z     vdW  Elec       q    Type
REMARK                         _______ _______ _______ _____ _____    ______ ____
ROOT
ATOM      1  C   UNL     1      35.079 -20.188 -20.689  0.00  0.00    +0.009 C 
ATOM      2  C   UNL     1      33.933 -20.230 -19.645  0.00  0.00    -0.057 C 
ATOM      3  C   UNL     1      34.149 -21.389 -18.651  0.00  0.00    +0.009 C 
ATOM      4  C   UNL     1      36.447 -20.024 -19.986  0.00  0.00    +0.028 C 
ATOM      5  C   UNL     1      35.564 -21.483 -18.166  0.00  0.00    +0.025 C 
ATOM      6  C   UNL     1      36.598 -20.865 -18.752  0.00  0.00    -0.026 C 
ENDROOT
BRANCH   5  12
ATOM      7  O   UNL     1      36.928 -22.131 -16.401  0.00  0.00    -0.270 OA
ATOM      8  N   UNL     1      34.853 -23.170 -16.532  0.00  0.00    -0.267 N 
ATOM      9  N   UNL     1      32.635 -23.674 -14.975  0.00  0.00    -0.292 N 
ATOM     10  N   UNL     1      33.715 -24.501 -13.270  0.00  0.00    -0.132 NA
ATOM     11  N   UNL     1      32.374 -24.398 -12.942  0.00  0.00    -0.125 NA
ATOM     12  C   UNL     1      35.842 -22.290 -16.961  0.00  0.00    +0.245 C 
ATOM     13  C   UNL     1      33.574 -23.442 -17.218  0.00  0.00    +0.119 C 
ATOM     14  C   UNL     1      35.094 -23.979 -15.326  0.00  0.00    +0.160 C 
ATOM     15  C   UNL     1      32.408 -23.111 -16.289  0.00  0.00    +0.130 C 
ATOM     16  C   UNL     1      33.860 -24.058 -14.502  0.00  0.00    +0.164 A 
ATOM     17  C   UNL     1      31.743 -23.897 -13.981  0.00  0.00    +0.238 A 
BRANCH  17  21
ATOM     18  F   UNL     1      30.002 -22.263 -14.123  0.00  0.00    -0.163 F 
ATOM     19  F   UNL     1      29.705 -24.113 -15.213  0.00  0.00    -0.163 F 
ATOM     20  F   UNL     1      29.566 -24.100 -13.044  0.00  0.00    -0.163 F 
ATOM     21  C   UNL     1      30.304 -23.602 -14.089  0.00  0.00    +0.452 C 
ENDBRANCH  17  21
ENDBRANCH   5  12
BRANCH   1  25
ATOM     22  F   UNL     1      35.856 -17.484 -20.323  0.00  0.00    -0.204 F 
ATOM     23  F   UNL     1      33.636 -18.798 -25.145  0.00  0.00    -0.202 F 
ATOM     24  F   UNL     1      34.430 -16.229 -24.657  0.00  0.00    -0.202 F 
ATOM     25  C   UNL     1      34.907 -19.119 -21.757  0.00  0.00    +0.006 C 
ATOM     26  C   UNL     1      35.313 -17.813 -21.503  0.00  0.00    +0.138 C 
ATOM     27  C   UNL     1      34.341 -19.457 -22.983  0.00  0.00    +0.030 C 
ATOM     28  C   UNL     1      34.180 -18.479 -23.964  0.00  0.00    +0.167 C 
ATOM     29  C   UNL     1      35.153 -16.835 -22.484  0.00  0.00    +0.061 C 
ATOM     30  C   UNL     1      34.587 -17.169 -23.715  0.00  0.00    +0.170 C 
ENDBRANCH   1  25
BRANCH   2  31
ATOM     31  N   UNL     1      32.626 -20.382 -20.290  0.00  0.00    +0.382 N 
ATOM     32  H   UNL     1      32.758 -20.590 -21.280  0.00  0.00    -0.089 HD
ATOM     33  H   UNL     1      32.096 -19.516 -20.192  0.00  0.00    -0.089 HD
ATOM     34  H   UNL     1      32.115 -21.146 -19.848  0.00  0.00    -0.089 HD
ENDBRANCH   2  31
TORSDOF 4
ENDMDL
MODEL 3
REMARK VINA RESULT:     -12.2      3.810      4.725
REMARK  Name = 11974440
REMARK  4 active torsions:
REMARK  status: ('A' for Active; 'I' for Inactive)
REMARK    1  A    between atoms: C_1  and  C_25
REMARK    2  A    between atoms: C_2  and  N_31
REMARK    3  A    between atoms: C_5  and  C_12
REMARK    4  A    between atoms: C_17  and  C_21
REMARK                            x       y       z     vdW  Elec       q    Type
REMARK                         _______ _______ _______ _____ _____    ______ ____
ROOT
ATOM      1  C   UNL     1      35.184 -19.787 -21.079  0.00  0.00    +0.009 C 
ATOM      2  C   UNL     1      33.993 -19.892 -20.091  0.00  0.00    -0.057 C 
ATOM      3  C   UNL     1      34.193 -21.080 -19.128  0.00  0.00    +0.009 C 
ATOM      4  C   UNL     1      36.514 -19.614 -20.309  0.00  0.00    +0.028 C 
ATOM      5  C   UNL     1      35.587 -21.157 -18.582  0.00  0.00    +0.025 C 
ATOM      6  C   UNL     1      36.630 -20.494 -19.099  0.00  0.00    -0.026 C 
ENDROOT
BRANCH   5  12
ATOM      7  O   UNL     1      36.903 -21.860 -16.802  0.00  0.00    -0.270 OA
ATOM      8  N   UNL     1      34.826 -22.883 -17.012  0.00  0.00    -0.267 N 
ATOM      9  N   UNL     1      32.568 -23.416 -15.525  0.00  0.00    -0.292 N 
ATOM     10  N   UNL     1      33.601 -24.295 -13.817  0.00  0.00    -0.132 NA
ATOM     11  N   UNL     1      32.253 -24.193 -13.519  0.00  0.00    -0.125 NA
ATOM     12  C   UNL     1      35.831 -21.998 -17.393  0.00  0.00    +0.245 C 
ATOM     13  C   UNL     1      33.563 -23.129 -17.736  0.00  0.00    +0.119 C 
ATOM     14  C   UNL     1      35.033 -23.726 -15.824  0.00  0.00    +0.160 C 
ATOM     15  C   UNL     1      32.377 -22.816 -16.828  0.00  0.00    +0.130 C 
ATOM     16  C   UNL     1      33.779 -23.820 -15.032  0.00  0.00    +0.164 A 
ATOM     17  C   UNL     1      31.651 -23.661 -14.559  0.00  0.00    +0.238 A 
BRANCH  17  21
ATOM     18  F   UNL     1      29.872 -22.080 -14.316  0.00  0.00    -0.163 F 
ATOM     19  F   UNL     1      29.731 -23.471 -15.973  0.00  0.00    -0.163 F 
ATOM     20  F   UNL     1      29.412 -24.171 -13.940  0.00  0.00    -0.163 F 
ATOM     21  C   UNL     1      30.216 -23.354 -14.694  0.00  0.00    +0.452 C 
ENDBRANCH  17  21
ENDBRANCH   5  12
BRANCH   1  25
ATOM     22  F   UNL     1      34.532 -20.290 -23.795  0.00  0.00    -0.204 F 
ATOM     23  F   UNL     1      35.261 -15.068 -22.343  0.00  0.00    -0.202 F 
ATOM     24  F   UNL     1      34.628 -15.697 -24.927  0.00  0.00    -0.202 F 
ATOM     25  C   UNL     1      35.032 -18.686 -22.118  0.00  0.00    +0.006 C 
ATOM     26  C   UNL     1      34.710 -19.012 -23.431  0.00  0.00    +0.138 C 
ATOM     27  C   UNL     1      35.219 -17.359 -21.745  0.00  0.00    +0.030 C 
ATOM     28  C   UNL     1      35.081 -16.348 -22.695  0.00  0.00    +0.167 C 
ATOM     29  C   UNL     1      34.572 -18.001 -24.382  0.00  0.00    +0.061 C 
ATOM     30  C   UNL     1      34.758 -16.668 -24.013  0.00  0.00    +0.170 C 
ENDBRANCH   1  25
BRANCH   2  31
ATOM     31  N   UNL     1      32.720 -20.054 -20.801  0.00  0.00    +0.382 N 
ATOM     32  H   UNL     1      32.459 -21.040 -20.809  0.00  0.00    -0.089 HD
ATOM     33  H   UNL     1      32.821 -19.721 -21.759  0.00  0.00    -0.089 HD
ATOM     34  H   UNL     1      31.996 -19.515 -20.326  0.00  0.00    -0.089 HD
ENDBRANCH   2  31
TORSDOF 4
ENDMDL
MODEL 4
REMARK VINA RESULT:     -12.0      1.570      2.041
REMARK  Name = 11974440
REMARK  4 active torsions:
REMARK  status: ('A' for Active; 'I' for Inactive)
REMARK    1  A    between atoms: C_1  and  C_25
REMARK    2  A    between atoms: C_2  and  N_31
REMARK    3  A    between atoms: C_5  and  C_12
REMARK    4  A    between atoms: C_17  and  C_21
REMARK                            x       y       z     vdW  Elec       q    Type
REMARK                         _______ _______ _______ _____ _____    ______ ____
ROOT
ATOM      1  C   UNL     1      35.001 -21.233 -19.476  0.00  0.00    +0.009 C 
ATOM      2  C   UNL     1      33.599 -21.190 -18.815  0.00  0.00    -0.057 C 
ATOM      3  C   UNL     1      33.423 -22.373 -17.842  0.00  0.00    +0.009 C 
ATOM      4  C   UNL     1      36.110 -21.190 -18.398  0.00  0.00    +0.028 C 
ATOM      5  C   UNL     1      34.621 -22.590 -16.968  0.00  0.00    +0.025 C 
ATOM      6  C   UNL     1      35.826 -22.054 -17.204  0.00  0.00    -0.026 C 
ENDROOT
BRANCH   5  12
ATOM      7  O   UNL     1      33.405 -24.031 -15.612  0.00  0.00    -0.270 OA
ATOM      8  N   UNL     1      35.544 -23.492 -14.880  0.00  0.00    -0.267 N 
ATOM      9  N   UNL     1      37.872 -24.715 -14.055  0.00  0.00    -0.292 N 
ATOM     10  N   UNL     1      36.948 -26.030 -12.580  0.00  0.00    -0.132 NA
ATOM     11  N   UNL     1      38.292 -26.345 -12.679  0.00  0.00    -0.125 NA
ATOM     12  C   UNL     1      34.469 -23.429 -15.762  0.00  0.00    +0.245 C 
ATOM     13  C   UNL     1      36.802 -22.727 -14.986  0.00  0.00    +0.119 C 
ATOM     14  C   UNL     1      35.428 -24.329 -13.675  0.00  0.00    +0.160 C 
ATOM     15  C   UNL     1      37.986 -23.688 -15.068  0.00  0.00    +0.130 C 
ATOM     16  C   UNL     1      36.706 -25.044 -13.419  0.00  0.00    +0.164 A 
ATOM     17  C   UNL     1      38.828 -25.543 -13.572  0.00  0.00    +0.238 A 
BRANCH  17  21
ATOM     18  F   UNL     1      40.401 -25.641 -15.372  0.00  0.00    -0.163 F 
ATOM     19  F   UNL     1      40.908 -24.367 -13.691  0.00  0.00    -0.163 F 
ATOM     20  F   UNL     1      40.990 -26.529 -13.478  0.00  0.00    -0.163 F 
ATOM     21  C   UNL     1      40.233 -25.519 -14.015  0.00  0.00    +0.452 C 
ENDBRANCH  17  21
ENDBRANCH   5  12
BRANCH   1  25
ATOM     22  F   UNL     1      37.285 -19.549 -19.477  0.00  0.00    -0.204 F 
ATOM     23  F   UNL     1      33.601 -18.737 -23.437  0.00  0.00    -0.202 F 
ATOM     24  F   UNL     1      35.850 -17.188 -23.317  0.00  0.00    -0.202 F 
ATOM     25  C   UNL     1      35.233 -20.143 -20.511  0.00  0.00    +0.006 C 
ATOM     26  C   UNL     1      36.379 -19.357 -20.446  0.00  0.00    +0.138 C 
ATOM     27  C   UNL     1      34.293 -19.939 -21.516  0.00  0.00    +0.030 C 
ATOM     28  C   UNL     1      34.502 -18.940 -22.466  0.00  0.00    +0.167 C 
ATOM     29  C   UNL     1      36.589 -18.358 -21.395  0.00  0.00    +0.061 C 
ATOM     30  C   UNL     1      35.650 -18.149 -22.406  0.00  0.00    +0.170 C 
ENDBRANCH   1  25
BRANCH   2  31
ATOM     31  N   UNL     1      32.532 -21.226 -19.819  0.00  0.00    +0.382 N 
ATOM     32  H   UNL     1      32.145 -22.169 -19.869  0.00  0.00    -0.089 HD
ATOM     33  H   UNL     1      32.912 -20.966 -20.728  0.00  0.00    -0.089 HD
ATOM     34  H   UNL     1      31.796 -20.571 -19.557  0.00  0.00    -0.089 HD
ENDBRANCH   2  31
TORSDOF 4
ENDMDL
MODEL 5
REMARK VINA RESULT:     -11.5     10.392     16.011
REMARK  Name = 11974440
REMARK  4 active torsions:
REMARK  status: ('A' for Active; 'I' for Inactive)
REMARK    1  A    between atoms: C_1  and  C_25
REMARK    2  A    between atoms: C_2  and  N_31
REMARK    3  A    between atoms: C_5  and  C_12
REMARK    4  A    between atoms: C_17  and  C_21
REMARK                            x       y       z     vdW  Elec       q    Type
REMARK                         _______ _______ _______ _____ _____    ______ ____
ROOT
ATOM      1  C   UNL     1      32.970 -12.021 -23.143  0.00  0.00    +0.009 C 
ATOM      2  C   UNL     1      34.035 -10.896 -23.055  0.00  0.00    -0.057 C 
ATOM      3  C   UNL     1      33.371  -9.550 -22.702  0.00  0.00    +0.009 C 
ATOM      4  C   UNL     1      32.209 -12.152 -21.802  0.00  0.00    +0.028 C 
ATOM      5  C   UNL     1      32.364  -9.671 -21.598  0.00  0.00    +0.025 C 
ATOM      6  C   UNL     1      31.846 -10.834 -21.182  0.00  0.00    -0.026 C 
ENDROOT
BRANCH   5  12
ATOM      7  O   UNL     1      31.992  -8.411 -19.682  0.00  0.00    -0.270 OA
ATOM      8  N   UNL     1      31.465  -7.389 -21.702  0.00  0.00    -0.267 N 
ATOM      9  N   UNL     1      31.980  -5.071 -23.101  0.00  0.00    -0.292 N 
ATOM     10  N   UNL     1      31.489  -3.694 -21.482  0.00  0.00    -0.132 NA
ATOM     11  N   UNL     1      31.991  -2.968 -22.549  0.00  0.00    -0.125 NA
ATOM     12  C   UNL     1      31.922  -8.440 -20.912  0.00  0.00    +0.245 C 
ATOM     13  C   UNL     1      31.296  -7.414 -23.169  0.00  0.00    +0.119 C 
ATOM     14  C   UNL     1      31.030  -6.144 -21.050  0.00  0.00    +0.160 C 
ATOM     15  C   UNL     1      32.151  -6.322 -23.807  0.00  0.00    +0.130 C 
ATOM     16  C   UNL     1      31.490  -4.964 -21.828  0.00  0.00    +0.164 A 
ATOM     17  C   UNL     1      32.280  -3.816 -23.511  0.00  0.00    +0.238 A 
BRANCH  17  21
ATOM     18  F   UNL     1      34.069  -4.079 -25.078  0.00  0.00    -0.163 F 
ATOM     19  F   UNL     1      32.068  -3.890 -25.892  0.00  0.00    -0.163 F 
ATOM     20  F   UNL     1      33.056  -2.156 -25.028  0.00  0.00    -0.163 F 
ATOM     21  C   UNL     1      32.849  -3.499 -24.832  0.00  0.00    +0.452 C 
ENDBRANCH  17  21
ENDBRANCH   5  12
BRANCH   1  25
ATOM     22  F   UNL     1      32.403 -13.227 -25.648  0.00  0.00    -0.204 F 
ATOM     23  F   UNL     1      35.671 -15.992 -22.245  0.00  0.00    -0.202 F 
ATOM     24  F   UNL     1      35.042 -17.036 -24.692  0.00  0.00    -0.202 F 
ATOM     25  C   UNL     1      33.528 -13.372 -23.563  0.00  0.00    +0.006 C 
ATOM     26  C   UNL     1      33.205 -13.898 -24.810  0.00  0.00    +0.138 C 
ATOM     27  C   UNL     1      34.359 -14.073 -22.694  0.00  0.00    +0.030 C 
ATOM     28  C   UNL     1      34.871 -15.312 -23.077  0.00  0.00    +0.167 C 
ATOM     29  C   UNL     1      33.717 -15.137 -25.192  0.00  0.00    +0.061 C 
ATOM     30  C   UNL     1      34.551 -15.844 -24.326  0.00  0.00    +0.170 C 
ENDBRANCH   1  25
BRANCH   2  31
ATOM     31  N   UNL     1      34.772 -10.757 -24.315  0.00  0.00    +0.382 N 
ATOM     32  H   UNL     1      35.711 -10.410 -24.121  0.00  0.00    -0.089 HD
ATOM     33  H   UNL     1      34.285 -10.099 -24.922  0.00  0.00    -0.089 HD
ATOM     34  H   UNL     1      34.833 -11.665 -24.775  0.00  0.00    -0.089 HD
ENDBRANCH   2  31
TORSDOF 4
ENDMDL
MODEL 6
REMARK VINA RESULT:     -11.3      1.194      2.201
REMARK  Name = 11974440
REMARK  4 active torsions:
REMARK  status: ('A' for Active; 'I' for Inactive)
REMARK    1  A    between atoms: C_1  and  C_25
REMARK    2  A    between atoms: C_2  and  N_31
REMARK    3  A    between atoms: C_5  and  C_12
REMARK    4  A    between atoms: C_17  and  C_21
REMARK                            x       y       z     vdW  Elec       q    Type
REMARK                         _______ _______ _______ _____ _____    ______ ____
ROOT
ATOM      1  C   UNL     1      34.612 -20.460 -20.197  0.00  0.00    +0.009 C 
ATOM      2  C   UNL     1      33.250 -20.395 -19.458  0.00  0.00    -0.057 C 
ATOM      3  C   UNL     1      32.988 -21.706 -18.689  0.00  0.00    +0.009 C 
ATOM      4  C   UNL     1      35.761 -20.713 -19.193  0.00  0.00    +0.028 C 
ATOM      5  C   UNL     1      34.191 -22.187 -17.935  0.00  0.00    +0.025 C 
ATOM      6  C   UNL     1      35.436 -21.739 -18.147  0.00  0.00    -0.026 C 
ENDROOT
BRANCH   5  12
ATOM      7  O   UNL     1      33.024 -23.950 -16.974  0.00  0.00    -0.270 OA
ATOM      8  N   UNL     1      34.941 -23.257 -15.857  0.00  0.00    -0.267 N 
ATOM      9  N   UNL     1      37.287 -24.283 -14.839  0.00  0.00    -0.292 N 
ATOM     10  N   UNL     1      36.372 -25.903 -13.699  0.00  0.00    -0.132 NA
ATOM     11  N   UNL     1      37.748 -26.029 -13.627  0.00  0.00    -0.125 NA
ATOM     12  C   UNL     1      33.999 -23.203 -16.881  0.00  0.00    +0.245 C 
ATOM     13  C   UNL     1      36.077 -22.332 -15.671  0.00  0.00    +0.119 C 
ATOM     14  C   UNL     1      34.784 -24.267 -14.798  0.00  0.00    +0.160 C 
ATOM     15  C   UNL     1      37.388 -23.115 -15.686  0.00  0.00    +0.130 C 
ATOM     16  C   UNL     1      36.106 -24.845 -14.437  0.00  0.00    +0.164 A 
ATOM     17  C   UNL     1      38.279 -25.045 -14.320  0.00  0.00    +0.238 A 
BRANCH  17  21
ATOM     18  F   UNL     1      39.979 -23.623 -15.220  0.00  0.00    -0.163 F 
ATOM     19  F   UNL     1      40.443 -24.665 -13.375  0.00  0.00    -0.163 F 
ATOM     20  F   UNL     1      40.347 -25.765 -15.248  0.00  0.00    -0.163 F 
ATOM     21  C   UNL     1      39.712 -24.781 -14.532  0.00  0.00    +0.452 C 
ENDBRANCH  17  21
ENDBRANCH   5  12
BRANCH   1  25
ATOM     22  F   UNL     1      34.954 -20.563 -23.012  0.00  0.00    -0.204 F 
ATOM     23  F   UNL     1      35.441 -15.664 -20.630  0.00  0.00    -0.202 F 
ATOM     24  F   UNL     1      35.746 -15.909 -23.335  0.00  0.00    -0.202 F 
ATOM     25  C   UNL     1      34.916 -19.235 -21.045  0.00  0.00    +0.006 C 
ATOM     26  C   UNL     1      35.070 -19.365 -22.421  0.00  0.00    +0.138 C 
ATOM     27  C   UNL     1      35.040 -17.990 -20.435  0.00  0.00    +0.030 C 
ATOM     28  C   UNL     1      35.320 -16.865 -21.210  0.00  0.00    +0.167 C 
ATOM     29  C   UNL     1      35.350 -18.240 -23.197  0.00  0.00    +0.061 C 
ATOM     30  C   UNL     1      35.475 -16.990 -22.591  0.00  0.00    +0.170 C 
ENDBRANCH   1  25
BRANCH   2  31
ATOM     31  N   UNL     1      32.145 -20.151 -20.390  0.00  0.00    +0.382 N 
ATOM     32  H   UNL     1      31.350 -19.765 -19.881  0.00  0.00    -0.089 HD
ATOM     33  H   UNL     1      31.873 -21.029 -20.831  0.00  0.00    -0.089 HD
ATOM     34  H   UNL     1      32.444 -19.489 -21.106  0.00  0.00    -0.089 HD
ENDBRANCH   2  31
TORSDOF 4
ENDMDL
MODEL 7
REMARK VINA RESULT:     -11.3      4.576     10.462
REMARK  Name = 11974440
REMARK  4 active torsions:
REMARK  status: ('A' for Active; 'I' for Inactive)
REMARK    1  A    between atoms: C_1  and  C_25
REMARK    2  A    between atoms: C_2  and  N_31
REMARK    3  A    between atoms: C_5  and  C_12
REMARK    4  A    between atoms: C_17  and  C_21
REMARK                            x       y       z     vdW  Elec       q    Type
REMARK                         _______ _______ _______ _____ _____    ______ ____
ROOT
ATOM      1  C   UNL     1      35.315 -20.538 -20.144  0.00  0.00    +0.009 C 
ATOM      2  C   UNL     1      36.328 -19.364 -20.148  0.00  0.00    -0.057 C 
ATOM      3  C   UNL     1      36.324 -18.652 -21.516  0.00  0.00    +0.009 C 
ATOM      4  C   UNL     1      33.890 -20.026 -20.460  0.00  0.00    +0.028 C 
ATOM      5  C   UNL     1      34.941 -18.407 -22.040  0.00  0.00    +0.025 C 
ATOM      6  C   UNL     1      33.843 -19.011 -21.564  0.00  0.00    -0.026 C 
ENDROOT
BRANCH   5  12
ATOM      7  O   UNL     1      34.612 -17.870 -24.276  0.00  0.00    -0.270 OA
ATOM      8  N   UNL     1      34.776 -16.080 -22.802  0.00  0.00    -0.267 N 
ATOM      9  N   UNL     1      33.406 -13.802 -22.075  0.00  0.00    -0.292 N 
ATOM     10  N   UNL     1      33.153 -13.014 -24.093  0.00  0.00    -0.132 NA
ATOM     11  N   UNL     1      32.457 -12.208 -23.209  0.00  0.00    -0.125 NA
ATOM     12  C   UNL     1      34.766 -17.431 -23.135  0.00  0.00    +0.245 C 
ATOM     13  C   UNL     1      35.033 -15.517 -21.461  0.00  0.00    +0.119 C 
ATOM     14  C   UNL     1      34.593 -15.083 -23.868  0.00  0.00    +0.160 C 
ATOM     15  C   UNL     1      33.834 -14.685 -21.012  0.00  0.00    +0.130 C 
ATOM     16  C   UNL     1      33.720 -13.976 -23.395  0.00  0.00    +0.164 A 
ATOM     17  C   UNL     1      32.622 -12.700 -22.001  0.00  0.00    +0.238 A 
BRANCH  17  21
ATOM     18  F   UNL     1      32.890 -11.326 -20.061  0.00  0.00    -0.163 F 
ATOM     19  F   UNL     1      30.895 -11.465 -20.901  0.00  0.00    -0.163 F 
ATOM     20  F   UNL     1      31.744 -13.161 -19.839  0.00  0.00    -0.163 F 
ATOM     21  C   UNL     1      32.058 -12.178 -20.744  0.00  0.00    +0.452 C 
ENDBRANCH  17  21
ENDBRANCH   5  12
BRANCH   1  25
ATOM     22  F   UNL     1      33.090 -22.074 -19.283  0.00  0.00    -0.204 F 
ATOM     23  F   UNL     1      37.514 -22.095 -16.067  0.00  0.00    -0.202 F 
ATOM     24  F   UNL     1      35.298 -23.531 -15.360  0.00  0.00    -0.202 F 
ATOM     25  C   UNL     1      35.308 -21.347 -18.856  0.00  0.00    +0.006 C 
ATOM     26  C   UNL     1      34.178 -22.076 -18.501  0.00  0.00    +0.138 C 
ATOM     27  C   UNL     1      36.435 -21.349 -18.040  0.00  0.00    +0.030 C 
ATOM     28  C   UNL     1      36.432 -22.089 -16.858  0.00  0.00    +0.167 C 
ATOM     29  C   UNL     1      34.175 -22.816 -17.318  0.00  0.00    +0.061 C 
ATOM     30  C   UNL     1      35.302 -22.822 -16.497  0.00  0.00    +0.170 C 
ENDBRANCH   1  25
BRANCH   2  31
ATOM     31  N   UNL     1      37.686 -19.827 -19.847  0.00  0.00    +0.382 N 
ATOM     32  H   UNL     1      38.097 -20.240 -20.685  0.00  0.00    -0.089 HD
ATOM     33  H   UNL     1      37.651 -20.525 -19.106  0.00  0.00    -0.089 HD
ATOM     34  H   UNL     1      38.255 -19.036 -19.545  0.00  0.00    -0.089 HD
ENDBRANCH   2  31
TORSDOF 4
ENDMDL
MODEL 8
REMARK VINA RESULT:     -11.3      6.044     11.522
REMARK  Name = 11974440
REMARK  4 active torsions:
REMARK  status: ('A' for Active; 'I' for Inactive)
REMARK    1  A    between atoms: C_1  and  C_25
REMARK    2  A    between atoms: C_2  and  N_31
REMARK    3  A    between atoms: C_5  and  C_12
REMARK    4  A    between atoms: C_17  and  C_21
REMARK                            x       y       z     vdW  Elec       q    Type
REMARK                         _______ _______ _______ _____ _____    ______ ____
ROOT
ATOM      1  C   UNL     1      34.567 -18.170 -21.461  0.00  0.00    +0.009 C 
ATOM      2  C   UNL     1      35.125 -18.245 -22.906  0.00  0.00    -0.057 C 
ATOM      3  C   UNL     1      34.583 -17.078 -23.757  0.00  0.00    +0.009 C 
ATOM      4  C   UNL     1      34.949 -16.824 -20.802  0.00  0.00    +0.028 C 
ATOM      5  C   UNL     1      34.631 -15.764 -23.037  0.00  0.00    +0.025 C 
ATOM      6  C   UNL     1      34.806 -15.641 -21.714  0.00  0.00    -0.026 C 
ENDROOT
BRANCH   5  12
ATOM      7  O   UNL     1      34.443 -14.629 -25.055  0.00  0.00    -0.270 OA
ATOM      8  N   UNL     1      34.422 -13.320 -23.133  0.00  0.00    -0.267 N 
ATOM      9  N   UNL     1      32.905 -11.367 -21.917  0.00  0.00    -0.292 N 
ATOM     10  N   UNL     1      32.765 -10.050 -23.650  0.00  0.00    -0.132 NA
ATOM     11  N   UNL     1      31.973  -9.539 -22.637  0.00  0.00    -0.125 NA
ATOM     12  C   UNL     1      34.494 -14.524 -23.828  0.00  0.00    +0.245 C 
ATOM     13  C   UNL     1      34.556 -13.150 -21.673  0.00  0.00    +0.119 C 
ATOM     14  C   UNL     1      34.273 -12.068 -23.892  0.00  0.00    +0.160 C 
ATOM     15  C   UNL     1      33.292 -12.503 -21.109  0.00  0.00    +0.130 C 
ATOM     16  C   UNL     1      33.321 -11.157 -23.203  0.00  0.00    +0.164 A 
ATOM     17  C   UNL     1      32.071 -10.347 -21.605  0.00  0.00    +0.238 A 
BRANCH  17  21
ATOM     18  F   UNL     1      32.092 -10.738 -19.244  0.00  0.00    -0.163 F 
ATOM     19  F   UNL     1      31.143  -8.913 -19.930  0.00  0.00    -0.163 F 
ATOM     20  F   UNL     1      30.171 -10.829 -20.258  0.00  0.00    -0.163 F 
ATOM     21  C   UNL     1      31.395 -10.210 -20.303  0.00  0.00    +0.452 C 
ENDBRANCH  17  21
ENDBRANCH   5  12
BRANCH   1  25
ATOM     22  F   UNL     1      37.271 -18.710 -20.792  0.00  0.00    -0.204 F 
ATOM     23  F   UNL     1      33.485 -22.074 -18.729  0.00  0.00    -0.202 F 
ATOM     24  F   UNL     1      36.129 -22.475 -18.165  0.00  0.00    -0.202 F 
ATOM     25  C   UNL     1      34.991 -19.329 -20.572  0.00  0.00    +0.006 C 
ATOM     26  C   UNL     1      36.338 -19.529 -20.288  0.00  0.00    +0.138 C 
ATOM     27  C   UNL     1      34.025 -20.183 -20.050  0.00  0.00    +0.030 C 
ATOM     28  C   UNL     1      34.410 -21.247 -19.234  0.00  0.00    +0.167 C 
ATOM     29  C   UNL     1      36.723 -20.593 -19.473  0.00  0.00    +0.061 C 
ATOM     30  C   UNL     1      35.759 -21.452 -18.946  0.00  0.00    +0.170 C 
ENDBRANCH   1  25
BRANCH   2  31
ATOM     31  N   UNL     1      34.778 -19.515 -23.550  0.00  0.00    +0.382 N 
ATOM     32  H   UNL     1      34.009 -19.954 -23.042  0.00  0.00    -0.089 HD
ATOM     33  H   UNL     1      35.588 -20.134 -23.540  0.00  0.00    -0.089 HD
ATOM     34  H   UNL     1      34.493 -19.341 -24.514  0.00  0.00    -0.089 HD
ENDBRANCH   2  31
TORSDOF 4
ENDMDL
MODEL 9
REMARK VINA RESULT:     -11.1     10.388     15.947
REMARK  Name = 11974440
REMARK  4 active torsions:
REMARK  status: ('A' for Active; 'I' for Inactive)
REMARK    1  A    between atoms: C_1  and  C_25
REMARK    2  A    between atoms: C_2  and  N_31
REMARK    3  A    between atoms: C_5  and  C_12
REMARK    4  A    between atoms: C_17  and  C_21
REMARK                            x       y       z     vdW  Elec       q    Type
REMARK                         _______ _______ _______ _____ _____    ______ ____
ROOT
ATOM      1  C   UNL     1      32.922 -12.039 -22.879  0.00  0.00    +0.009 C 
ATOM      2  C   UNL     1      33.954 -10.882 -22.841  0.00  0.00    -0.057 C 
ATOM      3  C   UNL     1      33.247  -9.536 -22.578  0.00  0.00    +0.009 C 
ATOM      4  C   UNL     1      32.140 -12.112 -21.546  0.00  0.00    +0.028 C 
ATOM      5  C   UNL     1      32.223  -9.621 -21.486  0.00  0.00    +0.025 C 
ATOM      6  C   UNL     1      31.730 -10.772 -21.011  0.00  0.00    -0.026 C 
ENDROOT
BRANCH   5  12
ATOM      7  O   UNL     1      31.714  -8.290 -19.652  0.00  0.00    -0.270 OA
ATOM      8  N   UNL     1      31.342  -7.344 -21.743  0.00  0.00    -0.267 N 
ATOM      9  N   UNL     1      31.968  -5.080 -23.185  0.00  0.00    -0.292 N 
ATOM     10  N   UNL     1      31.362  -3.643 -21.660  0.00  0.00    -0.132 NA
ATOM     11  N   UNL     1      31.944  -2.958 -22.712  0.00  0.00    -0.125 NA
ATOM     12  C   UNL     1      31.735  -8.365 -20.882  0.00  0.00    +0.245 C 
ATOM     13  C   UNL     1      31.283  -7.424 -23.216  0.00  0.00    +0.119 C 
ATOM     14  C   UNL     1      30.863  -6.075 -21.171  0.00  0.00    +0.160 C 
ATOM     15  C   UNL     1      32.187  -6.357 -23.829  0.00  0.00    +0.130 C 
ATOM     16  C   UNL     1      31.385  -4.926 -21.957  0.00  0.00    +0.164 A 
ATOM     17  C   UNL     1      32.302  -3.841 -23.618  0.00  0.00    +0.238 A 
BRANCH  17  21
ATOM     18  F   UNL     1      34.194  -4.179 -25.043  0.00  0.00    -0.163 F 
ATOM     19  F   UNL     1      32.259  -3.989 -26.005  0.00  0.00    -0.163 F 
ATOM     20  F   UNL     1      33.209  -2.242 -25.126  0.00  0.00    -0.163 F 
ATOM     21  C   UNL     1      32.968  -3.575 -24.904  0.00  0.00    +0.452 C 
ENDBRANCH  17  21
ENDBRANCH   5  12
BRANCH   1  25
ATOM     22  F   UNL     1      34.708 -13.410 -21.153  0.00  0.00    -0.204 F 
ATOM     23  F   UNL     1      33.447 -15.863 -25.875  0.00  0.00    -0.202 F 
ATOM     24  F   UNL     1      35.155 -17.071 -24.117  0.00  0.00    -0.202 F 
ATOM     25  C   UNL     1      33.524 -13.396 -23.210  0.00  0.00    +0.006 C 
ATOM     26  C   UNL     1      34.393 -14.006 -22.311  0.00  0.00    +0.138 C 
ATOM     27  C   UNL     1      33.202 -14.016 -24.413  0.00  0.00    +0.030 C 
ATOM     28  C   UNL     1      33.753 -15.260 -24.719  0.00  0.00    +0.167 C 
ATOM     29  C   UNL     1      34.944 -15.250 -22.617  0.00  0.00    +0.061 C 
ATOM     30  C   UNL     1      34.624 -15.878 -23.821  0.00  0.00    +0.170 C 
ENDBRANCH   1  25
BRANCH   2  31
ATOM     31  N   UNL     1      34.709 -10.795 -24.093  0.00  0.00    +0.382 N 
ATOM     32  H   UNL     1      35.689 -11.020 -23.915  0.00  0.00    -0.089 HD
ATOM     33  H   UNL     1      34.640  -9.850 -24.468  0.00  0.00    -0.089 HD
ATOM     34  H   UNL     1      34.327 -11.459 -24.768  0.00  0.00    -0.089 HD
ENDBRANCH   2  31
TORSDOF 4
ENDMDL
