MODEL 1
REMARK VINA RESULT:     -13.1      0.000      0.000
REMARK  Name = 5288607
REMARK  4 active torsions:
REMARK  status: ('A' for Active; 'I' for Inactive)
REMARK    1  A    between atoms: N_2  and  C_19
REMARK    2  A    between atoms: C_3  and  C_6
REMARK    3  A    between atoms: C_5  and  C_16
REMARK    4  A    between atoms: C_19  and  C_21
REMARK                            x       y       z     vdW  Elec       q    Type
REMARK                         _______ _______ _______ _____ _____    ______ ____
ROOT
ATOM      1  O   UNL     1      34.732 -16.074 -25.503  0.00  0.00    -0.270 OA
ATOM      2  N   UNL     1      33.633 -14.523 -24.166  0.00  0.00    -0.270 N 
ATOM      3  C   UNL     1      34.439 -15.642 -24.388  0.00  0.00    +0.249 C 
ATOM      4  C   UNL     1      33.086 -13.799 -25.307  0.00  0.00    +0.116 C 
ENDROOT
BRANCH   3   6
ATOM      5  C   UNL     1      34.889 -17.698 -23.094  0.00  0.00    +0.006 C 
ATOM      6  C   UNL     1      34.933 -16.347 -23.167  0.00  0.00    +0.058 C 
BRANCH   5  16
ATOM      7  O   UNL     1      36.311 -22.287 -17.073  0.00  0.00    -0.275 OA
ATOM      8  N   UNL     1      36.630 -20.684 -18.686  0.00  0.00    -0.270 N 
ATOM      9  N   UNL     1      37.043 -19.082 -20.377  0.00  0.00    -0.229 NA
ATOM     10  C   UNL     1      33.930 -21.020 -19.483  0.00  0.00    +0.039 C 
ATOM     11  C   UNL     1      34.868 -20.128 -20.240  0.00  0.00    +0.010 C 
ATOM     12  C   UNL     1      34.686 -22.168 -18.832  0.00  0.00    +0.090 C 
ATOM     13  C   UNL     1      36.179 -19.952 -19.801  0.00  0.00    +0.130 C 
ATOM     14  C   UNL     1      34.435 -19.374 -21.332  0.00  0.00    +0.000 C 
ATOM     15  C   UNL     1      35.924 -21.709 -18.089  0.00  0.00    +0.227 C 
ATOM     16  C   UNL     1      35.310 -18.491 -21.953  0.00  0.00    +0.019 C 
ATOM     17  C   UNL     1      36.590 -18.381 -21.440  0.00  0.00    +0.100 C 
ATOM     18  H   UNL     1      37.507 -20.449 -18.307  0.00  0.00    +0.156 HD
ENDBRANCH   5  16
ENDBRANCH   3   6
BRANCH   2  19
ATOM     19  C   UNL     1      33.245 -14.013 -22.853  0.00  0.00    +0.122 C 
BRANCH  19  21
ATOM     20  N   UNL     1      33.901 -10.455 -23.344  0.00  0.00    -0.284 N 
ATOM     21  C   UNL     1      33.311 -12.524 -22.854  0.00  0.00    +0.014 C 
ATOM     22  C   UNL     1      32.538 -11.655 -22.049  0.00  0.00    +0.013 C 
ATOM     23  C   UNL     1      32.927 -10.355 -22.376  0.00  0.00    +0.051 C 
ATOM     24  C   UNL     1      34.140 -11.770 -23.639  0.00  0.00    +0.063 C 
ATOM     25  C   UNL     1      31.539 -11.838 -21.072  0.00  0.00    +0.001 C 
ATOM     26  C   UNL     1      32.366  -9.223 -21.772  0.00  0.00    +0.015 C 
ATOM     27  C   UNL     1      34.583  -9.341 -23.969  0.00  0.00    +0.117 C 
ATOM     28  C   UNL     1      30.970 -10.717 -20.458  0.00  0.00    +0.000 C 
ATOM     29  C   UNL     1      31.378  -9.431 -20.805  0.00  0.00    +0.001 C 
ENDBRANCH  19  21
ENDBRANCH   2  19
TORSDOF 4
ENDMDL
MODEL 2
REMARK VINA RESULT:     -12.8      1.209      2.140
REMARK  Name = 5288607
REMARK  4 active torsions:
REMARK  status: ('A' for Active; 'I' for Inactive)
REMARK    1  A    between atoms: N_2  and  C_19
REMARK    2  A    between atoms: C_3  and  C_6
REMARK    3  A    between atoms: C_5  and  C_16
REMARK    4  A    between atoms: C_19  and  C_21
REMARK                            x       y       z     vdW  Elec       q    Type
REMARK                         _______ _______ _______ _____ _____    ______ ____
ROOT
ATOM      1  O   UNL     1      33.416 -17.323 -25.322  0.00  0.00    -0.270 OA
ATOM      2  N   UNL     1      34.296 -15.267 -24.690  0.00  0.00    -0.270 N 
ATOM      3  C   UNL     1      34.104 -16.645 -24.558  0.00  0.00    +0.249 C 
ATOM      4  C   UNL     1      33.655 -14.557 -25.789  0.00  0.00    +0.116 C 
ENDROOT
BRANCH   3   6
ATOM      5  C   UNL     1      34.229 -18.395 -22.821  0.00  0.00    +0.006 C 
ATOM      6  C   UNL     1      34.770 -17.291 -23.388  0.00  0.00    +0.058 C 
BRANCH   5  16
ATOM      7  O   UNL     1      36.269 -22.493 -16.625  0.00  0.00    -0.275 OA
ATOM      8  N   UNL     1      36.410 -21.008 -18.370  0.00  0.00    -0.270 N 
ATOM      9  N   UNL     1      36.637 -19.528 -20.202  0.00  0.00    -0.229 NA
ATOM     10  C   UNL     1      33.663 -21.459 -18.910  0.00  0.00    +0.039 C 
ATOM     11  C   UNL     1      34.510 -20.606 -19.806  0.00  0.00    +0.010 C 
ATOM     12  C   UNL     1      34.501 -22.540 -18.244  0.00  0.00    +0.090 C 
ATOM     13  C   UNL     1      35.848 -20.370 -19.494  0.00  0.00    +0.130 C 
ATOM     14  C   UNL     1      33.968 -19.945 -20.909  0.00  0.00    +0.000 C 
ATOM     15  C   UNL     1      35.783 -22.001 -17.644  0.00  0.00    +0.227 C 
ATOM     16  C   UNL     1      34.764 -19.093 -21.665  0.00  0.00    +0.019 C 
ATOM     17  C   UNL     1      36.080 -18.918 -21.271  0.00  0.00    +0.100 C 
ATOM     18  H   UNL     1      37.309 -20.727 -18.085  0.00  0.00    +0.156 HD
ENDBRANCH   5  16
ENDBRANCH   3   6
BRANCH   2  19
ATOM     19  C   UNL     1      35.080 -14.437 -23.777  0.00  0.00    +0.122 C 
BRANCH  19  21
ATOM     20  N   UNL     1      32.743 -12.959 -21.393  0.00  0.00    -0.284 N 
ATOM     21  C   UNL     1      34.165 -13.594 -22.956  0.00  0.00    +0.014 C 
ATOM     22  C   UNL     1      33.876 -12.226 -23.169  0.00  0.00    +0.013 C 
ATOM     23  C   UNL     1      32.977 -11.847 -22.170  0.00  0.00    +0.051 C 
ATOM     24  C   UNL     1      33.461 -14.025 -21.865  0.00  0.00    +0.063 C 
ATOM     25  C   UNL     1      34.288 -11.262 -24.111  0.00  0.00    +0.001 C 
ATOM     26  C   UNL     1      32.467 -10.548 -22.065  0.00  0.00    +0.015 C 
ATOM     27  C   UNL     1      31.867 -13.010 -20.241  0.00  0.00    +0.117 C 
ATOM     28  C   UNL     1      33.786  -9.960 -24.020  0.00  0.00    +0.000 C 
ATOM     29  C   UNL     1      32.890  -9.610 -23.012  0.00  0.00    +0.001 C 
ENDBRANCH  19  21
ENDBRANCH   2  19
TORSDOF 4
ENDMDL
MODEL 3
REMARK VINA RESULT:     -11.8      5.919     12.423
REMARK  Name = 5288607
REMARK  4 active torsions:
REMARK  status: ('A' for Active; 'I' for Inactive)
REMARK    1  A    between atoms: N_2  and  C_19
REMARK    2  A    between atoms: C_3  and  C_6
REMARK    3  A    between atoms: C_5  and  C_16
REMARK    4  A    between atoms: C_19  and  C_21
REMARK                            x       y       z     vdW  Elec       q    Type
REMARK                         _______ _______ _______ _____ _____    ______ ____
ROOT
ATOM      1  O   UNL     1      30.896 -24.422 -15.759  0.00  0.00    -0.270 OA
ATOM      2  N   UNL     1      32.260 -24.007 -13.923  0.00  0.00    -0.270 N 
ATOM      3  C   UNL     1      31.823 -23.803 -15.234  0.00  0.00    +0.249 C 
ATOM      4  C   UNL     1      31.599 -25.010 -13.098  0.00  0.00    +0.116 C 
ENDROOT
BRANCH   3   6
ATOM      5  C   UNL     1      33.439 -23.166 -16.990  0.00  0.00    +0.006 C 
ATOM      6  C   UNL     1      32.572 -22.780 -16.024  0.00  0.00    +0.058 C 
BRANCH   5  16
ATOM      7  O   UNL     1      36.951 -18.193 -21.709  0.00  0.00    -0.275 OA
ATOM      8  N   UNL     1      36.662 -19.763 -20.059  0.00  0.00    -0.270 N 
ATOM      9  N   UNL     1      36.409 -21.317 -18.293  0.00  0.00    -0.229 NA
ATOM     10  C   UNL     1      33.931 -19.959 -20.794  0.00  0.00    +0.039 C 
ATOM     11  C   UNL     1      34.478 -20.687 -19.603  0.00  0.00    +0.010 C 
ATOM     12  C   UNL     1      34.700 -18.669 -21.038  0.00  0.00    +0.090 C 
ATOM     13  C   UNL     1      35.834 -20.603 -19.290  0.00  0.00    +0.130 C 
ATOM     14  C   UNL     1      33.681 -21.545 -18.843  0.00  0.00    +0.000 C 
ATOM     15  C   UNL     1      36.201 -18.866 -21.002  0.00  0.00    +0.227 C 
ATOM     16  C   UNL     1      34.244 -22.271 -17.801  0.00  0.00    +0.019 C 
ATOM     17  C   UNL     1      35.601 -22.125 -17.571  0.00  0.00    +0.100 C 
ATOM     18  H   UNL     1      37.634 -19.819 -19.914  0.00  0.00    +0.156 HD
ENDBRANCH   5  16
ENDBRANCH   3   6
BRANCH   2  19
ATOM     19  C   UNL     1      33.378 -23.310 -13.292  0.00  0.00    +0.122 C 
BRANCH  19  21
ATOM     20  N   UNL     1      36.074 -25.606 -14.179  0.00  0.00    -0.284 N 
ATOM     21  C   UNL     1      34.623 -24.114 -13.446  0.00  0.00    +0.014 C 
ATOM     22  C   UNL     1      35.804 -23.977 -12.680  0.00  0.00    +0.013 C 
ATOM     23  C   UNL     1      36.706 -24.928 -13.161  0.00  0.00    +0.051 C 
ATOM     24  C   UNL     1      34.808 -25.118 -14.357  0.00  0.00    +0.063 C 
ATOM     25  C   UNL     1      36.206 -23.137 -11.622  0.00  0.00    +0.001 C 
ATOM     26  C   UNL     1      37.994 -25.082 -12.636  0.00  0.00    +0.015 C 
ATOM     27  C   UNL     1      36.652 -26.681 -14.958  0.00  0.00    +0.117 C 
ATOM     28  C   UNL     1      37.490 -23.280 -11.086  0.00  0.00    +0.000 C 
ATOM     29  C   UNL     1      38.369 -24.238 -11.586  0.00  0.00    +0.001 C 
ENDBRANCH  19  21
ENDBRANCH   2  19
TORSDOF 4
ENDMDL
MODEL 4
REMARK VINA RESULT:     -11.0      2.267      9.259
REMARK  Name = 5288607
REMARK  4 active torsions:
REMARK  status: ('A' for Active; 'I' for Inactive)
REMARK    1  A    between atoms: N_2  and  C_19
REMARK    2  A    between atoms: C_3  and  C_6
REMARK    3  A    between atoms: C_5  and  C_16
REMARK    4  A    between atoms: C_19  and  C_21
REMARK                            x       y       z     vdW  Elec       q    Type
REMARK                         _______ _______ _______ _____ _____    ______ ____
ROOT
ATOM      1  O   UNL     1      34.181 -17.156 -24.928  0.00  0.00    -0.270 OA
ATOM      2  N   UNL     1      35.221 -17.829 -22.962  0.00  0.00    -0.270 N 
ATOM      3  C   UNL     1      34.599 -16.899 -23.799  0.00  0.00    +0.249 C 
ATOM      4  C   UNL     1      35.403 -19.199 -23.427  0.00  0.00    +0.116 C 
ENDROOT
BRANCH   3   6
ATOM      5  C   UNL     1      33.464 -14.709 -23.664  0.00  0.00    +0.006 C 
ATOM      6  C   UNL     1      34.479 -15.510 -23.261  0.00  0.00    +0.058 C 
BRANCH   5  16
ATOM      7  O   UNL     1      31.903  -7.763 -20.723  0.00  0.00    -0.275 OA
ATOM      8  N   UNL     1      32.738  -9.368 -22.136  0.00  0.00    -0.270 N 
ATOM      9  N   UNL     1      33.693 -10.984 -23.577  0.00  0.00    -0.229 NA
ATOM     10  C   UNL     1      31.345 -11.335 -20.644  0.00  0.00    +0.039 C 
ATOM     11  C   UNL     1      32.279 -11.708 -21.755  0.00  0.00    +0.010 C 
ATOM     12  C   UNL     1      31.786 -10.039 -19.980  0.00  0.00    +0.090 C 
ATOM     13  C   UNL     1      32.920 -10.717 -22.497  0.00  0.00    +0.130 C 
ATOM     14  C   UNL     1      32.454 -13.037 -22.146  0.00  0.00    +0.000 C 
ATOM     15  C   UNL     1      32.109  -8.949 -20.981  0.00  0.00    +0.227 C 
ATOM     16  C   UNL     1      33.260 -13.336 -23.237  0.00  0.00    +0.019 C 
ATOM     17  C   UNL     1      33.849 -12.283 -23.915  0.00  0.00    +0.100 C 
ATOM     18  H   UNL     1      33.083  -8.679 -22.748  0.00  0.00    +0.156 HD
ENDBRANCH   5  16
ENDBRANCH   3   6
BRANCH   2  19
ATOM     19  C   UNL     1      35.754 -17.540 -21.633  0.00  0.00    +0.122 C 
BRANCH  19  21
ATOM     20  N   UNL     1      36.377 -20.494 -19.580  0.00  0.00    -0.284 N 
ATOM     21  C   UNL     1      35.724 -18.775 -20.800  0.00  0.00    +0.014 C 
ATOM     22  C   UNL     1      34.568 -19.497 -20.422  0.00  0.00    +0.013 C 
ATOM     23  C   UNL     1      35.005 -20.577 -19.652  0.00  0.00    +0.051 C 
ATOM     24  C   UNL     1      36.822 -19.403 -20.276  0.00  0.00    +0.063 C 
ATOM     25  C   UNL     1      33.186 -19.344 -20.652  0.00  0.00    +0.001 C 
ATOM     26  C   UNL     1      34.126 -21.516 -19.099  0.00  0.00    +0.015 C 
ATOM     27  C   UNL     1      37.239 -21.420 -18.875  0.00  0.00    +0.117 C 
ATOM     28  C   UNL     1      32.296 -20.275 -20.107  0.00  0.00    +0.000 C 
ATOM     29  C   UNL     1      32.760 -21.343 -19.343  0.00  0.00    +0.001 C 
ENDBRANCH  19  21
ENDBRANCH   2  19
TORSDOF 4
ENDMDL
MODEL 5
REMARK VINA RESULT:     -10.5      2.457      9.366
REMARK  Name = 5288607
REMARK  4 active torsions:
REMARK  status: ('A' for Active; 'I' for Inactive)
REMARK    1  A    between atoms: N_2  and  C_19
REMARK    2  A    between atoms: C_3  and  C_6
REMARK    3  A    between atoms: C_5  and  C_16
REMARK    4  A    between atoms: C_19  and  C_21
REMARK                            x       y       z     vdW  Elec       q    Type
REMARK                         _______ _______ _______ _____ _____    ______ ____
ROOT
ATOM      1  O   UNL     1      34.251 -16.772 -25.339  0.00  0.00    -0.270 OA
ATOM      2  N   UNL     1      35.070 -17.675 -23.360  0.00  0.00    -0.270 N 
ATOM      3  C   UNL     1      34.543 -16.649 -24.149  0.00  0.00    +0.249 C 
ATOM      4  C   UNL     1      35.300 -18.986 -23.953  0.00  0.00    +0.116 C 
ENDROOT
BRANCH   3   6
ATOM      5  C   UNL     1      33.480 -14.427 -23.962  0.00  0.00    +0.006 C 
ATOM      6  C   UNL     1      34.367 -15.327 -23.475  0.00  0.00    +0.058 C 
BRANCH   5  16
ATOM      7  O   UNL     1      31.804  -7.817 -20.380  0.00  0.00    -0.275 OA
ATOM      8  N   UNL     1      32.615  -9.264 -21.968  0.00  0.00    -0.270 N 
ATOM      9  N   UNL     1      33.542 -10.713 -23.592  0.00  0.00    -0.229 NA
ATOM     10  C   UNL     1      31.418 -11.409 -20.552  0.00  0.00    +0.039 C 
ATOM     11  C   UNL     1      32.291 -11.647 -21.747  0.00  0.00    +0.010 C 
ATOM     12  C   UNL     1      31.843 -10.147 -19.816  0.00  0.00    +0.090 C 
ATOM     13  C   UNL     1      32.834 -10.570 -22.447  0.00  0.00    +0.130 C 
ATOM     14  C   UNL     1      32.500 -12.931 -22.254  0.00  0.00    +0.000 C 
ATOM     15  C   UNL     1      32.047  -8.968 -20.745  0.00  0.00    +0.227 C 
ATOM     16  C   UNL     1      33.242 -13.104 -23.415  0.00  0.00    +0.019 C 
ATOM     17  C   UNL     1      33.734 -11.972 -24.042  0.00  0.00    +0.100 C 
ATOM     18  H   UNL     1      32.885  -8.513 -22.543  0.00  0.00    +0.156 HD
ENDBRANCH   5  16
ENDBRANCH   3   6
BRANCH   2  19
ATOM     19  C   UNL     1      35.455 -17.542 -21.957  0.00  0.00    +0.122 C 
BRANCH  19  21
ATOM     20  N   UNL     1      33.456 -20.114 -20.308  0.00  0.00    -0.284 N 
ATOM     21  C   UNL     1      34.889 -18.675 -21.172  0.00  0.00    +0.014 C 
ATOM     22  C   UNL     1      35.616 -19.555 -20.335  0.00  0.00    +0.013 C 
ATOM     23  C   UNL     1      34.691 -20.455 -19.802  0.00  0.00    +0.051 C 
ATOM     24  C   UNL     1      33.569 -19.033 -21.140  0.00  0.00    +0.063 C 
ATOM     25  C   UNL     1      36.972 -19.684 -19.975  0.00  0.00    +0.001 C 
ATOM     26  C   UNL     1      35.055 -21.481 -18.922  0.00  0.00    +0.015 C 
ATOM     27  C   UNL     1      32.211 -20.792 -20.013  0.00  0.00    +0.117 C 
ATOM     28  C   UNL     1      37.351 -20.703 -19.095  0.00  0.00    +0.000 C 
ATOM     29  C   UNL     1      36.406 -21.587 -18.579  0.00  0.00    +0.001 C 
ENDBRANCH  19  21
ENDBRANCH   2  19
TORSDOF 4
ENDMDL
MODEL 6
REMARK VINA RESULT:     -10.5      5.626     11.352
REMARK  Name = 5288607
REMARK  4 active torsions:
REMARK  status: ('A' for Active; 'I' for Inactive)
REMARK    1  A    between atoms: N_2  and  C_19
REMARK    2  A    between atoms: C_3  and  C_6
REMARK    3  A    between atoms: C_5  and  C_16
REMARK    4  A    between atoms: C_19  and  C_21
REMARK                            x       y       z     vdW  Elec       q    Type
REMARK                         _______ _______ _______ _____ _____    ______ ____
ROOT
ATOM      1  O   UNL     1      37.929 -22.378 -14.560  0.00  0.00    -0.270 OA
ATOM      2  N   UNL     1      36.447 -24.166 -14.474  0.00  0.00    -0.270 N 
ATOM      3  C   UNL     1      36.934 -22.962 -14.991  0.00  0.00    +0.249 C 
ATOM      4  C   UNL     1      37.136 -24.795 -13.355  0.00  0.00    +0.116 C 
ENDROOT
BRANCH   3   6
ATOM      5  C   UNL     1      36.790 -21.901 -17.216  0.00  0.00    +0.006 C 
ATOM      6  C   UNL     1      36.153 -22.367 -16.116  0.00  0.00    +0.058 C 
BRANCH   5  16
ATOM      7  O   UNL     1      34.145 -18.154 -23.404  0.00  0.00    -0.275 OA
ATOM      8  N   UNL     1      34.183 -19.549 -21.581  0.00  0.00    -0.270 N 
ATOM      9  N   UNL     1      34.192 -21.062 -19.763  0.00  0.00    -0.229 NA
ATOM     10  C   UNL     1      36.794 -18.619 -20.987  0.00  0.00    +0.039 C 
ATOM     11  C   UNL     1      36.160 -19.730 -20.206  0.00  0.00    +0.010 C 
ATOM     12  C   UNL     1      36.284 -18.606 -22.420  0.00  0.00    +0.090 C 
ATOM     13  C   UNL     1      34.859 -20.139 -20.496  0.00  0.00    +0.130 C 
ATOM     14  C   UNL     1      36.801 -20.311 -19.111  0.00  0.00    +0.000 C 
ATOM     15  C   UNL     1      34.775 -18.711 -22.505  0.00  0.00    +0.227 C 
ATOM     16  C   UNL     1      36.146 -21.276 -18.357  0.00  0.00    +0.019 C 
ATOM     17  C   UNL     1      34.853 -21.611 -18.719  0.00  0.00    +0.100 C 
ATOM     18  H   UNL     1      33.224 -19.747 -21.687  0.00  0.00    +0.156 HD
ENDBRANCH   5  16
ENDBRANCH   3   6
BRANCH   2  19
ATOM     19  C   UNL     1      35.250 -24.859 -14.946  0.00  0.00    +0.122 C 
BRANCH  19  21
ATOM     20  N   UNL     1      32.569 -23.425 -12.926  0.00  0.00    -0.284 N 
ATOM     21  C   UNL     1      34.037 -24.211 -14.374  0.00  0.00    +0.014 C 
ATOM     22  C   UNL     1      32.966 -23.650 -15.109  0.00  0.00    +0.013 C 
ATOM     23  C   UNL     1      32.052 -23.160 -14.174  0.00  0.00    +0.051 C 
ATOM     24  C   UNL     1      33.774 -24.064 -13.039  0.00  0.00    +0.063 C 
ATOM     25  C   UNL     1      32.677 -23.504 -16.481  0.00  0.00    +0.001 C 
ATOM     26  C   UNL     1      30.859 -22.528 -14.543  0.00  0.00    +0.015 C 
ATOM     27  C   UNL     1      31.940 -23.083 -11.667  0.00  0.00    +0.117 C 
ATOM     28  C   UNL     1      31.487 -22.877 -16.865  0.00  0.00    +0.000 C 
ATOM     29  C   UNL     1      30.594 -22.397 -15.910  0.00  0.00    +0.001 C 
ENDBRANCH  19  21
ENDBRANCH   2  19
TORSDOF 4
ENDMDL
MODEL 7
REMARK VINA RESULT:     -10.4      6.153     11.927
REMARK  Name = 5288607
REMARK  4 active torsions:
REMARK  status: ('A' for Active; 'I' for Inactive)
REMARK    1  A    between atoms: N_2  and  C_19
REMARK    2  A    between atoms: C_3  and  C_6
REMARK    3  A    between atoms: C_5  and  C_16
REMARK    4  A    between atoms: C_19  and  C_21
REMARK                            x       y       z     vdW  Elec       q    Type
REMARK                         _______ _______ _______ _____ _____    ______ ____
ROOT
ATOM      1  O   UNL     1      30.941 -24.723 -15.828  0.00  0.00    -0.270 OA
ATOM      2  N   UNL     1      32.176 -23.924 -14.028  0.00  0.00    -0.270 N 
ATOM      3  C   UNL     1      31.703 -23.885 -15.342  0.00  0.00    +0.249 C 
ATOM      4  C   UNL     1      31.763 -25.012 -13.151  0.00  0.00    +0.116 C 
ENDROOT
BRANCH   3   6
ATOM      5  C   UNL     1      32.742 -23.001 -17.401  0.00  0.00    +0.006 C 
ATOM      6  C   UNL     1      32.198 -22.756 -16.185  0.00  0.00    +0.058 C 
BRANCH   5  16
ATOM      7  O   UNL     1      36.428 -17.933 -21.880  0.00  0.00    -0.275 OA
ATOM      8  N   UNL     1      34.704 -19.069 -20.876  0.00  0.00    -0.270 N 
ATOM      9  N   UNL     1      32.891 -20.262 -19.934  0.00  0.00    -0.229 NA
ATOM     10  C   UNL     1      36.604 -20.448 -19.288  0.00  0.00    +0.039 C 
ATOM     11  C   UNL     1      35.146 -20.793 -19.244  0.00  0.00    +0.010 C 
ATOM     12  C   UNL     1      36.992 -19.917 -20.660  0.00  0.00    +0.090 C 
ATOM     13  C   UNL     1      34.230 -20.070 -20.007  0.00  0.00    +0.130 C 
ATOM     14  C   UNL     1      34.652 -21.764 -18.371  0.00  0.00    +0.000 C 
ATOM     15  C   UNL     1      36.036 -18.860 -21.171  0.00  0.00    +0.227 C 
ATOM     16  C   UNL     1      33.284 -21.994 -18.295  0.00  0.00    +0.019 C 
ATOM     17  C   UNL     1      32.453 -21.220 -19.088  0.00  0.00    +0.100 C 
ATOM     18  H   UNL     1      34.040 -18.479 -21.301  0.00  0.00    +0.156 HD
ENDBRANCH   5  16
ENDBRANCH   3   6
BRANCH   2  19
ATOM     19  C   UNL     1      33.106 -22.962 -13.441  0.00  0.00    +0.122 C 
BRANCH  19  21
ATOM     20  N   UNL     1      36.162 -24.811 -12.688  0.00  0.00    -0.284 N 
ATOM     21  C   UNL     1      34.464 -23.567 -13.351  0.00  0.00    +0.014 C 
ATOM     22  C   UNL     1      35.571 -23.259 -14.176  0.00  0.00    +0.013 C 
ATOM     23  C   UNL     1      36.631 -24.056 -13.739  0.00  0.00    +0.051 C 
ATOM     24  C   UNL     1      34.847 -24.519 -12.445  0.00  0.00    +0.063 C 
ATOM     25  C   UNL     1      35.785 -22.381 -15.258  0.00  0.00    +0.001 C 
ATOM     26  C   UNL     1      37.898 -24.020 -14.332  0.00  0.00    +0.015 C 
ATOM     27  C   UNL     1      36.937 -25.778 -11.937  0.00  0.00    +0.117 C 
ATOM     28  C   UNL     1      37.047 -22.333 -15.859  0.00  0.00    +0.000 C 
ATOM     29  C   UNL     1      38.086 -23.140 -15.402  0.00  0.00    +0.001 C 
ENDBRANCH  19  21
ENDBRANCH   2  19
TORSDOF 4
ENDMDL
MODEL 8
REMARK VINA RESULT:     -10.4      4.231      7.500
REMARK  Name = 5288607
REMARK  4 active torsions:
REMARK  status: ('A' for Active; 'I' for Inactive)
REMARK    1  A    between atoms: N_2  and  C_19
REMARK    2  A    between atoms: C_3  and  C_6
REMARK    3  A    between atoms: C_5  and  C_16
REMARK    4  A    between atoms: C_19  and  C_21
REMARK                            x       y       z     vdW  Elec       q    Type
REMARK                         _______ _______ _______ _____ _____    ______ ____
ROOT
ATOM      1  O   UNL     1      32.306 -21.695 -18.439  0.00  0.00    -0.270 OA
ATOM      2  N   UNL     1      33.710 -20.508 -19.861  0.00  0.00    -0.270 N 
ATOM      3  C   UNL     1      33.439 -21.409 -18.828  0.00  0.00    +0.249 C 
ATOM      4  C   UNL     1      32.604 -19.846 -20.540  0.00  0.00    +0.116 C 
ENDROOT
BRANCH   3   6
ATOM      5  C   UNL     1      34.561 -22.401 -16.864  0.00  0.00    +0.006 C 
ATOM      6  C   UNL     1      34.628 -22.021 -18.162  0.00  0.00    +0.058 C 
BRANCH   5  16
ATOM      7  O   UNL     1      39.803 -26.128 -12.626  0.00  0.00    -0.275 OA
ATOM      8  N   UNL     1      38.854 -24.506 -13.944  0.00  0.00    -0.270 N 
ATOM      9  N   UNL     1      37.953 -22.846 -15.369  0.00  0.00    -0.229 NA
ATOM     10  C   UNL     1      36.384 -25.886 -13.778  0.00  0.00    +0.039 C 
ATOM     11  C   UNL     1      36.552 -24.680 -14.652  0.00  0.00    +0.010 C 
ATOM     12  C   UNL     1      37.696 -26.645 -13.646  0.00  0.00    +0.090 C 
ATOM     13  C   UNL     1      37.768 -23.999 -14.683  0.00  0.00    +0.130 C 
ATOM     14  C   UNL     1      35.482 -24.146 -15.373  0.00  0.00    +0.000 C 
ATOM     15  C   UNL     1      38.866 -25.739 -13.323  0.00  0.00    +0.227 C 
ATOM     16  C   UNL     1      35.655 -22.976 -16.102  0.00  0.00    +0.019 C 
ATOM     17  C   UNL     1      36.898 -22.368 -16.065  0.00  0.00    +0.100 C 
ATOM     18  H   UNL     1      39.658 -23.943 -13.866  0.00  0.00    +0.156 HD
ENDBRANCH   5  16
ENDBRANCH   3   6
BRANCH   2  19
ATOM     19  C   UNL     1      35.046 -20.129 -20.317  0.00  0.00    +0.122 C 
BRANCH  19  21
ATOM     20  N   UNL     1      35.062 -16.592 -21.221  0.00  0.00    -0.284 N 
ATOM     21  C   UNL     1      34.996 -18.781 -20.949  0.00  0.00    +0.014 C 
ATOM     22  C   UNL     1      34.739 -18.509 -22.314  0.00  0.00    +0.013 C 
ATOM     23  C   UNL     1      34.786 -17.121 -22.461  0.00  0.00    +0.051 C 
ATOM     24  C   UNL     1      35.190 -17.594 -20.297  0.00  0.00    +0.063 C 
ATOM     25  C   UNL     1      34.471 -19.302 -23.447  0.00  0.00    +0.001 C 
ATOM     26  C   UNL     1      34.578 -16.484 -23.690  0.00  0.00    +0.015 C 
ATOM     27  C   UNL     1      35.200 -15.182 -20.921  0.00  0.00    +0.117 C 
ATOM     28  C   UNL     1      34.260 -18.680 -24.682  0.00  0.00    +0.000 C 
ATOM     29  C   UNL     1      34.313 -17.293 -24.800  0.00  0.00    +0.001 C 
ENDBRANCH  19  21
ENDBRANCH   2  19
TORSDOF 4
ENDMDL
MODEL 9
REMARK VINA RESULT:     -10.3      3.894     10.786
REMARK  Name = 5288607
REMARK  4 active torsions:
REMARK  status: ('A' for Active; 'I' for Inactive)
REMARK    1  A    between atoms: N_2  and  C_19
REMARK    2  A    between atoms: C_3  and  C_6
REMARK    3  A    between atoms: C_5  and  C_16
REMARK    4  A    between atoms: C_19  and  C_21
REMARK                            x       y       z     vdW  Elec       q    Type
REMARK                         _______ _______ _______ _____ _____    ______ ____
ROOT
ATOM      1  O   UNL     1      37.231 -21.419 -17.602  0.00  0.00    -0.270 OA
ATOM      2  N   UNL     1      35.192 -22.413 -17.099  0.00  0.00    -0.270 N 
ATOM      3  C   UNL     1      36.058 -21.658 -17.893  0.00  0.00    +0.249 C 
ATOM      4  C   UNL     1      35.675 -22.967 -15.840  0.00  0.00    +0.116 C 
ENDROOT
BRANCH   3   6
ATOM      5  C   UNL     1      36.016 -19.995 -19.719  0.00  0.00    +0.006 C 
ATOM      6  C   UNL     1      35.477 -21.100 -19.150  0.00  0.00    +0.058 C 
BRANCH   5  16
ATOM      7  O   UNL     1      33.705 -15.775 -25.734  0.00  0.00    -0.275 OA
ATOM      8  N   UNL     1      34.057 -17.604 -24.391  0.00  0.00    -0.270 N 
ATOM      9  N   UNL     1      34.468 -19.533 -23.084  0.00  0.00    -0.229 NA
ATOM     10  C   UNL     1      35.088 -15.875 -22.394  0.00  0.00    +0.039 C 
ATOM     11  C   UNL     1      35.117 -17.365 -22.234  0.00  0.00    +0.010 C 
ATOM     12  C   UNL     1      35.176 -15.488 -23.863  0.00  0.00    +0.090 C 
ATOM     13  C   UNL     1      34.567 -18.189 -23.215  0.00  0.00    +0.130 C 
ATOM     14  C   UNL     1      35.594 -17.965 -21.067  0.00  0.00    +0.000 C 
ATOM     15  C   UNL     1      34.220 -16.276 -24.734  0.00  0.00    +0.227 C 
ATOM     16  C   UNL     1      35.523 -19.344 -20.919  0.00  0.00    +0.019 C 
ATOM     17  C   UNL     1      34.953 -20.076 -21.946  0.00  0.00    +0.100 C 
ATOM     18  H   UNL     1      33.551 -18.180 -25.008  0.00  0.00    +0.156 HD
ENDBRANCH   5  16
ENDBRANCH   3   6
BRANCH   2  19
ATOM     19  C   UNL     1      33.788 -22.681 -17.406  0.00  0.00    +0.122 C 
BRANCH  19  21
ATOM     20  N   UNL     1      32.706 -24.002 -14.179  0.00  0.00    -0.284 N 
ATOM     21  C   UNL     1      33.086 -23.144 -16.176  0.00  0.00    +0.014 C 
ATOM     22  C   UNL     1      31.694 -23.068 -15.933  0.00  0.00    +0.013 C 
ATOM     23  C   UNL     1      31.479 -23.615 -14.666  0.00  0.00    +0.051 C 
ATOM     24  C   UNL     1      33.687 -23.720 -15.091  0.00  0.00    +0.063 C 
ATOM     25  C   UNL     1      30.587 -22.587 -16.660  0.00  0.00    +0.001 C 
ATOM     26  C   UNL     1      30.207 -23.705 -14.088  0.00  0.00    +0.015 C 
ATOM     27  C   UNL     1      32.942 -24.619 -12.890  0.00  0.00    +0.117 C 
ATOM     28  C   UNL     1      29.310 -22.671 -16.096  0.00  0.00    +0.000 C 
ATOM     29  C   UNL     1      29.125 -23.222 -14.830  0.00  0.00    +0.001 C 
ENDBRANCH  19  21
ENDBRANCH   2  19
TORSDOF 4
ENDMDL
