MODEL 1
REMARK VINA RESULT:     -11.4      0.000      0.000
REMARK  Name = 11653652
REMARK  5 active torsions:
REMARK  status: ('A' for Active; 'I' for Inactive)
REMARK    1  A    between atoms: N_1  and  C_19
REMARK    2  A    between atoms: C_4  and  C_7
REMARK    3  A    between atoms: C_5  and  C_27
REMARK    4  A    between atoms: N_6  and  C_13
REMARK    5  A    between atoms: N_6  and  O_16
REMARK                            x       y       z     vdW  Elec       q    Type
REMARK                         _______ _______ _______ _____ _____    ______ ____
ROOT
ATOM      1  N   UNL     1      33.606 -22.209 -17.921  0.00  0.00    -0.212 N 
ATOM      2  N   UNL     1      32.326 -22.525 -17.663  0.00  0.00    -0.178 NA
ATOM      3  C   UNL     1      34.470 -22.539 -16.918  0.00  0.00    +0.085 C 
ATOM      4  C   UNL     1      33.699 -23.109 -15.938  0.00  0.00    +0.032 C 
ATOM      5  C   UNL     1      32.389 -23.075 -16.447  0.00  0.00    +0.100 C 
ENDROOT
BRANCH   4   6
ATOM      6  C   UNL     1      34.232 -23.599 -14.698  0.00  0.00    -0.015 C 
ATOM      7  C   UNL     1      35.926 -24.778 -13.487  0.00  0.00    -0.016 C 
ATOM      8  C   UNL     1      37.183 -25.559 -13.258  0.00  0.00    -0.002 C 
ATOM      9  C   UNL     1      35.226 -24.525 -12.313  0.00  0.00    +0.016 C 
ATOM     10  C   UNL     1      37.212 -25.789 -11.738  0.00  0.00    +0.021 C 
ATOM     11  C   UNL     1      35.434 -24.314 -14.695  0.00  0.00    +0.053 C 
ATOM     12  C   UNL     1      35.966 -25.119 -11.220  0.00  0.00    +0.107 C 
ATOM     13  C   UNL     1      33.538 -23.354 -13.500  0.00  0.00    -0.004 C 
ATOM     14  C   UNL     1      34.036 -23.821 -12.283  0.00  0.00    +0.001 C 
BRANCH  12  15
ATOM     15  N   UNL     1      35.650 -25.107  -9.971  0.00  0.00    -0.135 NA
BRANCH  15  16
ATOM     16  O   UNL     1      36.260 -24.002  -9.372  0.00  0.00    -0.265 OA
ATOM     17  H   UNL     1      36.273 -23.923  -8.438  0.00  0.00    +0.247 HD
ENDBRANCH  15  16
ENDBRANCH  12  15
ENDBRANCH   4   6
BRANCH   1  19
ATOM     18  N   UNL     1      34.666 -19.280 -20.865  0.00  0.00    +0.384 N 
ATOM     19  C   UNL     1      33.954 -21.570 -19.195  0.00  0.00    +0.092 C 
ATOM     20  C   UNL     1      32.916 -20.527 -19.639  0.00  0.00    -0.002 C 
ATOM     21  C   UNL     1      35.363 -20.957 -19.185  0.00  0.00    -0.002 C 
ATOM     22  C   UNL     1      33.330 -19.872 -20.955  0.00  0.00    -0.080 C 
ATOM     23  C   UNL     1      35.675 -20.284 -20.521  0.00  0.00    -0.080 C 
ATOM     24  H   UNL     1      34.660 -18.557 -20.146  0.00  0.00    -0.085 HD
ATOM     25  H   UNL     1      34.904 -18.887 -21.775  0.00  0.00    -0.085 HD
ENDBRANCH   1  19
BRANCH   5  27
ATOM     26  N   UNL     1      28.869 -24.482 -14.568  0.00  0.00    -0.242 NA
ATOM     27  C   UNL     1      31.190 -23.554 -15.807  0.00  0.00    +0.022 C 
ATOM     28  C   UNL     1      31.181 -24.801 -15.198  0.00  0.00    +0.022 C 
ATOM     29  C   UNL     1      30.047 -22.767 -15.800  0.00  0.00    +0.022 C 
ATOM     30  C   UNL     1      30.004 -25.217 -14.597  0.00  0.00    +0.099 C 
ATOM     31  C   UNL     1      28.921 -23.273 -15.172  0.00  0.00    +0.099 C 
ENDBRANCH   5  27
TORSDOF 5
ENDMDL
MODEL 2
REMARK VINA RESULT:      -9.8      3.317      7.324
REMARK  Name = 11653652
REMARK  5 active torsions:
REMARK  status: ('A' for Active; 'I' for Inactive)
REMARK    1  A    between atoms: N_1  and  C_19
REMARK    2  A    between atoms: C_4  and  C_7
REMARK    3  A    between atoms: C_5  and  C_27
REMARK    4  A    between atoms: N_6  and  C_13
REMARK    5  A    between atoms: N_6  and  O_16
REMARK                            x       y       z     vdW  Elec       q    Type
REMARK                         _______ _______ _______ _____ _____    ______ ____
ROOT
ATOM      1  N   UNL     1      35.327 -24.393 -14.514  0.00  0.00    -0.212 N 
ATOM      2  N   UNL     1      34.026 -24.331 -14.185  0.00  0.00    -0.178 NA
ATOM      3  C   UNL     1      35.643 -23.708 -15.651  0.00  0.00    +0.085 C 
ATOM      4  C   UNL     1      34.466 -23.162 -16.093  0.00  0.00    +0.032 C 
ATOM      5  C   UNL     1      33.504 -23.576 -15.156  0.00  0.00    +0.100 C 
ENDROOT
BRANCH   4   6
ATOM      6  C   UNL     1      34.364 -22.355 -17.277  0.00  0.00    -0.015 C 
ATOM      7  C   UNL     1      35.394 -21.019 -18.975  0.00  0.00    -0.016 C 
ATOM      8  C   UNL     1      36.489 -20.329 -19.728  0.00  0.00    -0.002 C 
ATOM      9  C   UNL     1      34.139 -20.817 -19.539  0.00  0.00    +0.016 C 
ATOM     10  C   UNL     1      35.764 -19.631 -20.890  0.00  0.00    +0.021 C 
ATOM     11  C   UNL     1      35.518 -21.795 -17.834  0.00  0.00    +0.053 C 
ATOM     12  C   UNL     1      34.310 -19.979 -20.707  0.00  0.00    +0.107 C 
ATOM     13  C   UNL     1      33.105 -22.138 -17.862  0.00  0.00    -0.004 C 
ATOM     14  C   UNL     1      32.981 -21.358 -19.012  0.00  0.00    +0.001 C 
BRANCH  12  15
ATOM     15  N   UNL     1      33.388 -19.562 -21.504  0.00  0.00    -0.135 NA
BRANCH  15  16
ATOM     16  O   UNL     1      33.996 -19.039 -22.648  0.00  0.00    -0.265 OA
ATOM     17  H   UNL     1      34.808 -18.576 -22.577  0.00  0.00    +0.247 HD
ENDBRANCH  15  16
ENDBRANCH  12  15
ENDBRANCH   4   6
BRANCH   1  19
ATOM     18  N   UNL     1      38.914 -26.050 -12.853  0.00  0.00    +0.384 N 
ATOM     19  C   UNL     1      36.255 -25.151 -13.668  0.00  0.00    +0.092 C 
ATOM     20  C   UNL     1      37.034 -26.220 -14.451  0.00  0.00    -0.002 C 
ATOM     21  C   UNL     1      37.221 -24.246 -12.888  0.00  0.00    -0.002 C 
ATOM     22  C   UNL     1      38.003 -26.968 -13.538  0.00  0.00    -0.080 C 
ATOM     23  C   UNL     1      38.183 -25.077 -12.039  0.00  0.00    -0.080 C 
ATOM     24  H   UNL     1      39.466 -25.550 -13.549  0.00  0.00    -0.085 HD
ATOM     25  H   UNL     1      39.514 -26.595 -12.235  0.00  0.00    -0.085 HD
ENDBRANCH   1  19
BRANCH   5  27
ATOM     26  N   UNL     1      29.368 -22.684 -15.159  0.00  0.00    -0.242 NA
ATOM     27  C   UNL     1      32.095 -23.272 -15.157  0.00  0.00    +0.022 C 
ATOM     28  C   UNL     1      31.512 -22.685 -14.043  0.00  0.00    +0.022 C 
ATOM     29  C   UNL     1      31.324 -23.568 -16.273  0.00  0.00    +0.022 C 
ATOM     30  C   UNL     1      30.155 -22.413 -14.093  0.00  0.00    +0.099 C 
ATOM     31  C   UNL     1      29.975 -23.256 -16.223  0.00  0.00    +0.099 C 
ENDBRANCH   5  27
TORSDOF 5
ENDMDL
MODEL 3
REMARK VINA RESULT:      -9.7      2.132      5.267
REMARK  Name = 11653652
REMARK  5 active torsions:
REMARK  status: ('A' for Active; 'I' for Inactive)
REMARK    1  A    between atoms: N_1  and  C_19
REMARK    2  A    between atoms: C_4  and  C_7
REMARK    3  A    between atoms: C_5  and  C_27
REMARK    4  A    between atoms: N_6  and  C_13
REMARK    5  A    between atoms: N_6  and  O_16
REMARK                            x       y       z     vdW  Elec       q    Type
REMARK                         _______ _______ _______ _____ _____    ______ ____
ROOT
ATOM      1  N   UNL     1      31.398 -23.387 -15.537  0.00  0.00    -0.212 N 
ATOM      2  N   UNL     1      32.004 -22.797 -16.582  0.00  0.00    -0.178 NA
ATOM      3  C   UNL     1      32.262 -23.936 -14.636  0.00  0.00    +0.085 C 
ATOM      4  C   UNL     1      33.517 -23.688 -15.127  0.00  0.00    +0.032 C 
ATOM      5  C   UNL     1      33.302 -22.985 -16.325  0.00  0.00    +0.100 C 
ENDROOT
BRANCH   4   6
ATOM      6  C   UNL     1      34.722 -24.106 -14.466  0.00  0.00    -0.015 C 
ATOM      7  C   UNL     1      36.439 -23.728 -12.842  0.00  0.00    -0.016 C 
ATOM      8  C   UNL     1      37.195 -23.029 -11.755  0.00  0.00    -0.002 C 
ATOM      9  C   UNL     1      37.025 -24.931 -13.221  0.00  0.00    +0.016 C 
ATOM     10  C   UNL     1      38.384 -23.960 -11.466  0.00  0.00    +0.021 C 
ATOM     11  C   UNL     1      35.276 -23.304 -13.464  0.00  0.00    +0.053 C 
ATOM     12  C   UNL     1      38.211 -25.118 -12.414  0.00  0.00    +0.107 C 
ATOM     13  C   UNL     1      35.330 -25.318 -14.835  0.00  0.00    -0.004 C 
ATOM     14  C   UNL     1      36.500 -25.745 -14.208  0.00  0.00    +0.001 C 
BRANCH  12  15
ATOM     15  N   UNL     1      39.033 -26.109 -12.460  0.00  0.00    -0.135 NA
BRANCH  15  16
ATOM     16  O   UNL     1      39.935 -25.887 -13.504  0.00  0.00    -0.265 OA
ATOM     17  H   UNL     1      40.639 -26.488 -13.650  0.00  0.00    +0.247 HD
ENDBRANCH  15  16
ENDBRANCH  12  15
ENDBRANCH   4   6
BRANCH   1  19
ATOM     18  N   UNL     1      27.290 -22.188 -15.781  0.00  0.00    +0.384 N 
ATOM     19  C   UNL     1      29.934 -23.391 -15.454  0.00  0.00    +0.092 C 
ATOM     20  C   UNL     1      29.391 -22.330 -14.483  0.00  0.00    -0.002 C 
ATOM     21  C   UNL     1      29.261 -23.255 -16.829  0.00  0.00    -0.002 C 
ATOM     22  C   UNL     1      27.864 -22.355 -14.445  0.00  0.00    -0.080 C 
ATOM     23  C   UNL     1      27.738 -23.242 -16.693  0.00  0.00    -0.080 C 
ATOM     24  H   UNL     1      27.577 -21.283 -16.154  0.00  0.00    -0.085 HD
ATOM     25  H   UNL     1      26.276 -22.244 -15.703  0.00  0.00    -0.085 HD
ENDBRANCH   1  19
BRANCH   5  27
ATOM     26  N   UNL     1      36.230 -21.514 -19.001  0.00  0.00    -0.242 NA
ATOM     27  C   UNL     1      34.299 -22.484 -17.236  0.00  0.00    +0.022 C 
ATOM     28  C   UNL     1      35.577 -22.200 -16.777  0.00  0.00    +0.022 C 
ATOM     29  C   UNL     1      33.979 -22.287 -18.573  0.00  0.00    +0.022 C 
ATOM     30  C   UNL     1      36.500 -21.720 -17.692  0.00  0.00    +0.099 C 
ATOM     31  C   UNL     1      34.973 -21.804 -19.408  0.00  0.00    +0.099 C 
ENDBRANCH   5  27
TORSDOF 5
ENDMDL
MODEL 4
REMARK VINA RESULT:      -9.6      3.028      7.280
REMARK  Name = 11653652
REMARK  5 active torsions:
REMARK  status: ('A' for Active; 'I' for Inactive)
REMARK    1  A    between atoms: N_1  and  C_19
REMARK    2  A    between atoms: C_4  and  C_7
REMARK    3  A    between atoms: C_5  and  C_27
REMARK    4  A    between atoms: N_6  and  C_13
REMARK    5  A    between atoms: N_6  and  O_16
REMARK                            x       y       z     vdW  Elec       q    Type
REMARK                         _______ _______ _______ _____ _____    ______ ____
ROOT
ATOM      1  N   UNL     1      35.191 -24.380 -14.517  0.00  0.00    -0.212 N 
ATOM      2  N   UNL     1      35.455 -23.735 -15.666  0.00  0.00    -0.178 NA
ATOM      3  C   UNL     1      33.882 -24.320 -14.138  0.00  0.00    +0.085 C 
ATOM      4  C   UNL     1      33.250 -23.585 -15.107  0.00  0.00    +0.032 C 
ATOM      5  C   UNL     1      34.262 -23.250 -16.022  0.00  0.00    +0.100 C 
ENDROOT
BRANCH   4   6
ATOM      6  C   UNL     1      31.845 -23.287 -15.082  0.00  0.00    -0.015 C 
ATOM      7  C   UNL     1      29.679 -23.400 -16.095  0.00  0.00    -0.016 C 
ATOM      8  C   UNL     1      28.638 -23.743 -17.114  0.00  0.00    -0.002 C 
ATOM      9  C   UNL     1      29.164 -22.704 -15.007  0.00  0.00    +0.016 C 
ATOM     10  C   UNL     1      27.337 -23.163 -16.532  0.00  0.00    +0.021 C 
ATOM     11  C   UNL     1      31.031 -23.700 -16.141  0.00  0.00    +0.053 C 
ATOM     12  C   UNL     1      27.743 -22.534 -15.225  0.00  0.00    +0.107 C 
ATOM     13  C   UNL     1      31.304 -22.584 -13.991  0.00  0.00    -0.004 C 
ATOM     14  C   UNL     1      29.943 -22.283 -13.945  0.00  0.00    +0.001 C 
BRANCH  12  15
ATOM     15  N   UNL     1      26.905 -21.940 -14.448  0.00  0.00    -0.135 NA
BRANCH  15  16
ATOM     16  O   UNL     1      25.621 -22.100 -14.978  0.00  0.00    -0.265 OA
ATOM     17  H   UNL     1      25.265 -21.446 -15.547  0.00  0.00    +0.247 HD
ENDBRANCH  15  16
ENDBRANCH  12  15
ENDBRANCH   4   6
BRANCH   1  19
ATOM     18  N   UNL     1      39.010 -26.055 -13.524  0.00  0.00    +0.384 N 
ATOM     19  C   UNL     1      36.275 -25.062 -13.801  0.00  0.00    +0.092 C 
ATOM     20  C   UNL     1      36.767 -26.323 -14.531  0.00  0.00    -0.002 C 
ATOM     21  C   UNL     1      37.454 -24.130 -13.483  0.00  0.00    -0.002 C 
ATOM     22  C   UNL     1      37.908 -26.987 -13.763  0.00  0.00    -0.080 C 
ATOM     23  C   UNL     1      38.568 -24.887 -12.758  0.00  0.00    -0.080 C 
ATOM     24  H   UNL     1      39.380 -25.741 -14.421  0.00  0.00    -0.085 HD
ATOM     25  H   UNL     1      39.727 -26.537 -12.983  0.00  0.00    -0.085 HD
ENDBRANCH   1  19
BRANCH   5  27
ATOM     26  N   UNL     1      33.865 -20.986 -19.574  0.00  0.00    -0.242 NA
ATOM     27  C   UNL     1      34.127 -22.479 -17.232  0.00  0.00    +0.022 C 
ATOM     28  C   UNL     1      32.865 -22.166 -17.716  0.00  0.00    +0.022 C 
ATOM     29  C   UNL     1      35.260 -22.050 -17.910  0.00  0.00    +0.022 C 
ATOM     30  C   UNL     1      32.788 -21.422 -18.883  0.00  0.00    +0.099 C 
ATOM     31  C   UNL     1      35.076 -21.312 -19.067  0.00  0.00    +0.099 C 
ENDBRANCH   5  27
TORSDOF 5
ENDMDL
MODEL 5
REMARK VINA RESULT:      -9.2      2.358      5.581
REMARK  Name = 11653652
REMARK  5 active torsions:
REMARK  status: ('A' for Active; 'I' for Inactive)
REMARK    1  A    between atoms: N_1  and  C_19
REMARK    2  A    between atoms: C_4  and  C_7
REMARK    3  A    between atoms: C_5  and  C_27
REMARK    4  A    between atoms: N_6  and  C_13
REMARK    5  A    between atoms: N_6  and  O_16
REMARK                            x       y       z     vdW  Elec       q    Type
REMARK                         _______ _______ _______ _____ _____    ______ ____
ROOT
ATOM      1  N   UNL     1      31.916 -23.201 -15.593  0.00  0.00    -0.212 N 
ATOM      2  N   UNL     1      32.303 -22.539 -16.697  0.00  0.00    -0.178 NA
ATOM      3  C   UNL     1      32.947 -23.759 -14.894  0.00  0.00    +0.085 C 
ATOM      4  C   UNL     1      34.083 -23.439 -15.592  0.00  0.00    +0.032 C 
ATOM      5  C   UNL     1      33.631 -22.689 -16.691  0.00  0.00    +0.100 C 
ENDROOT
BRANCH   4   6
ATOM      6  C   UNL     1      35.400 -23.842 -15.184  0.00  0.00    -0.015 C 
ATOM      7  C   UNL     1      36.922 -25.540 -14.458  0.00  0.00    -0.016 C 
ATOM      8  C   UNL     1      37.396 -26.903 -14.059  0.00  0.00    -0.002 C 
ATOM      9  C   UNL     1      37.927 -24.581 -14.410  0.00  0.00    +0.016 C 
ATOM     10  C   UNL     1      38.886 -26.702 -13.734  0.00  0.00    +0.021 C 
ATOM     11  C   UNL     1      35.643 -25.178 -14.849  0.00  0.00    +0.053 C 
ATOM     12  C   UNL     1      39.142 -25.238 -13.975  0.00  0.00    +0.107 C 
ATOM     13  C   UNL     1      36.431 -22.887 -15.128  0.00  0.00    -0.004 C 
ATOM     14  C   UNL     1      37.718 -23.254 -14.736  0.00  0.00    +0.001 C 
BRANCH  12  15
ATOM     15  N   UNL     1      40.297 -24.695 -13.802  0.00  0.00    -0.135 NA
BRANCH  15  16
ATOM     16  O   UNL     1      41.266 -25.702 -13.818  0.00  0.00    -0.265 OA
ATOM     17  H   UNL     1      41.490 -26.149 -13.026  0.00  0.00    +0.247 HD
ENDBRANCH  15  16
ENDBRANCH  12  15
ENDBRANCH   4   6
BRANCH   1  19
ATOM     18  N   UNL     1      27.710 -24.009 -15.737  0.00  0.00    +0.384 N 
ATOM     19  C   UNL     1      30.493 -23.265 -15.245  0.00  0.00    +0.092 C 
ATOM     20  C   UNL     1      29.604 -22.499 -16.238  0.00  0.00    -0.002 C 
ATOM     21  C   UNL     1      29.989 -24.707 -15.074  0.00  0.00    -0.002 C 
ATOM     22  C   UNL     1      28.130 -22.612 -15.851  0.00  0.00    -0.080 C 
ATOM     23  C   UNL     1      28.499 -24.728 -14.734  0.00  0.00    -0.080 C 
ATOM     24  H   UNL     1      27.829 -24.466 -16.642  0.00  0.00    -0.085 HD
ATOM     25  H   UNL     1      26.733 -24.027 -15.447  0.00  0.00    -0.085 HD
ENDBRANCH   1  19
BRANCH   5  27
ATOM     26  N   UNL     1      35.974 -20.981 -19.772  0.00  0.00    -0.242 NA
ATOM     27  C   UNL     1      34.429 -22.107 -17.740  0.00  0.00    +0.022 C 
ATOM     28  C   UNL     1      33.819 -21.638 -18.894  0.00  0.00    +0.022 C 
ATOM     29  C   UNL     1      35.806 -22.017 -17.594  0.00  0.00    +0.022 C 
ATOM     30  C   UNL     1      34.629 -21.087 -19.874  0.00  0.00    +0.099 C 
ATOM     31  C   UNL     1      36.528 -21.450 -18.631  0.00  0.00    +0.099 C 
ENDBRANCH   5  27
TORSDOF 5
ENDMDL
MODEL 6
REMARK VINA RESULT:      -8.8      8.971     13.158
REMARK  Name = 11653652
REMARK  5 active torsions:
REMARK  status: ('A' for Active; 'I' for Inactive)
REMARK    1  A    between atoms: N_1  and  C_19
REMARK    2  A    between atoms: C_4  and  C_7
REMARK    3  A    between atoms: C_5  and  C_27
REMARK    4  A    between atoms: N_6  and  C_13
REMARK    5  A    between atoms: N_6  and  O_16
REMARK                            x       y       z     vdW  Elec       q    Type
REMARK                         _______ _______ _______ _____ _____    ______ ____
ROOT
ATOM      1  N   UNL     1      32.459 -10.893 -21.711  0.00  0.00    -0.212 N 
ATOM      2  N   UNL     1      32.616 -10.967 -23.044  0.00  0.00    -0.178 NA
ATOM      3  C   UNL     1      32.943 -11.976 -21.037  0.00  0.00    +0.085 C 
ATOM      4  C   UNL     1      33.450 -12.813 -21.997  0.00  0.00    +0.032 C 
ATOM      5  C   UNL     1      33.224 -12.145 -23.212  0.00  0.00    +0.100 C 
ENDROOT
BRANCH   4   6
ATOM      6  C   UNL     1      34.061 -14.079 -21.700  0.00  0.00    -0.015 C 
ATOM      7  C   UNL     1      34.915 -16.194 -22.423  0.00  0.00    -0.016 C 
ATOM      8  C   UNL     1      35.282 -17.295 -23.369  0.00  0.00    -0.002 C 
ATOM      9  C   UNL     1      35.229 -16.489 -21.101  0.00  0.00    +0.016 C 
ATOM     10  C   UNL     1      35.893 -18.379 -22.465  0.00  0.00    +0.021 C 
ATOM     11  C   UNL     1      34.327 -14.979 -22.736  0.00  0.00    +0.053 C 
ATOM     12  C   UNL     1      35.826 -17.807 -21.073  0.00  0.00    +0.107 C 
ATOM     13  C   UNL     1      34.386 -14.397 -20.369  0.00  0.00    -0.004 C 
ATOM     14  C   UNL     1      34.979 -15.619 -20.056  0.00  0.00    +0.001 C 
BRANCH  12  15
ATOM     15  N   UNL     1      36.253 -18.444 -20.038  0.00  0.00    -0.135 NA
BRANCH  15  16
ATOM     16  O   UNL     1      37.501 -18.995 -20.341  0.00  0.00    -0.265 OA
ATOM     17  H   UNL     1      38.149 -19.082 -19.670  0.00  0.00    +0.247 HD
ENDBRANCH  15  16
ENDBRANCH  12  15
ENDBRANCH   4   6
BRANCH   1  19
ATOM     18  N   UNL     1      31.816  -7.011 -20.012  0.00  0.00    +0.384 N 
ATOM     19  C   UNL     1      31.815  -9.716 -21.120  0.00  0.00    +0.092 C 
ATOM     20  C   UNL     1      32.321  -9.413 -19.700  0.00  0.00    -0.002 C 
ATOM     21  C   UNL     1      31.928  -8.468 -22.009  0.00  0.00    -0.002 C 
ATOM     22  C   UNL     1      31.641  -8.168 -19.133  0.00  0.00    -0.080 C 
ATOM     23  C   UNL     1      31.264  -7.262 -21.345  0.00  0.00    -0.080 C 
ATOM     24  H   UNL     1      32.813  -6.809 -20.100  0.00  0.00    -0.085 HD
ATOM     25  H   UNL     1      31.320  -6.220 -19.604  0.00  0.00    -0.085 HD
ENDBRANCH   1  19
BRANCH   5  27
ATOM     26  N   UNL     1      34.241 -13.471 -27.099  0.00  0.00    -0.242 NA
ATOM     27  C   UNL     1      33.570 -12.597 -24.536  0.00  0.00    +0.022 C 
ATOM     28  C   UNL     1      34.244 -11.748 -25.403  0.00  0.00    +0.022 C 
ATOM     29  C   UNL     1      33.229 -13.880 -24.942  0.00  0.00    +0.022 C 
ATOM     30  C   UNL     1      34.554 -12.229 -26.665  0.00  0.00    +0.099 C 
ATOM     31  C   UNL     1      33.584 -14.265 -26.224  0.00  0.00    +0.099 C 
ENDBRANCH   5  27
TORSDOF 5
ENDMDL
MODEL 7
REMARK VINA RESULT:      -8.6     12.287     16.250
REMARK  Name = 11653652
REMARK  5 active torsions:
REMARK  status: ('A' for Active; 'I' for Inactive)
REMARK    1  A    between atoms: N_1  and  C_19
REMARK    2  A    between atoms: C_4  and  C_7
REMARK    3  A    between atoms: C_5  and  C_27
REMARK    4  A    between atoms: N_6  and  C_13
REMARK    5  A    between atoms: N_6  and  O_16
REMARK                            x       y       z     vdW  Elec       q    Type
REMARK                         _______ _______ _______ _____ _____    ______ ____
ROOT
ATOM      1  N   UNL     1      33.570  -6.997 -23.571  0.00  0.00    -0.212 N 
ATOM      2  N   UNL     1      32.947  -7.208 -22.400  0.00  0.00    -0.178 NA
ATOM      3  C   UNL     1      33.890  -8.143 -24.240  0.00  0.00    +0.085 C 
ATOM      4  C   UNL     1      33.445  -9.170 -23.449  0.00  0.00    +0.032 C 
ATOM      5  C   UNL     1      32.874  -8.540 -22.330  0.00  0.00    +0.100 C 
ENDROOT
BRANCH   4   6
ATOM      6  C   UNL     1      33.589 -10.556 -23.798  0.00  0.00    -0.015 C 
ATOM      7  C   UNL     1      34.106 -12.810 -23.183  0.00  0.00    -0.016 C 
ATOM      8  C   UNL     1      34.505 -13.954 -22.304  0.00  0.00    -0.002 C 
ATOM      9  C   UNL     1      33.856 -13.197 -24.495  0.00  0.00    +0.016 C 
ATOM     10  C   UNL     1      34.481 -15.174 -23.240  0.00  0.00    +0.021 C 
ATOM     11  C   UNL     1      33.973 -11.480 -22.821  0.00  0.00    +0.053 C 
ATOM     12  C   UNL     1      34.070 -14.626 -24.581  0.00  0.00    +0.107 C 
ATOM     13  C   UNL     1      33.341 -10.968 -25.119  0.00  0.00    -0.004 C 
ATOM     14  C   UNL     1      33.474 -12.308 -25.482  0.00  0.00    +0.001 C 
BRANCH  12  15
ATOM     15  N   UNL     1      33.943 -15.368 -25.627  0.00  0.00    -0.135 NA
BRANCH  15  16
ATOM     16  O   UNL     1      33.126 -16.453 -25.303  0.00  0.00    -0.265 OA
ATOM     17  H   UNL     1      32.255 -16.307 -24.989  0.00  0.00    +0.247 HD
ENDBRANCH  15  16
ENDBRANCH  12  15
ENDBRANCH   4   6
BRANCH   1  19
ATOM     18  N   UNL     1      33.636  -3.393 -25.890  0.00  0.00    +0.384 N 
ATOM     19  C   UNL     1      33.840  -5.626 -24.015  0.00  0.00    +0.092 C 
ATOM     20  C   UNL     1      34.656  -5.572 -25.316  0.00  0.00    -0.002 C 
ATOM     21  C   UNL     1      32.562  -4.782 -24.146  0.00  0.00    -0.002 C 
ATOM     22  C   UNL     1      34.894  -4.128 -25.753  0.00  0.00    -0.080 C 
ATOM     23  C   UNL     1      32.888  -3.370 -24.631  0.00  0.00    -0.080 C 
ATOM     24  H   UNL     1      33.065  -3.844 -26.605  0.00  0.00    -0.085 HD
ATOM     25  H   UNL     1      33.853  -2.432 -26.150  0.00  0.00    -0.085 HD
ENDBRANCH   1  19
BRANCH   5  27
ATOM     26  N   UNL     1      31.062 -10.396 -18.987  0.00  0.00    -0.242 NA
ATOM     27  C   UNL     1      32.257  -9.172 -21.192  0.00  0.00    +0.022 C 
ATOM     28  C   UNL     1      32.699  -8.875 -19.911  0.00  0.00    +0.022 C 
ATOM     29  C   UNL     1      31.221 -10.077 -21.379  0.00  0.00    +0.022 C 
ATOM     30  C   UNL     1      32.074  -9.509 -18.849  0.00  0.00    +0.099 C 
ATOM     31  C   UNL     1      30.661 -10.657 -20.252  0.00  0.00    +0.099 C 
ENDBRANCH   5  27
TORSDOF 5
ENDMDL
MODEL 8
REMARK VINA RESULT:      -8.5      2.935      7.513
REMARK  Name = 11653652
REMARK  5 active torsions:
REMARK  status: ('A' for Active; 'I' for Inactive)
REMARK    1  A    between atoms: N_1  and  C_19
REMARK    2  A    between atoms: C_4  and  C_7
REMARK    3  A    between atoms: C_5  and  C_27
REMARK    4  A    between atoms: N_6  and  C_13
REMARK    5  A    between atoms: N_6  and  O_16
REMARK                            x       y       z     vdW  Elec       q    Type
REMARK                         _______ _______ _______ _____ _____    ______ ____
ROOT
ATOM      1  N   UNL     1      36.137 -23.724 -14.442  0.00  0.00    -0.212 N 
ATOM      2  N   UNL     1      36.499 -23.153 -15.603  0.00  0.00    -0.178 NA
ATOM      3  C   UNL     1      34.787 -23.821 -14.272  0.00  0.00    +0.085 C 
ATOM      4  C   UNL     1      34.231 -23.275 -15.400  0.00  0.00    +0.032 C 
ATOM      5  C   UNL     1      35.327 -22.880 -16.185  0.00  0.00    +0.100 C 
ENDROOT
BRANCH   4   6
ATOM      6  C   UNL     1      32.814 -23.184 -15.618  0.00  0.00    -0.015 C 
ATOM      7  C   UNL     1      30.577 -23.784 -15.018  0.00  0.00    -0.016 C 
ATOM      8  C   UNL     1      29.473 -24.448 -14.255  0.00  0.00    -0.002 C 
ATOM      9  C   UNL     1      30.112 -22.989 -16.060  0.00  0.00    +0.016 C 
ATOM     10  C   UNL     1      28.190 -23.970 -14.956  0.00  0.00    +0.021 C 
ATOM     11  C   UNL     1      31.938 -23.888 -14.785  0.00  0.00    +0.053 C 
ATOM     12  C   UNL     1      28.667 -23.069 -16.065  0.00  0.00    +0.107 C 
ATOM     13  C   UNL     1      32.324 -22.386 -16.667  0.00  0.00    -0.004 C 
ATOM     14  C   UNL     1      30.953 -22.282 -16.899  0.00  0.00    +0.001 C 
BRANCH  12  15
ATOM     15  N   UNL     1      27.860 -22.477 -16.877  0.00  0.00    -0.135 NA
BRANCH  15  16
ATOM     16  O   UNL     1      27.152 -23.452 -17.585  0.00  0.00    -0.265 OA
ATOM     17  H   UNL     1      27.444 -24.342 -17.575  0.00  0.00    +0.247 HD
ENDBRANCH  15  16
ENDBRANCH  12  15
ENDBRANCH   4   6
BRANCH   1  19
ATOM     18  N   UNL     1      38.129 -24.987 -10.864  0.00  0.00    +0.384 N 
ATOM     19  C   UNL     1      37.168 -24.175 -13.501  0.00  0.00    +0.092 C 
ATOM     20  C   UNL     1      37.431 -23.160 -12.377  0.00  0.00    -0.002 C 
ATOM     21  C   UNL     1      36.868 -25.562 -12.914  0.00  0.00    -0.002 C 
ATOM     22  C   UNL     1      38.493 -23.680 -11.410  0.00  0.00    -0.080 C 
ATOM     23  C   UNL     1      37.955 -25.982 -11.924  0.00  0.00    -0.080 C 
ATOM     24  H   UNL     1      37.254 -24.899 -10.347  0.00  0.00    -0.085 HD
ATOM     25  H   UNL     1      38.882 -25.300 -10.253  0.00  0.00    -0.085 HD
ENDBRANCH   1  19
BRANCH   5  27
ATOM     26  N   UNL     1      35.226 -21.023 -19.985  0.00  0.00    -0.242 NA
ATOM     27  C   UNL     1      35.293 -22.248 -17.480  0.00  0.00    +0.022 C 
ATOM     28  C   UNL     1      36.380 -21.505 -17.917  0.00  0.00    +0.022 C 
ATOM     29  C   UNL     1      34.171 -22.383 -18.287  0.00  0.00    +0.022 C 
ATOM     30  C   UNL     1      36.298 -20.916 -19.168  0.00  0.00    +0.099 C 
ATOM     31  C   UNL     1      34.188 -21.756 -19.522  0.00  0.00    +0.099 C 
ENDBRANCH   5  27
TORSDOF 5
ENDMDL
