MODEL 1
REMARK VINA RESULT:     -10.9      0.000      0.000
REMARK  Name = 44144378
REMARK  5 active torsions:
REMARK  status: ('A' for Active; 'I' for Inactive)
REMARK    1  A    between atoms: C_1  and  C_3
REMARK    2  A    between atoms: C_1  and  C_18
REMARK    3  A    between atoms: C_4  and  C_9
REMARK    4  A    between atoms: C_8  and  O_16
REMARK    5  A    between atoms: C_19  and  C_24
REMARK                            x       y       z     vdW  Elec       q    Type
REMARK                         _______ _______ _______ _____ _____    ______ ____
ROOT
ATOM      1  C   UNL     1      33.677 -11.073 -24.103  0.00  0.00    +0.086 C 
ATOM      2  C   UNL     1      34.948 -10.392 -24.648  0.00  0.00    +0.019 C 
ENDROOT
BRANCH   1   3
ATOM      3  C   UNL     1      32.999 -10.263 -23.051  0.00  0.00    -0.007 C 
ATOM      4  C   UNL     1      32.270  -8.120 -22.205  0.00  0.00    +0.003 C 
ATOM      5  C   UNL     1      32.906  -8.878 -23.189  0.00  0.00    -0.003 C 
ATOM      6  C   UNL     1      32.456 -10.890 -21.930  0.00  0.00    +0.034 C 
ATOM      7  C   UNL     1      31.728  -8.748 -21.083  0.00  0.00    +0.037 C 
ATOM      8  C   UNL     1      31.821 -10.132 -20.945  0.00  0.00    +0.138 C 
BRANCH   4   9
ATOM      9  C   UNL     1      32.173  -6.683 -22.348  0.00  0.00    +0.000 C 
ATOM     10  C   UNL     1      31.316  -5.956 -21.522  0.00  0.00    -0.000 C 
ATOM     11  C   UNL     1      32.937  -6.025 -23.312  0.00  0.00    -0.000 C 
ATOM     12  C   UNL     1      31.986  -3.913 -22.624  0.00  0.00    -0.022 C 
ATOM     13  C   UNL     1      31.222  -4.571 -21.659  0.00  0.00    -0.004 C 
ATOM     14  C   UNL     1      32.844  -4.641 -23.450  0.00  0.00    -0.004 C 
ATOM     15  C   UNL     1      31.886  -2.433 -22.771  0.00  0.00    +0.031 C 
ENDBRANCH   4   9
BRANCH   8  16
ATOM     16  O   UNL     1      31.292 -10.745 -19.851  0.00  0.00    -0.471 OA
ATOM     17  C   UNL     1      31.869 -10.423 -18.585  0.00  0.00    +0.252 C 
ENDBRANCH   8  16
ENDBRANCH   1   3
BRANCH   1  18
ATOM     18  C   UNL     1      34.007 -12.444 -23.636  0.00  0.00    -0.087 C 
ATOM     19  C   UNL     1      34.288 -13.555 -23.277  0.00  0.00    -0.076 C 
BRANCH  19  24
ATOM     20  N   UNL     1      35.154 -16.416 -21.078  0.00  0.00    -0.336 NA
ATOM     21  N   UNL     1      35.087 -17.185 -23.362  0.00  0.00    -0.317 NA
ATOM     22  N   UNL     1      34.572 -15.689 -25.118  0.00  0.00    -0.334 N 
ATOM     23  N   UNL     1      35.598 -18.659 -21.608  0.00  0.00    -0.283 N 
ATOM     24  C   UNL     1      34.626 -14.878 -22.853  0.00  0.00    +0.179 C 
ATOM     25  C   UNL     1      34.832 -15.184 -21.524  0.00  0.00    +0.120 C 
ATOM     26  C   UNL     1      34.769 -15.929 -23.736  0.00  0.00    +0.186 C 
ATOM     27  C   UNL     1      34.709 -14.136 -20.464  0.00  0.00    +0.064 C 
ATOM     28  C   UNL     1      35.264 -17.356 -22.037  0.00  0.00    +0.196 C 
ATOM     29  H   UNL     1      34.669 -16.426 -25.765  0.00  0.00    +0.144 HD
ATOM     30  H   UNL     1      34.338 -14.787 -25.434  0.00  0.00    +0.144 HD
ATOM     31  H   UNL     1      35.739 -18.841 -20.651  0.00  0.00    +0.156 HD
ATOM     32  H   UNL     1      35.691 -19.385 -22.267  0.00  0.00    +0.156 HD
ENDBRANCH  19  24
ENDBRANCH   1  18
TORSDOF 5
ENDMDL
MODEL 2
REMARK VINA RESULT:     -10.7      4.397      8.012
REMARK  Name = 44144378
REMARK  5 active torsions:
REMARK  status: ('A' for Active; 'I' for Inactive)
REMARK    1  A    between atoms: C_1  and  C_3
REMARK    2  A    between atoms: C_1  and  C_18
REMARK    3  A    between atoms: C_4  and  C_9
REMARK    4  A    between atoms: C_8  and  O_16
REMARK    5  A    between atoms: C_19  and  C_24
REMARK                            x       y       z     vdW  Elec       q    Type
REMARK                         _______ _______ _______ _____ _____    ______ ____
ROOT
ATOM      1  C   UNL     1      36.031 -18.574 -22.410  0.00  0.00    +0.086 C 
ATOM      2  C   UNL     1      37.074 -17.639 -21.767  0.00  0.00    +0.019 C 
ENDROOT
BRANCH   1   3
ATOM      3  C   UNL     1      35.014 -17.833 -23.210  0.00  0.00    -0.007 C 
ATOM      4  C   UNL     1      34.022 -15.747 -23.919  0.00  0.00    +0.003 C 
ATOM      5  C   UNL     1      34.974 -16.440 -23.170  0.00  0.00    -0.003 C 
ATOM      6  C   UNL     1      34.104 -18.534 -24.001  0.00  0.00    +0.034 C 
ATOM      7  C   UNL     1      33.111 -16.448 -24.709  0.00  0.00    +0.037 C 
ATOM      8  C   UNL     1      33.151 -17.842 -24.750  0.00  0.00    +0.138 C 
BRANCH   4   9
ATOM      9  C   UNL     1      33.981 -14.300 -23.877  0.00  0.00    +0.000 C 
ATOM     10  C   UNL     1      33.590 -13.581 -25.006  0.00  0.00    -0.000 C 
ATOM     11  C   UNL     1      34.331 -13.627 -22.706  0.00  0.00    -0.000 C 
ATOM     12  C   UNL     1      33.901 -11.513 -23.795  0.00  0.00    -0.022 C 
ATOM     13  C   UNL     1      33.550 -12.187 -24.965  0.00  0.00    -0.004 C 
ATOM     14  C   UNL     1      34.291 -12.233 -22.666  0.00  0.00    -0.004 C 
ATOM     15  C   UNL     1      33.858 -10.023 -23.752  0.00  0.00    +0.031 C 
ENDBRANCH   4   9
BRANCH   8  16
ATOM     16  O   UNL     1      32.263 -18.526 -25.520  0.00  0.00    -0.471 OA
ATOM     17  C   UNL     1      32.036 -19.896 -25.189  0.00  0.00    +0.252 C 
ENDBRANCH   8  16
ENDBRANCH   1   3
BRANCH   1  18
ATOM     18  C   UNL     1      35.415 -19.429 -21.364  0.00  0.00    -0.087 C 
ATOM     19  C   UNL     1      34.937 -20.129 -20.512  0.00  0.00    -0.076 C 
BRANCH  19  24
ATOM     20  N   UNL     1      34.679 -22.468 -17.643  0.00  0.00    -0.336 NA
ATOM     21  N   UNL     1      32.456 -21.890 -18.376  0.00  0.00    -0.317 NA
ATOM     22  N   UNL     1      32.137 -20.413 -20.194  0.00  0.00    -0.334 N 
ATOM     23  N   UNL     1      32.788 -23.355 -16.573  0.00  0.00    -0.283 N 
ATOM     24  C   UNL     1      34.374 -20.962 -19.496  0.00  0.00    +0.179 C 
ATOM     25  C   UNL     1      35.166 -21.671 -18.616  0.00  0.00    +0.120 C 
ATOM     26  C   UNL     1      33.013 -21.112 -19.327  0.00  0.00    +0.186 C 
ATOM     27  C   UNL     1      36.658 -21.596 -18.691  0.00  0.00    +0.064 C 
ATOM     28  C   UNL     1      33.335 -22.531 -17.581  0.00  0.00    +0.196 C 
ATOM     29  H   UNL     1      31.162 -20.507 -20.090  0.00  0.00    +0.144 HD
ATOM     30  H   UNL     1      32.502 -19.834 -20.901  0.00  0.00    +0.144 HD
ATOM     31  H   UNL     1      33.384 -23.848 -15.963  0.00  0.00    +0.156 HD
ATOM     32  H   UNL     1      31.811 -23.439 -16.482  0.00  0.00    +0.156 HD
ENDBRANCH  19  24
ENDBRANCH   1  18
TORSDOF 5
ENDMDL
MODEL 3
REMARK VINA RESULT:     -10.6      4.671      9.707
REMARK  Name = 44144378
REMARK  5 active torsions:
REMARK  status: ('A' for Active; 'I' for Inactive)
REMARK    1  A    between atoms: C_1  and  C_3
REMARK    2  A    between atoms: C_1  and  C_18
REMARK    3  A    between atoms: C_4  and  C_9
REMARK    4  A    between atoms: C_8  and  O_16
REMARK    5  A    between atoms: C_19  and  C_24
REMARK                            x       y       z     vdW  Elec       q    Type
REMARK                         _______ _______ _______ _____ _____    ______ ____
ROOT
ATOM      1  C   UNL     1      31.766 -11.226 -20.972  0.00  0.00    +0.086 C 
ATOM      2  C   UNL     1      31.995 -11.604 -19.495  0.00  0.00    +0.019 C 
ENDROOT
BRANCH   1   3
ATOM      3  C   UNL     1      32.703 -11.929 -21.895  0.00  0.00    -0.007 C 
ATOM      4  C   UNL     1      34.095 -13.835 -22.412  0.00  0.00    +0.003 C 
ATOM      5  C   UNL     1      33.219 -13.177 -21.548  0.00  0.00    -0.003 C 
ATOM      6  C   UNL     1      33.061 -11.338 -23.106  0.00  0.00    +0.034 C 
ATOM      7  C   UNL     1      34.454 -13.243 -23.624  0.00  0.00    +0.037 C 
ATOM      8  C   UNL     1      33.937 -11.995 -23.971  0.00  0.00    +0.138 C 
BRANCH   4   9
ATOM      9  C   UNL     1      34.631 -15.130 -22.052  0.00  0.00    +0.000 C 
ATOM     10  C   UNL     1      35.001 -16.033 -23.049  0.00  0.00    -0.000 C 
ATOM     11  C   UNL     1      34.777 -15.475 -20.708  0.00  0.00    -0.000 C 
ATOM     12  C   UNL     1      35.663 -17.627 -21.358  0.00  0.00    -0.022 C 
ATOM     13  C   UNL     1      35.517 -17.282 -22.702  0.00  0.00    -0.004 C 
ATOM     14  C   UNL     1      35.293 -16.723 -20.362  0.00  0.00    -0.004 C 
ATOM     15  C   UNL     1      36.215 -18.962 -20.987  0.00  0.00    +0.031 C 
ENDBRANCH   4   9
BRANCH   8  16
ATOM     16  O   UNL     1      34.287 -11.418 -25.153  0.00  0.00    -0.471 OA
ATOM     17  C   UNL     1      35.144 -10.278 -25.089  0.00  0.00    +0.252 C 
ENDBRANCH   8  16
ENDBRANCH   1   3
BRANCH   1  18
ATOM     18  C   UNL     1      31.823  -9.750 -21.124  0.00  0.00    -0.087 C 
ATOM     19  C   UNL     1      31.853  -8.553 -21.231  0.00  0.00    -0.076 C 
BRANCH  19  24
ATOM     20  N   UNL     1      31.165  -5.125 -22.474  0.00  0.00    -0.336 NA
ATOM     21  N   UNL     1      32.685  -4.984 -20.609  0.00  0.00    -0.317 NA
ATOM     22  N   UNL     1      33.405  -6.941 -19.494  0.00  0.00    -0.334 N 
ATOM     23  N   UNL     1      31.963  -3.050 -21.724  0.00  0.00    -0.283 N 
ATOM     24  C   UNL     1      31.886  -7.129 -21.352  0.00  0.00    +0.179 C 
ATOM     25  C   UNL     1      31.163  -6.466 -22.322  0.00  0.00    +0.120 C 
ATOM     26  C   UNL     1      32.637  -6.329 -20.515  0.00  0.00    +0.186 C 
ATOM     27  C   UNL     1      30.309  -7.216 -23.294  0.00  0.00    +0.064 C 
ATOM     28  C   UNL     1      31.937  -4.456 -21.597  0.00  0.00    +0.196 C 
ATOM     29  H   UNL     1      33.947  -6.387 -18.887  0.00  0.00    +0.144 HD
ATOM     30  H   UNL     1      33.398  -7.920 -19.391  0.00  0.00    +0.144 HD
ATOM     31  H   UNL     1      31.434  -2.610 -22.429  0.00  0.00    +0.156 HD
ATOM     32  H   UNL     1      32.510  -2.510 -21.109  0.00  0.00    +0.156 HD
ENDBRANCH  19  24
ENDBRANCH   1  18
TORSDOF 5
ENDMDL
MODEL 4
REMARK VINA RESULT:     -10.6     10.280     15.217
REMARK  Name = 44144378
REMARK  5 active torsions:
REMARK  status: ('A' for Active; 'I' for Inactive)
REMARK    1  A    between atoms: C_1  and  C_3
REMARK    2  A    between atoms: C_1  and  C_18
REMARK    3  A    between atoms: C_4  and  C_9
REMARK    4  A    between atoms: C_8  and  O_16
REMARK    5  A    between atoms: C_19  and  C_24
REMARK                            x       y       z     vdW  Elec       q    Type
REMARK                         _______ _______ _______ _____ _____    ______ ____
ROOT
ATOM      1  C   UNL     1      32.089 -23.201 -16.852  0.00  0.00    +0.086 C 
ATOM      2  C   UNL     1      30.677 -22.598 -16.715  0.00  0.00    +0.019 C 
ENDROOT
BRANCH   1   3
ATOM      3  C   UNL     1      32.752 -23.413 -15.533  0.00  0.00    -0.007 C 
ATOM      4  C   UNL     1      34.720 -23.962 -14.244  0.00  0.00    +0.003 C 
ATOM      5  C   UNL     1      34.100 -23.766 -15.479  0.00  0.00    -0.003 C 
ATOM      6  C   UNL     1      32.024 -23.255 -14.354  0.00  0.00    +0.034 C 
ATOM      7  C   UNL     1      33.992 -23.805 -13.065  0.00  0.00    +0.037 C 
ATOM      8  C   UNL     1      32.643 -23.452 -13.120  0.00  0.00    +0.138 C 
BRANCH   4   9
ATOM      9  C   UNL     1      36.120 -24.328 -14.187  0.00  0.00    +0.000 C 
ATOM     10  C   UNL     1      37.068 -23.566 -14.869  0.00  0.00    -0.000 C 
ATOM     11  C   UNL     1      36.518 -25.444 -13.450  0.00  0.00    -0.000 C 
ATOM     12  C   UNL     1      38.816 -25.035 -14.077  0.00  0.00    -0.022 C 
ATOM     13  C   UNL     1      38.416 -23.919 -14.814  0.00  0.00    -0.004 C 
ATOM     14  C   UNL     1      37.867 -25.796 -13.396  0.00  0.00    -0.004 C 
ATOM     15  C   UNL     1      40.257 -25.412 -14.019  0.00  0.00    +0.031 C 
ENDBRANCH   4   9
BRANCH   8  16
ATOM     16  O   UNL     1      31.932 -23.299 -11.969  0.00  0.00    -0.471 OA
ATOM     17  C   UNL     1      30.566 -23.711 -11.991  0.00  0.00    +0.252 C 
ENDBRANCH   8  16
ENDBRANCH   1   3
BRANCH   1  18
ATOM     18  C   UNL     1      32.904 -22.361 -17.766  0.00  0.00    -0.087 C 
ATOM     19  C   UNL     1      33.552 -21.662 -18.499  0.00  0.00    -0.076 C 
BRANCH  19  24
ATOM     20  N   UNL     1      36.458 -19.948 -20.043  0.00  0.00    -0.336 NA
ATOM     21  N   UNL     1      34.455 -19.277 -21.203  0.00  0.00    -0.317 NA
ATOM     22  N   UNL     1      32.347 -20.128 -20.553  0.00  0.00    -0.334 N 
ATOM     23  N   UNL     1      36.552 -18.439 -21.838  0.00  0.00    -0.283 N 
ATOM     24  C   UNL     1      34.322 -20.827 -19.366  0.00  0.00    +0.179 C 
ATOM     25  C   UNL     1      35.692 -20.723 -19.248  0.00  0.00    +0.120 C 
ATOM     26  C   UNL     1      33.751 -20.072 -20.372  0.00  0.00    +0.186 C 
ATOM     27  C   UNL     1      36.434 -21.489 -18.199  0.00  0.00    +0.064 C 
ATOM     28  C   UNL     1      35.784 -19.262 -20.986  0.00  0.00    +0.196 C 
ATOM     29  H   UNL     1      31.921 -19.598 -21.265  0.00  0.00    +0.144 HD
ATOM     30  H   UNL     1      31.796 -20.697 -19.968  0.00  0.00    +0.144 HD
ATOM     31  H   UNL     1      37.529 -18.390 -21.724  0.00  0.00    +0.156 HD
ATOM     32  H   UNL     1      36.112 -17.915 -22.545  0.00  0.00    +0.156 HD
ENDBRANCH  19  24
ENDBRANCH   1  18
TORSDOF 5
ENDMDL
MODEL 5
REMARK VINA RESULT:     -10.4      8.906     12.977
REMARK  Name = 44144378
REMARK  5 active torsions:
REMARK  status: ('A' for Active; 'I' for Inactive)
REMARK    1  A    between atoms: C_1  and  C_3
REMARK    2  A    between atoms: C_1  and  C_18
REMARK    3  A    between atoms: C_4  and  C_9
REMARK    4  A    between atoms: C_8  and  O_16
REMARK    5  A    between atoms: C_19  and  C_24
REMARK                            x       y       z     vdW  Elec       q    Type
REMARK                         _______ _______ _______ _____ _____    ______ ____
ROOT
ATOM      1  C   UNL     1      37.036 -21.789 -17.311  0.00  0.00    +0.086 C 
ATOM      2  C   UNL     1      37.913 -20.544 -17.070  0.00  0.00    +0.019 C 
ENDROOT
BRANCH   1   3
ATOM      3  C   UNL     1      35.813 -21.482 -18.108  0.00  0.00    -0.007 C 
ATOM      4  C   UNL     1      34.731 -20.275 -19.900  0.00  0.00    +0.003 C 
ATOM      5  C   UNL     1      35.875 -20.561 -19.153  0.00  0.00    -0.003 C 
ATOM      6  C   UNL     1      34.609 -22.119 -17.810  0.00  0.00    +0.034 C 
ATOM      7  C   UNL     1      33.526 -20.911 -19.600  0.00  0.00    +0.037 C 
ATOM      8  C   UNL     1      33.465 -21.833 -18.555  0.00  0.00    +0.138 C 
BRANCH   4   9
ATOM      9  C   UNL     1      34.795 -19.318 -20.985  0.00  0.00    +0.000 C 
ATOM     10  C   UNL     1      34.245 -19.635 -22.227  0.00  0.00    -0.000 C 
ATOM     11  C   UNL     1      35.405 -18.080 -20.787  0.00  0.00    -0.000 C 
ATOM     12  C   UNL     1      34.917 -17.475 -23.075  0.00  0.00    -0.022 C 
ATOM     13  C   UNL     1      34.306 -18.714 -23.272  0.00  0.00    -0.004 C 
ATOM     14  C   UNL     1      35.466 -17.159 -21.832  0.00  0.00    -0.004 C 
ATOM     15  C   UNL     1      34.983 -16.490 -24.192  0.00  0.00    +0.031 C 
ENDBRANCH   4   9
BRANCH   8  16
ATOM     16  O   UNL     1      32.289 -22.453 -18.263  0.00  0.00    -0.471 OA
ATOM     17  C   UNL     1      32.057 -22.792 -16.896  0.00  0.00    +0.252 C 
ENDBRANCH   8  16
ENDBRANCH   1   3
BRANCH   1  18
ATOM     18  C   UNL     1      36.717 -22.434 -16.012  0.00  0.00    -0.087 C 
ATOM     19  C   UNL     1      36.472 -22.939 -14.950  0.00  0.00    -0.076 C 
BRANCH  19  24
ATOM     20  N   UNL     1      36.920 -24.759 -11.747  0.00  0.00    -0.336 NA
ATOM     21  N   UNL     1      34.620 -24.059 -11.927  0.00  0.00    -0.317 NA
ATOM     22  N   UNL     1      33.875 -22.857 -13.821  0.00  0.00    -0.334 N 
ATOM     23  N   UNL     1      35.374 -25.253 -10.052  0.00  0.00    -0.283 N 
ATOM     24  C   UNL     1      36.180 -23.536 -13.684  0.00  0.00    +0.179 C 
ATOM     25  C   UNL     1      37.149 -24.182 -12.945  0.00  0.00    +0.120 C 
ATOM     26  C   UNL     1      34.921 -23.505 -13.119  0.00  0.00    +0.186 C 
ATOM     27  C   UNL     1      38.556 -24.286 -13.444  0.00  0.00    +0.064 C 
ATOM     28  C   UNL     1      35.652 -24.662 -11.304  0.00  0.00    +0.196 C 
ATOM     29  H   UNL     1      32.969 -22.825 -13.435  0.00  0.00    +0.144 HD
ATOM     30  H   UNL     1      34.052 -22.439 -14.695  0.00  0.00    +0.144 HD
ATOM     31  H   UNL     1      36.091 -25.707  -9.553  0.00  0.00    +0.156 HD
ATOM     32  H   UNL     1      34.464 -25.212  -9.680  0.00  0.00    +0.156 HD
ENDBRANCH  19  24
ENDBRANCH   1  18
TORSDOF 5
ENDMDL
MODEL 6
REMARK VINA RESULT:     -10.2      9.866     13.821
REMARK  Name = 44144378
REMARK  5 active torsions:
REMARK  status: ('A' for Active; 'I' for Inactive)
REMARK    1  A    between atoms: C_1  and  C_3
REMARK    2  A    between atoms: C_1  and  C_18
REMARK    3  A    between atoms: C_4  and  C_9
REMARK    4  A    between atoms: C_8  and  O_16
REMARK    5  A    between atoms: C_19  and  C_24
REMARK                            x       y       z     vdW  Elec       q    Type
REMARK                         _______ _______ _______ _____ _____    ______ ____
ROOT
ATOM      1  C   UNL     1      37.319 -22.132 -16.371  0.00  0.00    +0.086 C 
ATOM      2  C   UNL     1      38.120 -20.825 -16.212  0.00  0.00    +0.019 C 
ENDROOT
BRANCH   1   3
ATOM      3  C   UNL     1      36.129 -21.971 -17.254  0.00  0.00    -0.007 C 
ATOM      4  C   UNL     1      35.063 -20.941 -19.163  0.00  0.00    +0.003 C 
ATOM      5  C   UNL     1      36.177 -21.091 -18.335  0.00  0.00    -0.003 C 
ATOM      6  C   UNL     1      34.968 -22.701 -17.000  0.00  0.00    +0.034 C 
ATOM      7  C   UNL     1      33.902 -21.671 -18.908  0.00  0.00    +0.037 C 
ATOM      8  C   UNL     1      33.854 -22.550 -17.827  0.00  0.00    +0.138 C 
BRANCH   4   9
ATOM      9  C   UNL     1      35.113 -20.028 -20.285  0.00  0.00    +0.000 C 
ATOM     10  C   UNL     1      36.267 -19.282 -20.527  0.00  0.00    -0.000 C 
ATOM     11  C   UNL     1      34.007 -19.895 -21.125  0.00  0.00    -0.000 C 
ATOM     12  C   UNL     1      35.209 -18.269 -22.448  0.00  0.00    -0.022 C 
ATOM     13  C   UNL     1      36.315 -18.402 -21.608  0.00  0.00    -0.004 C 
ATOM     14  C   UNL     1      34.056 -19.016 -22.206  0.00  0.00    -0.004 C 
ATOM     15  C   UNL     1      35.260 -17.328 -23.604  0.00  0.00    +0.031 C 
ENDBRANCH   4   9
BRANCH   8  16
ATOM     16  O   UNL     1      32.721 -23.262 -17.579  0.00  0.00    -0.471 OA
ATOM     17  C   UNL     1      32.130 -23.112 -16.288  0.00  0.00    +0.252 C 
ENDBRANCH   8  16
ENDBRANCH   1   3
BRANCH   1  18
ATOM     18  C   UNL     1      36.960 -22.663 -15.031  0.00  0.00    -0.087 C 
ATOM     19  C   UNL     1      36.673 -23.071 -13.938  0.00  0.00    -0.076 C 
BRANCH  19  24
ATOM     20  N   UNL     1      34.785 -24.696 -11.187  0.00  0.00    -0.336 NA
ATOM     21  N   UNL     1      36.848 -23.819 -10.300  0.00  0.00    -0.317 NA
ATOM     22  N   UNL     1      38.378 -22.692 -11.707  0.00  0.00    -0.334 N 
ATOM     23  N   UNL     1      35.321 -24.939  -8.915  0.00  0.00    -0.283 N 
ATOM     24  C   UNL     1      36.330 -23.552 -12.636  0.00  0.00    +0.179 C 
ATOM     25  C   UNL     1      35.150 -24.226 -12.397  0.00  0.00    +0.120 C 
ATOM     26  C   UNL     1      37.149 -23.375 -11.538  0.00  0.00    +0.186 C 
ATOM     27  C   UNL     1      34.175 -24.483 -13.501  0.00  0.00    +0.064 C 
ATOM     28  C   UNL     1      35.669 -24.460 -10.197  0.00  0.00    +0.196 C 
ATOM     29  H   UNL     1      38.976 -22.556 -10.937  0.00  0.00    +0.144 HD
ATOM     30  H   UNL     1      38.636 -22.352 -12.595  0.00  0.00    +0.144 HD
ATOM     31  H   UNL     1      34.470 -25.416  -8.782  0.00  0.00    +0.156 HD
ATOM     32  H   UNL     1      35.930 -24.795  -8.155  0.00  0.00    +0.156 HD
ENDBRANCH  19  24
ENDBRANCH   1  18
TORSDOF 5
ENDMDL
MODEL 7
REMARK VINA RESULT:     -10.2     10.538     14.676
REMARK  Name = 44144378
REMARK  5 active torsions:
REMARK  status: ('A' for Active; 'I' for Inactive)
REMARK    1  A    between atoms: C_1  and  C_3
REMARK    2  A    between atoms: C_1  and  C_18
REMARK    3  A    between atoms: C_4  and  C_9
REMARK    4  A    between atoms: C_8  and  O_16
REMARK    5  A    between atoms: C_19  and  C_24
REMARK                            x       y       z     vdW  Elec       q    Type
REMARK                         _______ _______ _______ _____ _____    ______ ____
ROOT
ATOM      1  C   UNL     1      37.194 -22.276 -15.599  0.00  0.00    +0.086 C 
ATOM      2  C   UNL     1      38.410 -23.164 -15.928  0.00  0.00    +0.019 C 
ENDROOT
BRANCH   1   3
ATOM      3  C   UNL     1      36.184 -22.977 -14.756  0.00  0.00    -0.007 C 
ATOM      4  C   UNL     1      33.878 -23.474 -14.230  0.00  0.00    +0.003 C 
ATOM      5  C   UNL     1      34.823 -22.816 -15.018  0.00  0.00    -0.003 C 
ATOM      6  C   UNL     1      36.600 -23.797 -13.707  0.00  0.00    +0.034 C 
ATOM      7  C   UNL     1      34.294 -24.293 -13.180  0.00  0.00    +0.037 C 
ATOM      8  C   UNL     1      35.655 -24.454 -12.918  0.00  0.00    +0.138 C 
BRANCH   4   9
ATOM      9  C   UNL     1      32.466 -23.307 -14.502  0.00  0.00    +0.000 C 
ATOM     10  C   UNL     1      32.023 -23.146 -15.814  0.00  0.00    -0.000 C 
ATOM     11  C   UNL     1      31.550 -23.307 -13.450  0.00  0.00    -0.000 C 
ATOM     12  C   UNL     1      29.745 -22.985 -15.025  0.00  0.00    -0.022 C 
ATOM     13  C   UNL     1      30.663 -22.985 -16.077  0.00  0.00    -0.004 C 
ATOM     14  C   UNL     1      30.189 -23.146 -13.713  0.00  0.00    -0.004 C 
ATOM     15  C   UNL     1      28.291 -22.813 -15.306  0.00  0.00    +0.031 C 
ENDBRANCH   4   9
BRANCH   8  16
ATOM     16  O   UNL     1      36.061 -25.253 -11.893  0.00  0.00    -0.471 OA
ATOM     17  C   UNL     1      37.215 -26.062 -12.119  0.00  0.00    +0.252 C 
ENDBRANCH   8  16
ENDBRANCH   1   3
BRANCH   1  18
ATOM     18  C   UNL     1      36.610 -21.743 -16.856  0.00  0.00    -0.087 C 
ATOM     19  C   UNL     1      36.136 -21.291 -17.864  0.00  0.00    -0.076 C 
BRANCH  19  24
ATOM     20  N   UNL     1      33.704 -20.521 -20.559  0.00  0.00    -0.336 NA
ATOM     21  N   UNL     1      35.785 -19.407 -21.050  0.00  0.00    -0.317 NA
ATOM     22  N   UNL     1      37.634 -19.619 -19.592  0.00  0.00    -0.334 N 
ATOM     23  N   UNL     1      33.942 -19.206 -22.488  0.00  0.00    -0.283 N 
ATOM     24  C   UNL     1      35.575 -20.748 -19.061  0.00  0.00    +0.179 C 
ATOM     25  C   UNL     1      34.274 -21.010 -19.438  0.00  0.00    +0.120 C 
ATOM     26  C   UNL     1      36.291 -19.932 -19.914  0.00  0.00    +0.186 C 
ATOM     27  C   UNL     1      33.391 -21.880 -18.602  0.00  0.00    +0.064 C 
ATOM     28  C   UNL     1      34.505 -19.738 -21.307  0.00  0.00    +0.196 C 
ATOM     29  H   UNL     1      38.161 -19.039 -20.187  0.00  0.00    +0.144 HD
ATOM     30  H   UNL     1      38.042 -19.981 -18.772  0.00  0.00    +0.144 HD
ATOM     31  H   UNL     1      33.009 -19.415 -22.726  0.00  0.00    +0.156 HD
ATOM     32  H   UNL     1      34.482 -18.627 -23.073  0.00  0.00    +0.156 HD
ENDBRANCH  19  24
ENDBRANCH   1  18
TORSDOF 5
ENDMDL
MODEL 8
REMARK VINA RESULT:     -10.0      4.563      9.353
REMARK  Name = 44144378
REMARK  5 active torsions:
REMARK  status: ('A' for Active; 'I' for Inactive)
REMARK    1  A    between atoms: C_1  and  C_3
REMARK    2  A    between atoms: C_1  and  C_18
REMARK    3  A    between atoms: C_4  and  C_9
REMARK    4  A    between atoms: C_8  and  O_16
REMARK    5  A    between atoms: C_19  and  C_24
REMARK                            x       y       z     vdW  Elec       q    Type
REMARK                         _______ _______ _______ _____ _____    ______ ____
ROOT
ATOM      1  C   UNL     1      34.610  -9.960 -23.647  0.00  0.00    +0.086 C 
ATOM      2  C   UNL     1      34.836 -10.324 -25.127  0.00  0.00    +0.019 C 
ENDROOT
BRANCH   1   3
ATOM      3  C   UNL     1      33.913 -11.040 -22.891  0.00  0.00    -0.007 C 
ATOM      4  C   UNL     1      33.790 -13.341 -22.164  0.00  0.00    +0.003 C 
ATOM      5  C   UNL     1      34.442 -12.331 -22.872  0.00  0.00    -0.003 C 
ATOM      6  C   UNL     1      32.734 -10.759 -22.202  0.00  0.00    +0.034 C 
ATOM      7  C   UNL     1      32.610 -13.060 -21.475  0.00  0.00    +0.037 C 
ATOM      8  C   UNL     1      32.081 -11.770 -21.494  0.00  0.00    +0.138 C 
BRANCH   4   9
ATOM      9  C   UNL     1      34.339 -14.681 -22.144  0.00  0.00    +0.000 C 
ATOM     10  C   UNL     1      34.726 -15.258 -20.935  0.00  0.00    -0.000 C 
ATOM     11  C   UNL     1      34.479 -15.394 -23.335  0.00  0.00    -0.000 C 
ATOM     12  C   UNL     1      35.395 -17.262 -22.106  0.00  0.00    -0.022 C 
ATOM     13  C   UNL     1      35.254 -16.548 -20.916  0.00  0.00    -0.004 C 
ATOM     14  C   UNL     1      35.007 -16.685 -23.315  0.00  0.00    -0.004 C 
ATOM     15  C   UNL     1      35.960 -18.642 -22.086  0.00  0.00    +0.031 C 
ENDBRANCH   4   9
BRANCH   8  16
ATOM     16  O   UNL     1      30.930 -11.495 -20.822  0.00  0.00    -0.471 OA
ATOM     17  C   UNL     1      30.940 -10.363 -19.953  0.00  0.00    +0.252 C 
ENDBRANCH   8  16
ENDBRANCH   1   3
BRANCH   1  18
ATOM     18  C   UNL     1      33.900  -8.658 -23.556  0.00  0.00    -0.087 C 
ATOM     19  C   UNL     1      33.305  -7.617 -23.481  0.00  0.00    -0.076 C 
BRANCH  19  24
ATOM     20  N   UNL     1      32.451  -4.027 -23.874  0.00  0.00    -0.336 NA
ATOM     21  N   UNL     1      30.683  -5.116 -22.650  0.00  0.00    -0.317 NA
ATOM     22  N   UNL     1      30.805  -7.427 -22.163  0.00  0.00    -0.334 N 
ATOM     23  N   UNL     1      30.575  -2.824 -23.140  0.00  0.00    -0.283 N 
ATOM     24  C   UNL     1      32.593  -6.381 -23.389  0.00  0.00    +0.179 C 
ATOM     25  C   UNL     1      33.087  -5.215 -23.937  0.00  0.00    +0.120 C 
ATOM     26  C   UNL     1      31.374  -6.270 -22.751  0.00  0.00    +0.186 C 
ATOM     27  C   UNL     1      34.399  -5.198 -24.656  0.00  0.00    +0.064 C 
ATOM     28  C   UNL     1      31.271  -4.049 -23.225  0.00  0.00    +0.196 C 
ATOM     29  H   UNL     1      29.936  -7.368 -21.704  0.00  0.00    +0.144 HD
ATOM     30  H   UNL     1      31.276  -8.289 -22.215  0.00  0.00    +0.144 HD
ATOM     31  H   UNL     1      30.959  -2.011 -23.543  0.00  0.00    +0.156 HD
ATOM     32  H   UNL     1      29.707  -2.782 -22.677  0.00  0.00    +0.156 HD
ENDBRANCH  19  24
ENDBRANCH   1  18
TORSDOF 5
ENDMDL
MODEL 9
REMARK VINA RESULT:      -9.8      4.666      9.313
REMARK  Name = 44144378
REMARK  5 active torsions:
REMARK  status: ('A' for Active; 'I' for Inactive)
REMARK    1  A    between atoms: C_1  and  C_3
REMARK    2  A    between atoms: C_1  and  C_18
REMARK    3  A    between atoms: C_4  and  C_9
REMARK    4  A    between atoms: C_8  and  O_16
REMARK    5  A    between atoms: C_19  and  C_24
REMARK                            x       y       z     vdW  Elec       q    Type
REMARK                         _______ _______ _______ _____ _____    ______ ____
ROOT
ATOM      1  C   UNL     1      34.565 -10.030 -23.605  0.00  0.00    +0.086 C 
ATOM      2  C   UNL     1      34.568 -10.315 -25.119  0.00  0.00    +0.019 C 
ENDROOT
BRANCH   1   3
ATOM      3  C   UNL     1      33.883 -11.101 -22.822  0.00  0.00    -0.007 C 
ATOM      4  C   UNL     1      33.787 -13.386 -22.042  0.00  0.00    +0.003 C 
ATOM      5  C   UNL     1      34.426 -12.385 -22.775  0.00  0.00    -0.003 C 
ATOM      6  C   UNL     1      32.702 -10.818 -22.136  0.00  0.00    +0.034 C 
ATOM      7  C   UNL     1      32.606 -13.102 -21.356  0.00  0.00    +0.037 C 
ATOM      8  C   UNL     1      32.063 -11.819 -21.403  0.00  0.00    +0.138 C 
BRANCH   4   9
ATOM      9  C   UNL     1      34.351 -14.718 -21.993  0.00  0.00    +0.000 C 
ATOM     10  C   UNL     1      34.526 -15.445 -23.171  0.00  0.00    -0.000 C 
ATOM     11  C   UNL     1      34.719 -15.274 -20.768  0.00  0.00    -0.000 C 
ATOM     12  C   UNL     1      35.437 -17.286 -21.898  0.00  0.00    -0.022 C 
ATOM     13  C   UNL     1      35.069 -16.729 -23.124  0.00  0.00    -0.004 C 
ATOM     14  C   UNL     1      35.262 -16.558 -20.721  0.00  0.00    -0.004 C 
ATOM     15  C   UNL     1      36.018 -18.659 -21.848  0.00  0.00    +0.031 C 
ENDBRANCH   4   9
BRANCH   8  16
ATOM     16  O   UNL     1      30.911 -11.542 -20.735  0.00  0.00    -0.471 OA
ATOM     17  C   UNL     1      30.881 -10.342 -19.962  0.00  0.00    +0.252 C 
ENDBRANCH   8  16
ENDBRANCH   1   3
BRANCH   1  18
ATOM     18  C   UNL     1      33.985  -8.687 -23.350  0.00  0.00    -0.087 C 
ATOM     19  C   UNL     1      33.537  -7.593 -23.138  0.00  0.00    -0.076 C 
BRANCH  19  24
ATOM     20  N   UNL     1      31.842  -4.767 -21.430  0.00  0.00    -0.336 NA
ATOM     21  N   UNL     1      32.624  -4.016 -23.583  0.00  0.00    -0.317 NA
ATOM     22  N   UNL     1      33.771  -5.496 -25.028  0.00  0.00    -0.334 N 
ATOM     23  N   UNL     1      31.485  -2.559 -22.140  0.00  0.00    -0.283 N 
ATOM     24  C   UNL     1      33.008  -6.288 -22.887  0.00  0.00    +0.179 C 
ATOM     25  C   UNL     1      32.356  -5.982 -21.710  0.00  0.00    +0.120 C 
ATOM     26  C   UNL     1      33.114  -5.255 -23.797  0.00  0.00    +0.186 C 
ATOM     27  C   UNL     1      32.175  -7.013 -20.641  0.00  0.00    +0.064 C 
ATOM     28  C   UNL     1      32.009  -3.844 -22.398  0.00  0.00    +0.196 C 
ATOM     29  H   UNL     1      33.857  -4.771 -25.690  0.00  0.00    +0.144 HD
ATOM     30  H   UNL     1      34.143  -6.386 -25.223  0.00  0.00    +0.144 HD
ATOM     31  H   UNL     1      31.025  -2.377 -21.289  0.00  0.00    +0.156 HD
ATOM     32  H   UNL     1      31.579  -1.846 -22.812  0.00  0.00    +0.156 HD
ENDBRANCH  19  24
ENDBRANCH   1  18
TORSDOF 5
ENDMDL
