MODEL 1
REMARK VINA RESULT:     -12.1      0.000      0.000
REMARK  Name = 42647297
REMARK  5 active torsions:
REMARK  status: ('A' for Active; 'I' for Inactive)
REMARK    1  A    between atoms: N_3  and  C_14
REMARK    2  A    between atoms: C_7  and  N_20
REMARK    3  A    between atoms: N_20  and  C_24
REMARK    4  A    between atoms: C_22  and  C_31
REMARK    5  A    between atoms: N_30  and  C_33
REMARK                            x       y       z     vdW  Elec       q    Type
REMARK                         _______ _______ _______ _____ _____    ______ ____
ROOT
ATOM      1  O   UNL     1      31.566 -12.963 -19.878  0.00  0.00    -0.269 OA
ATOM      2  N   UNL     1      32.208 -11.224 -21.304  0.00  0.00    -0.240 N 
ATOM      3  N   UNL     1      33.190  -9.751 -23.014  0.00  0.00    -0.174 N 
ATOM      4  N   UNL     1      34.086  -9.801 -24.021  0.00  0.00    -0.171 NA
ATOM      5  C   UNL     1      33.042 -10.942 -22.371  0.00  0.00    +0.133 C 
ATOM      6  C   UNL     1      33.889 -11.819 -22.992  0.00  0.00    +0.064 C 
ATOM      7  C   UNL     1      33.961 -13.165 -22.541  0.00  0.00    +0.057 C 
ATOM      8  C   UNL     1      33.174 -13.514 -21.501  0.00  0.00    +0.073 C 
ATOM      9  C   UNL     1      32.241 -12.541 -20.818  0.00  0.00    +0.255 C 
ATOM     10  C   UNL     1      34.511 -11.072 -24.002  0.00  0.00    +0.122 C 
ATOM     11  C   UNL     1      31.345 -10.209 -20.716  0.00  0.00    +0.122 C 
ENDROOT
BRANCH   3  14
ATOM     12  F   UNL     1      34.433  -7.747 -21.544  0.00  0.00    -0.203 F 
ATOM     13  F   UNL     1      30.673  -4.926 -22.064  0.00  0.00    -0.204 F 
ATOM     14  C   UNL     1      32.556  -8.532 -22.772  0.00  0.00    +0.103 C 
ATOM     15  C   UNL     1      33.201  -7.542 -22.032  0.00  0.00    +0.158 C 
ATOM     16  C   UNL     1      31.274  -8.305 -23.273  0.00  0.00    +0.021 C 
ATOM     17  C   UNL     1      32.564  -6.323 -21.793  0.00  0.00    +0.061 C 
ATOM     18  C   UNL     1      30.638  -7.087 -23.034  0.00  0.00    +0.031 C 
ATOM     19  C   UNL     1      31.283  -6.096 -22.294  0.00  0.00    +0.142 C 
ENDBRANCH   3  14
BRANCH   7  20
ATOM     20  N   UNL     1      34.807 -14.047 -23.157  0.00  0.00    -0.313 N 
ATOM     21  H   UNL     1      35.570 -13.649 -23.634  0.00  0.00    +0.152 HD
BRANCH  20  24
ATOM     22  C   UNL     1      35.032 -17.571 -22.096  0.00  0.00    +0.055 C 
ATOM     23  C   UNL     1      35.108 -16.178 -22.075  0.00  0.00    +0.019 C 
ATOM     24  C   UNL     1      34.724 -15.441 -23.195  0.00  0.00    +0.044 C 
ATOM     25  C   UNL     1      34.570 -18.227 -23.237  0.00  0.00    +0.004 C 
ATOM     26  C   UNL     1      34.262 -16.097 -24.336  0.00  0.00    -0.008 C 
ATOM     27  C   UNL     1      34.185 -17.490 -24.357  0.00  0.00    -0.003 C 
ATOM     28  C   UNL     1      33.843 -15.334 -25.551  0.00  0.00    +0.032 C 
BRANCH  22  31
ATOM     29  O   UNL     1      36.351 -17.938 -20.191  0.00  0.00    -0.270 OA
ATOM     30  N   UNL     1      34.757 -19.543 -20.694  0.00  0.00    -0.302 N 
ATOM     31  C   UNL     1      35.433 -18.339 -20.928  0.00  0.00    +0.246 C 
ATOM     32  H   UNL     1      34.039 -19.804 -21.315  0.00  0.00    +0.150 HD
BRANCH  30  33
ATOM     33  C   UNL     1      35.058 -20.415 -19.593  0.00  0.00    +0.072 C 
ATOM     34  C   UNL     1      35.287 -21.884 -19.806  0.00  0.00    +0.021 C 
ATOM     35  C   UNL     1      34.053 -21.411 -19.094  0.00  0.00    +0.021 C 
ENDBRANCH  30  33
ENDBRANCH  22  31
ENDBRANCH  20  24
ENDBRANCH   7  20
TORSDOF 5
ENDMDL
MODEL 2
REMARK VINA RESULT:     -11.4      1.282      1.723
REMARK  Name = 42647297
REMARK  5 active torsions:
REMARK  status: ('A' for Active; 'I' for Inactive)
REMARK    1  A    between atoms: N_3  and  C_14
REMARK    2  A    between atoms: C_7  and  N_20
REMARK    3  A    between atoms: N_20  and  C_24
REMARK    4  A    between atoms: C_22  and  C_31
REMARK    5  A    between atoms: N_30  and  C_33
REMARK                            x       y       z     vdW  Elec       q    Type
REMARK                         _______ _______ _______ _____ _____    ______ ____
ROOT
ATOM      1  O   UNL     1      31.248 -12.378 -20.178  0.00  0.00    -0.269 OA
ATOM      2  N   UNL     1      32.067 -10.494 -21.299  0.00  0.00    -0.240 N 
ATOM      3  N   UNL     1      33.229  -8.854 -22.717  0.00  0.00    -0.174 N 
ATOM      4  N   UNL     1      34.186  -8.813 -23.668  0.00  0.00    -0.171 NA
ATOM      5  C   UNL     1      32.982 -10.114 -22.263  0.00  0.00    +0.133 C 
ATOM      6  C   UNL     1      33.824 -10.941 -22.955  0.00  0.00    +0.064 C 
ATOM      7  C   UNL     1      33.801 -12.339 -22.700  0.00  0.00    +0.057 C 
ATOM      8  C   UNL     1      32.931 -12.785 -21.768  0.00  0.00    +0.073 C 
ATOM      9  C   UNL     1      32.003 -11.866 -21.007  0.00  0.00    +0.255 C 
ATOM     10  C   UNL     1      34.547 -10.096 -23.809  0.00  0.00    +0.122 C 
ATOM     11  C   UNL     1      31.218  -9.524 -20.621  0.00  0.00    +0.122 C 
ENDROOT
BRANCH   3  14
ATOM     12  F   UNL     1      30.937  -7.911 -23.974  0.00  0.00    -0.203 F 
ATOM     13  F   UNL     1      30.905  -4.075 -21.207  0.00  0.00    -0.204 F 
ATOM     14  C   UNL     1      32.641  -7.647 -22.338  0.00  0.00    +0.103 C 
ATOM     15  C   UNL     1      31.491  -7.196 -22.984  0.00  0.00    +0.158 C 
ATOM     16  C   UNL     1      33.206  -6.892 -21.310  0.00  0.00    +0.021 C 
ATOM     17  C   UNL     1      30.904  -5.989 -22.601  0.00  0.00    +0.061 C 
ATOM     18  C   UNL     1      32.620  -5.685 -20.929  0.00  0.00    +0.031 C 
ATOM     19  C   UNL     1      31.469  -5.234 -21.574  0.00  0.00    +0.142 C 
ENDBRANCH   3  14
BRANCH   7  20
ATOM     20  N   UNL     1      34.641 -13.173 -23.387  0.00  0.00    -0.313 N 
ATOM     21  H   UNL     1      35.510 -12.790 -23.643  0.00  0.00    +0.152 HD
BRANCH  20  24
ATOM     22  C   UNL     1      34.754 -16.858 -23.377  0.00  0.00    +0.055 C 
ATOM     23  C   UNL     1      34.965 -15.529 -23.008  0.00  0.00    +0.019 C 
ATOM     24  C   UNL     1      34.420 -14.498 -23.771  0.00  0.00    +0.044 C 
ATOM     25  C   UNL     1      33.998 -17.155 -24.511  0.00  0.00    +0.004 C 
ATOM     26  C   UNL     1      33.663 -14.795 -24.905  0.00  0.00    -0.008 C 
ATOM     27  C   UNL     1      33.452 -16.123 -25.274  0.00  0.00    -0.003 C 
ATOM     28  C   UNL     1      33.066 -13.710 -25.742  0.00  0.00    +0.032 C 
BRANCH  22  31
ATOM     29  O   UNL     1      36.543 -17.965 -22.338  0.00  0.00    -0.270 OA
ATOM     30  N   UNL     1      34.444 -18.925 -22.127  0.00  0.00    -0.302 N 
ATOM     31  C   UNL     1      35.323 -17.934 -22.581  0.00  0.00    +0.246 C 
ATOM     32  H   UNL     1      33.490 -18.841 -22.352  0.00  0.00    +0.150 HD
BRANCH  30  33
ATOM     33  C   UNL     1      34.866 -20.056 -21.349  0.00  0.00    +0.072 C 
ATOM     34  C   UNL     1      34.275 -20.333 -19.997  0.00  0.00    +0.021 C 
ATOM     35  C   UNL     1      35.702 -19.881 -20.115  0.00  0.00    +0.021 C 
ENDBRANCH  30  33
ENDBRANCH  22  31
ENDBRANCH  20  24
ENDBRANCH   7  20
TORSDOF 5
ENDMDL
MODEL 3
REMARK VINA RESULT:     -11.1      6.775     10.701
REMARK  Name = 42647297
REMARK  5 active torsions:
REMARK  status: ('A' for Active; 'I' for Inactive)
REMARK    1  A    between atoms: N_3  and  C_14
REMARK    2  A    between atoms: C_7  and  N_20
REMARK    3  A    between atoms: N_20  and  C_24
REMARK    4  A    between atoms: C_22  and  C_31
REMARK    5  A    between atoms: N_30  and  C_33
REMARK                            x       y       z     vdW  Elec       q    Type
REMARK                         _______ _______ _______ _____ _____    ______ ____
ROOT
ATOM      1  O   UNL     1      37.538 -21.698 -17.906  0.00  0.00    -0.269 OA
ATOM      2  N   UNL     1      35.943 -20.595 -19.214  0.00  0.00    -0.240 N 
ATOM      3  N   UNL     1      33.933 -19.749 -20.355  0.00  0.00    -0.174 N 
ATOM      4  N   UNL     1      32.601 -19.967 -20.386  0.00  0.00    -0.171 NA
ATOM      5  C   UNL     1      34.586 -20.565 -19.481  0.00  0.00    +0.133 C 
ATOM      6  C   UNL     1      33.629 -21.358 -18.911  0.00  0.00    +0.064 C 
ATOM      7  C   UNL     1      34.006 -22.327 -17.942  0.00  0.00    +0.057 C 
ATOM      8  C   UNL     1      35.317 -22.415 -17.630  0.00  0.00    +0.073 C 
ATOM      9  C   UNL     1      36.370 -21.535 -18.263  0.00  0.00    +0.255 C 
ATOM     10  C   UNL     1      32.422 -20.955 -19.499  0.00  0.00    +0.122 C 
ATOM     11  C   UNL     1      36.877 -19.700 -19.884  0.00  0.00    +0.122 C 
ENDROOT
BRANCH   3  14
ATOM     12  F   UNL     1      34.454 -20.249 -23.038  0.00  0.00    -0.203 F 
ATOM     13  F   UNL     1      35.963 -15.809 -23.651  0.00  0.00    -0.204 F 
ATOM     14  C   UNL     1      34.447 -18.756 -21.189  0.00  0.00    +0.103 C 
ATOM     15  C   UNL     1      34.699 -19.032 -22.533  0.00  0.00    +0.158 C 
ATOM     16  C   UNL     1      34.706 -17.485 -20.677  0.00  0.00    +0.021 C 
ATOM     17  C   UNL     1      35.211 -18.035 -23.365  0.00  0.00    +0.061 C 
ATOM     18  C   UNL     1      35.219 -16.490 -21.508  0.00  0.00    +0.031 C 
ATOM     19  C   UNL     1      35.471 -16.765 -22.852  0.00  0.00    +0.142 C 
ENDBRANCH   3  14
BRANCH   7  20
ATOM     20  N   UNL     1      33.054 -23.126 -17.368  0.00  0.00    -0.313 N 
ATOM     21  H   UNL     1      32.518 -23.668 -17.989  0.00  0.00    +0.152 HD
BRANCH  20  24
ATOM     22  C   UNL     1      33.466 -23.773 -13.762  0.00  0.00    +0.055 C 
ATOM     23  C   UNL     1      33.755 -23.628 -15.118  0.00  0.00    +0.019 C 
ATOM     24  C   UNL     1      32.747 -23.267 -16.012  0.00  0.00    +0.044 C 
ATOM     25  C   UNL     1      32.168 -23.558 -13.298  0.00  0.00    +0.004 C 
ATOM     26  C   UNL     1      31.449 -23.051 -15.549  0.00  0.00    -0.008 C 
ATOM     27  C   UNL     1      31.159 -23.196 -14.192  0.00  0.00    -0.003 C 
ATOM     28  C   UNL     1      30.349 -22.663 -16.483  0.00  0.00    +0.032 C 
BRANCH  22  31
ATOM     29  O   UNL     1      34.490 -23.753 -11.651  0.00  0.00    -0.270 OA
ATOM     30  N   UNL     1      35.551 -24.953 -13.326  0.00  0.00    -0.302 N 
ATOM     31  C   UNL     1      34.517 -24.150 -12.830  0.00  0.00    +0.246 C 
ATOM     32  H   UNL     1      35.513 -25.234 -14.268  0.00  0.00    +0.150 HD
BRANCH  30  33
ATOM     33  C   UNL     1      36.665 -25.386 -12.529  0.00  0.00    +0.072 C 
ATOM     34  C   UNL     1      37.996 -24.698 -12.615  0.00  0.00    +0.021 C 
ATOM     35  C   UNL     1      37.835 -26.092 -13.148  0.00  0.00    +0.021 C 
ENDBRANCH  30  33
ENDBRANCH  22  31
ENDBRANCH  20  24
ENDBRANCH   7  20
TORSDOF 5
ENDMDL
MODEL 4
REMARK VINA RESULT:     -10.8      1.819      2.692
REMARK  Name = 42647297
REMARK  5 active torsions:
REMARK  status: ('A' for Active; 'I' for Inactive)
REMARK    1  A    between atoms: N_3  and  C_14
REMARK    2  A    between atoms: C_7  and  N_20
REMARK    3  A    between atoms: N_20  and  C_24
REMARK    4  A    between atoms: C_22  and  C_31
REMARK    5  A    between atoms: N_30  and  C_33
REMARK                            x       y       z     vdW  Elec       q    Type
REMARK                         _______ _______ _______ _____ _____    ______ ____
ROOT
ATOM      1  O   UNL     1      35.447  -9.773 -24.905  0.00  0.00    -0.269 OA
ATOM      2  N   UNL     1      33.810  -9.085 -23.382  0.00  0.00    -0.240 N 
ATOM      3  N   UNL     1      32.025  -8.865 -21.703  0.00  0.00    -0.174 N 
ATOM      4  N   UNL     1      31.238  -9.645 -20.933  0.00  0.00    -0.171 NA
ATOM      5  C   UNL     1      32.879  -9.579 -22.487  0.00  0.00    +0.133 C 
ATOM      6  C   UNL     1      32.636 -10.898 -22.215  0.00  0.00    +0.064 C 
ATOM      7  C   UNL     1      33.383 -11.904 -22.886  0.00  0.00    +0.057 C 
ATOM      8  C   UNL     1      34.312 -11.495 -23.777  0.00  0.00    +0.073 C 
ATOM      9  C   UNL     1      34.576 -10.037 -24.075  0.00  0.00    +0.255 C 
ATOM     10  C   UNL     1      31.617 -10.890 -21.252  0.00  0.00    +0.122 C 
ATOM     11  C   UNL     1      33.986  -7.655 -23.596  0.00  0.00    +0.122 C 
ENDROOT
BRANCH   3  14
ATOM     12  F   UNL     1      33.722  -7.337 -20.120  0.00  0.00    -0.203 F 
ATOM     13  F   UNL     1      31.396  -3.392 -21.302  0.00  0.00    -0.204 F 
ATOM     14  C   UNL     1      31.868  -7.483 -21.599  0.00  0.00    +0.103 C 
ATOM     15  C   UNL     1      32.733  -6.738 -20.799  0.00  0.00    +0.158 C 
ATOM     16  C   UNL     1      30.843  -6.847 -22.300  0.00  0.00    +0.021 C 
ATOM     17  C   UNL     1      32.573  -5.355 -20.699  0.00  0.00    +0.061 C 
ATOM     18  C   UNL     1      30.684  -5.465 -22.200  0.00  0.00    +0.031 C 
ATOM     19  C   UNL     1      31.549  -4.719 -21.399  0.00  0.00    +0.142 C 
ENDBRANCH   3  14
BRANCH   7  20
ATOM     20  N   UNL     1      33.144 -13.224 -22.620  0.00  0.00    -0.313 N 
ATOM     21  H   UNL     1      32.578 -13.408 -21.837  0.00  0.00    +0.152 HD
BRANCH  20  24
ATOM     22  C   UNL     1      34.703 -16.495 -23.300  0.00  0.00    +0.055 C 
ATOM     23  C   UNL     1      34.238 -15.370 -22.620  0.00  0.00    +0.019 C 
ATOM     24  C   UNL     1      33.604 -14.344 -23.318  0.00  0.00    +0.044 C 
ATOM     25  C   UNL     1      34.532 -16.594 -24.682  0.00  0.00    +0.004 C 
ATOM     26  C   UNL     1      33.432 -14.443 -24.699  0.00  0.00    -0.008 C 
ATOM     27  C   UNL     1      33.896 -15.568 -25.381  0.00  0.00    -0.003 C 
ATOM     28  C   UNL     1      32.755 -13.359 -25.474  0.00  0.00    +0.032 C 
BRANCH  22  31
ATOM     29  O   UNL     1      36.589 -17.519 -22.352  0.00  0.00    -0.270 OA
ATOM     30  N   UNL     1      34.570 -18.640 -22.155  0.00  0.00    -0.302 N 
ATOM     31  C   UNL     1      35.365 -17.565 -22.572  0.00  0.00    +0.246 C 
ATOM     32  H   UNL     1      33.608 -18.616 -22.360  0.00  0.00    +0.150 HD
BRANCH  30  33
ATOM     33  C   UNL     1      35.090 -19.776 -21.445  0.00  0.00    +0.072 C 
ATOM     34  C   UNL     1      34.478 -20.230 -20.152  0.00  0.00    +0.021 C 
ATOM     35  C   UNL     1      35.844 -19.608 -20.158  0.00  0.00    +0.021 C 
ENDBRANCH  30  33
ENDBRANCH  22  31
ENDBRANCH  20  24
ENDBRANCH   7  20
TORSDOF 5
ENDMDL
MODEL 5
REMARK VINA RESULT:     -10.7      4.058     10.277
REMARK  Name = 42647297
REMARK  5 active torsions:
REMARK  status: ('A' for Active; 'I' for Inactive)
REMARK    1  A    between atoms: N_3  and  C_14
REMARK    2  A    between atoms: C_7  and  N_20
REMARK    3  A    between atoms: N_20  and  C_24
REMARK    4  A    between atoms: C_22  and  C_31
REMARK    5  A    between atoms: N_30  and  C_33
REMARK                            x       y       z     vdW  Elec       q    Type
REMARK                         _______ _______ _______ _____ _____    ______ ____
ROOT
ATOM      1  O   UNL     1      30.640 -10.521 -19.965  0.00  0.00    -0.269 OA
ATOM      2  N   UNL     1      32.162 -11.132 -21.634  0.00  0.00    -0.240 N 
ATOM      3  N   UNL     1      33.869 -11.271 -23.400  0.00  0.00    -0.174 N 
ATOM      4  N   UNL     1      34.701 -10.464 -24.091  0.00  0.00    -0.171 NA
ATOM      5  C   UNL     1      33.106 -10.600 -22.493  0.00  0.00    +0.133 C 
ATOM      6  C   UNL     1      33.458  -9.283 -22.598  0.00  0.00    +0.064 C 
ATOM      7  C   UNL     1      32.826  -8.318 -21.766  0.00  0.00    +0.057 C 
ATOM      8  C   UNL     1      31.891  -8.764 -20.900  0.00  0.00    +0.073 C 
ATOM      9  C   UNL     1      31.505 -10.221 -20.789  0.00  0.00    +0.255 C 
ATOM     10  C   UNL     1      34.444  -9.246 -23.594  0.00  0.00    +0.122 C 
ATOM     11  C   UNL     1      31.863 -12.557 -21.607  0.00  0.00    +0.122 C 
ENDROOT
BRANCH   3  14
ATOM     12  F   UNL     1      32.728 -12.268 -25.730  0.00  0.00    -0.203 F 
ATOM     13  F   UNL     1      33.994 -16.671 -24.556  0.00  0.00    -0.204 F 
ATOM     14  C   UNL     1      33.898 -12.635 -23.694  0.00  0.00    +0.103 C 
ATOM     15  C   UNL     1      33.319 -13.110 -24.870  0.00  0.00    +0.158 C 
ATOM     16  C   UNL     1      34.510 -13.522 -22.809  0.00  0.00    +0.021 C 
ATOM     17  C   UNL     1      33.352 -14.475 -25.161  0.00  0.00    +0.061 C 
ATOM     18  C   UNL     1      34.542 -14.886 -23.100  0.00  0.00    +0.031 C 
ATOM     19  C   UNL     1      33.963 -15.362 -24.276  0.00  0.00    +0.142 C 
ENDBRANCH   3  14
BRANCH   7  20
ATOM     20  N   UNL     1      33.173  -6.998 -21.866  0.00  0.00    -0.313 N 
ATOM     21  H   UNL     1      33.787  -6.663 -21.174  0.00  0.00    +0.152 HD
BRANCH  20  24
ATOM     22  C   UNL     1      33.189  -4.892 -24.892  0.00  0.00    +0.055 C 
ATOM     23  C   UNL     1      33.582  -5.819 -23.926  0.00  0.00    +0.019 C 
ATOM     24  C   UNL     1      32.764  -6.067 -22.823  0.00  0.00    +0.044 C 
ATOM     25  C   UNL     1      31.978  -4.213 -24.755  0.00  0.00    +0.004 C 
ATOM     26  C   UNL     1      31.553  -5.389 -22.687  0.00  0.00    -0.008 C 
ATOM     27  C   UNL     1      31.160  -4.462 -23.653  0.00  0.00    -0.003 C 
ATOM     28  C   UNL     1      30.656  -5.635 -21.518  0.00  0.00    +0.032 C 
BRANCH  22  31
ATOM     29  O   UNL     1      33.547  -4.410 -27.159  0.00  0.00    -0.270 OA
ATOM     30  N   UNL     1      35.426  -4.665 -25.827  0.00  0.00    -0.302 N 
ATOM     31  C   UNL     1      34.042  -4.633 -26.040  0.00  0.00    +0.246 C 
ATOM     32  H   UNL     1      35.754  -4.846 -24.917  0.00  0.00    +0.150 HD
BRANCH  30  33
ATOM     33  C   UNL     1      36.389  -4.448 -26.871  0.00  0.00    +0.072 C 
ATOM     34  C   UNL     1      37.775  -3.964 -26.559  0.00  0.00    +0.021 C 
ATOM     35  C   UNL     1      36.806  -3.062 -27.266  0.00  0.00    +0.021 C 
ENDBRANCH  30  33
ENDBRANCH  22  31
ENDBRANCH  20  24
ENDBRANCH   7  20
TORSDOF 5
ENDMDL
MODEL 6
REMARK VINA RESULT:     -10.4      6.680     10.609
REMARK  Name = 42647297
REMARK  5 active torsions:
REMARK  status: ('A' for Active; 'I' for Inactive)
REMARK    1  A    between atoms: N_3  and  C_14
REMARK    2  A    between atoms: C_7  and  N_20
REMARK    3  A    between atoms: N_20  and  C_24
REMARK    4  A    between atoms: C_22  and  C_31
REMARK    5  A    between atoms: N_30  and  C_33
REMARK                            x       y       z     vdW  Elec       q    Type
REMARK                         _______ _______ _______ _____ _____    ______ ____
ROOT
ATOM      1  O   UNL     1      37.566 -21.599 -17.905  0.00  0.00    -0.269 OA
ATOM      2  N   UNL     1      35.968 -20.519 -19.229  0.00  0.00    -0.240 N 
ATOM      3  N   UNL     1      33.963 -19.721 -20.411  0.00  0.00    -0.174 N 
ATOM      4  N   UNL     1      32.645 -19.998 -20.500  0.00  0.00    -0.171 NA
ATOM      5  C   UNL     1      34.622 -20.541 -19.545  0.00  0.00    +0.133 C 
ATOM      6  C   UNL     1      33.684 -21.400 -19.043  0.00  0.00    +0.064 C 
ATOM      7  C   UNL     1      34.071 -22.389 -18.098  0.00  0.00    +0.057 C 
ATOM      8  C   UNL     1      35.373 -22.429 -17.740  0.00  0.00    +0.073 C 
ATOM      9  C   UNL     1      36.405 -21.477 -18.299  0.00  0.00    +0.255 C 
ATOM     10  C   UNL     1      32.481 -21.029 -19.659  0.00  0.00    +0.122 C 
ATOM     11  C   UNL     1      36.882 -19.556 -19.828  0.00  0.00    +0.122 C 
ENDROOT
BRANCH   3  14
ATOM     12  F   UNL     1      34.605 -20.089 -23.089  0.00  0.00    -0.203 F 
ATOM     13  F   UNL     1      35.920 -15.562 -23.474  0.00  0.00    -0.204 F 
ATOM     14  C   UNL     1      34.458 -18.673 -21.186  0.00  0.00    +0.103 C 
ATOM     15  C   UNL     1      34.772 -18.882 -22.528  0.00  0.00    +0.158 C 
ATOM     16  C   UNL     1      34.637 -17.413 -20.616  0.00  0.00    +0.021 C 
ATOM     17  C   UNL     1      35.266 -17.830 -23.301  0.00  0.00    +0.061 C 
ATOM     18  C   UNL     1      35.131 -16.362 -21.388  0.00  0.00    +0.031 C 
ATOM     19  C   UNL     1      35.445 -16.571 -22.731  0.00  0.00    +0.142 C 
ENDBRANCH   3  14
BRANCH   7  20
ATOM     20  N   UNL     1      33.138 -23.253 -17.591  0.00  0.00    -0.313 N 
ATOM     21  H   UNL     1      32.987 -24.074 -18.112  0.00  0.00    +0.152 HD
BRANCH  20  24
ATOM     22  C   UNL     1      30.230 -22.719 -15.390  0.00  0.00    +0.055 C 
ATOM     23  C   UNL     1      31.008 -22.858 -16.539  0.00  0.00    +0.019 C 
ATOM     24  C   UNL     1      32.374 -23.116 -16.430  0.00  0.00    +0.044 C 
ATOM     25  C   UNL     1      30.819 -22.839 -14.130  0.00  0.00    +0.004 C 
ATOM     26  C   UNL     1      32.963 -23.237 -15.171  0.00  0.00    -0.008 C 
ATOM     27  C   UNL     1      32.185 -23.098 -14.021  0.00  0.00    -0.003 C 
ATOM     28  C   UNL     1      34.424 -23.514 -15.023  0.00  0.00    +0.032 C 
BRANCH  22  31
ATOM     29  O   UNL     1      28.172 -21.977 -14.542  0.00  0.00    -0.270 OA
ATOM     30  N   UNL     1      28.193 -22.761 -16.723  0.00  0.00    -0.302 N 
ATOM     31  C   UNL     1      28.806 -22.449 -15.503  0.00  0.00    +0.246 C 
ATOM     32  H   UNL     1      28.750 -23.131 -17.445  0.00  0.00    +0.150 HD
BRANCH  30  33
ATOM     33  C   UNL     1      26.792 -22.568 -16.973  0.00  0.00    +0.072 C 
ATOM     34  C   UNL     1      26.310 -21.939 -18.248  0.00  0.00    +0.021 C 
ATOM     35  C   UNL     1      26.181 -21.197 -16.950  0.00  0.00    +0.021 C 
ENDBRANCH  30  33
ENDBRANCH  22  31
ENDBRANCH  20  24
ENDBRANCH   7  20
TORSDOF 5
ENDMDL
MODEL 7
REMARK VINA RESULT:     -10.4      3.231      5.906
REMARK  Name = 42647297
REMARK  5 active torsions:
REMARK  status: ('A' for Active; 'I' for Inactive)
REMARK    1  A    between atoms: N_3  and  C_14
REMARK    2  A    between atoms: C_7  and  N_20
REMARK    3  A    between atoms: N_20  and  C_24
REMARK    4  A    between atoms: C_22  and  C_31
REMARK    5  A    between atoms: N_30  and  C_33
REMARK                            x       y       z     vdW  Elec       q    Type
REMARK                         _______ _______ _______ _____ _____    ______ ____
ROOT
ATOM      1  O   UNL     1      34.164 -17.897 -25.236  0.00  0.00    -0.269 OA
ATOM      2  N   UNL     1      34.191 -16.281 -23.544  0.00  0.00    -0.240 N 
ATOM      3  N   UNL     1      34.428 -14.958 -21.483  0.00  0.00    -0.174 N 
ATOM      4  N   UNL     1      34.874 -15.100 -20.217  0.00  0.00    -0.171 NA
ATOM      5  C   UNL     1      34.551 -16.096 -22.222  0.00  0.00    +0.133 C 
ATOM      6  C   UNL     1      35.108 -17.031 -21.393  0.00  0.00    +0.064 C 
ATOM      7  C   UNL     1      35.365 -18.340 -21.884  0.00  0.00    +0.057 C 
ATOM      8  C   UNL     1      35.038 -18.596 -23.169  0.00  0.00    +0.073 C 
ATOM      9  C   UNL     1      34.423 -17.559 -24.080  0.00  0.00    +0.255 C 
ATOM     10  C   UNL     1      35.289 -16.373 -20.169  0.00  0.00    +0.122 C 
ATOM     11  C   UNL     1      33.602 -15.211 -24.337  0.00  0.00    +0.122 C 
ENDROOT
BRANCH   3  14
ATOM     12  F   UNL     1      32.134 -13.929 -20.300  0.00  0.00    -0.203 F 
ATOM     13  F   UNL     1      32.421 -10.028 -22.959  0.00  0.00    -0.204 F 
ATOM     14  C   UNL     1      33.919 -13.714 -21.855  0.00  0.00    +0.103 C 
ATOM     15  C   UNL     1      32.766 -13.219 -21.246  0.00  0.00    +0.158 C 
ATOM     16  C   UNL     1      34.566 -12.965 -22.837  0.00  0.00    +0.021 C 
ATOM     17  C   UNL     1      32.261 -11.973 -21.619  0.00  0.00    +0.061 C 
ATOM     18  C   UNL     1      34.060 -11.720 -23.210  0.00  0.00    +0.031 C 
ATOM     19  C   UNL     1      32.907 -11.224 -22.601  0.00  0.00    +0.142 C 
ENDBRANCH   3  14
BRANCH   7  20
ATOM     20  N   UNL     1      35.921 -19.282 -21.061  0.00  0.00    -0.313 N 
ATOM     21  H   UNL     1      36.896 -19.390 -21.130  0.00  0.00    +0.152 HD
BRANCH  20  24
ATOM     22  C   UNL     1      35.396 -21.518 -18.177  0.00  0.00    +0.055 C 
ATOM     23  C   UNL     1      36.021 -20.690 -19.109  0.00  0.00    +0.019 C 
ATOM     24  C   UNL     1      35.278 -20.109 -20.136  0.00  0.00    +0.044 C 
ATOM     25  C   UNL     1      34.027 -21.766 -18.273  0.00  0.00    +0.004 C 
ATOM     26  C   UNL     1      33.908 -20.356 -20.231  0.00  0.00    -0.008 C 
ATOM     27  C   UNL     1      33.283 -21.184 -19.300  0.00  0.00    -0.003 C 
ATOM     28  C   UNL     1      33.087 -19.747 -21.320  0.00  0.00    +0.032 C 
BRANCH  22  31
ATOM     29  O   UNL     1      37.414 -22.068 -17.114  0.00  0.00    -0.270 OA
ATOM     30  N   UNL     1      35.458 -22.780 -16.096  0.00  0.00    -0.302 N 
ATOM     31  C   UNL     1      36.171 -22.125 -17.106  0.00  0.00    +0.246 C 
ATOM     32  H   UNL     1      34.475 -22.788 -16.148  0.00  0.00    +0.150 HD
BRANCH  30  33
ATOM     33  C   UNL     1      36.089 -23.441 -14.987  0.00  0.00    +0.072 C 
ATOM     34  C   UNL     1      35.612 -24.782 -14.509  0.00  0.00    +0.021 C 
ATOM     35  C   UNL     1      35.398 -23.563 -13.660  0.00  0.00    +0.021 C 
ENDBRANCH  30  33
ENDBRANCH  22  31
ENDBRANCH  20  24
ENDBRANCH   7  20
TORSDOF 5
ENDMDL
MODEL 8
REMARK VINA RESULT:     -10.3      2.965      4.918
REMARK  Name = 42647297
REMARK  5 active torsions:
REMARK  status: ('A' for Active; 'I' for Inactive)
REMARK    1  A    between atoms: N_3  and  C_14
REMARK    2  A    between atoms: C_7  and  N_20
REMARK    3  A    between atoms: N_20  and  C_24
REMARK    4  A    between atoms: C_22  and  C_31
REMARK    5  A    between atoms: N_30  and  C_33
REMARK                            x       y       z     vdW  Elec       q    Type
REMARK                         _______ _______ _______ _____ _____    ______ ____
ROOT
ATOM      1  O   UNL     1      33.410 -15.706 -26.239  0.00  0.00    -0.269 OA
ATOM      2  N   UNL     1      33.545 -14.835 -24.072  0.00  0.00    -0.240 N 
ATOM      3  N   UNL     1      33.963 -14.342 -21.698  0.00  0.00    -0.174 N 
ATOM      4  N   UNL     1      34.597 -14.877 -20.634  0.00  0.00    -0.171 NA
ATOM      5  C   UNL     1      34.074 -15.102 -22.823  0.00  0.00    +0.133 C 
ATOM      6  C   UNL     1      34.820 -16.194 -22.474  0.00  0.00    +0.064 C 
ATOM      7  C   UNL     1      35.113 -17.186 -23.449  0.00  0.00    +0.057 C 
ATOM      8  C   UNL     1      34.627 -16.993 -24.695  0.00  0.00    +0.073 C 
ATOM      9  C   UNL     1      33.803 -15.784 -25.075  0.00  0.00    +0.255 C 
ATOM     10  C   UNL     1      35.120 -16.013 -21.116  0.00  0.00    +0.122 C 
ATOM     11  C   UNL     1      32.761 -13.636 -24.334  0.00  0.00    +0.122 C 
ENDROOT
BRANCH   3  14
ATOM     12  F   UNL     1      31.913 -14.081 -19.841  0.00  0.00    -0.203 F 
ATOM     13  F   UNL     1      31.361  -9.523 -20.976  0.00  0.00    -0.204 F 
ATOM     14  C   UNL     1      33.304 -13.126 -21.515  0.00  0.00    +0.103 C 
ATOM     15  C   UNL     1      32.279 -13.021 -20.576  0.00  0.00    +0.158 C 
ATOM     16  C   UNL     1      33.674 -12.015 -22.272  0.00  0.00    +0.021 C 
ATOM     17  C   UNL     1      31.622 -11.803 -20.394  0.00  0.00    +0.061 C 
ATOM     18  C   UNL     1      33.017 -10.798 -22.091  0.00  0.00    +0.031 C 
ATOM     19  C   UNL     1      31.991 -10.692 -21.151  0.00  0.00    +0.142 C 
ENDBRANCH   3  14
BRANCH   7  20
ATOM     20  N   UNL     1      35.857 -18.282 -23.107  0.00  0.00    -0.313 N 
ATOM     21  H   UNL     1      36.402 -18.672 -23.828  0.00  0.00    +0.152 HD
BRANCH  20  24
ATOM     22  C   UNL     1      34.900 -20.252 -20.142  0.00  0.00    +0.055 C 
ATOM     23  C   UNL     1      34.834 -19.612 -21.379  0.00  0.00    +0.019 C 
ATOM     24  C   UNL     1      35.941 -18.917 -21.866  0.00  0.00    +0.044 C 
ATOM     25  C   UNL     1      36.075 -20.198 -19.390  0.00  0.00    +0.004 C 
ATOM     26  C   UNL     1      37.116 -18.864 -21.115  0.00  0.00    -0.008 C 
ATOM     27  C   UNL     1      37.183 -19.504 -19.878  0.00  0.00    -0.003 C 
ATOM     28  C   UNL     1      38.318 -18.128 -21.612  0.00  0.00    +0.032 C 
BRANCH  22  31
ATOM     29  O   UNL     1      32.597 -20.673 -20.001  0.00  0.00    -0.270 OA
ATOM     30  N   UNL     1      33.991 -21.999 -18.710  0.00  0.00    -0.302 N 
ATOM     31  C   UNL     1      33.746 -20.976 -19.633  0.00  0.00    +0.246 C 
ATOM     32  H   UNL     1      34.924 -22.190 -18.461  0.00  0.00    +0.150 HD
BRANCH  30  33
ATOM     33  C   UNL     1      32.949 -22.784 -18.109  0.00  0.00    +0.072 C 
ATOM     34  C   UNL     1      32.130 -22.247 -16.971  0.00  0.00    +0.021 C 
ATOM     35  C   UNL     1      33.108 -23.361 -16.732  0.00  0.00    +0.021 C 
ENDBRANCH  30  33
ENDBRANCH  22  31
ENDBRANCH  20  24
ENDBRANCH   7  20
TORSDOF 5
ENDMDL
MODEL 9
REMARK VINA RESULT:     -10.0      3.823     10.129
REMARK  Name = 42647297
REMARK  5 active torsions:
REMARK  status: ('A' for Active; 'I' for Inactive)
REMARK    1  A    between atoms: N_3  and  C_14
REMARK    2  A    between atoms: C_7  and  N_20
REMARK    3  A    between atoms: N_20  and  C_24
REMARK    4  A    between atoms: C_22  and  C_31
REMARK    5  A    between atoms: N_30  and  C_33
REMARK                            x       y       z     vdW  Elec       q    Type
REMARK                         _______ _______ _______ _____ _____    ______ ____
ROOT
ATOM      1  O   UNL     1      33.799 -16.345 -25.526  0.00  0.00    -0.269 OA
ATOM      2  N   UNL     1      34.386 -16.847 -23.317  0.00  0.00    -0.240 N 
ATOM      3  N   UNL     1      34.999 -16.863 -20.935  0.00  0.00    -0.174 N 
ATOM      4  N   UNL     1      35.224 -15.996 -19.926  0.00  0.00    -0.171 NA
ATOM      5  C   UNL     1      34.675 -16.248 -22.105  0.00  0.00    +0.133 C 
ATOM      6  C   UNL     1      34.690 -14.904 -21.847  0.00  0.00    +0.064 C 
ATOM      7  C   UNL     1      34.388 -13.985 -22.889  0.00  0.00    +0.057 C 
ATOM      8  C   UNL     1      34.095 -14.498 -24.103  0.00  0.00    +0.073 C 
ATOM      9  C   UNL     1      34.080 -15.984 -24.382  0.00  0.00    +0.255 C 
ATOM     10  C   UNL     1      35.034 -14.796 -20.492  0.00  0.00    +0.122 C 
ATOM     11  C   UNL     1      34.400 -18.294 -23.482  0.00  0.00    +0.122 C 
ENDROOT
BRANCH   3  14
ATOM     12  F   UNL     1      37.470 -18.131 -21.004  0.00  0.00    -0.203 F 
ATOM     13  F   UNL     1      35.475 -22.255 -19.830  0.00  0.00    -0.204 F 
ATOM     14  C   UNL     1      35.121 -18.225 -20.657  0.00  0.00    +0.103 C 
ATOM     15  C   UNL     1      36.373 -18.838 -20.698  0.00  0.00    +0.158 C 
ATOM     16  C   UNL     1      33.988 -18.973 -20.337  0.00  0.00    +0.021 C 
ATOM     17  C   UNL     1      36.492 -20.200 -20.418  0.00  0.00    +0.061 C 
ATOM     18  C   UNL     1      34.108 -20.334 -20.058  0.00  0.00    +0.031 C 
ATOM     19  C   UNL     1      35.360 -20.948 -20.099  0.00  0.00    +0.142 C 
ENDBRANCH   3  14
BRANCH   7  20
ATOM     20  N   UNL     1      34.402 -12.640 -22.638  0.00  0.00    -0.313 N 
ATOM     21  H   UNL     1      35.269 -12.190 -22.763  0.00  0.00    +0.152 HD
BRANCH  20  24
ATOM     22  C   UNL     1      32.243  -9.675 -22.264  0.00  0.00    +0.055 C 
ATOM     23  C   UNL     1      33.292 -10.502 -22.665  0.00  0.00    +0.019 C 
ATOM     24  C   UNL     1      33.345 -11.825 -22.227  0.00  0.00    +0.044 C 
ATOM     25  C   UNL     1      31.245 -10.171 -21.425  0.00  0.00    +0.004 C 
ATOM     26  C   UNL     1      32.346 -12.322 -21.389  0.00  0.00    -0.008 C 
ATOM     27  C   UNL     1      31.297 -11.495 -20.988  0.00  0.00    -0.003 C 
ATOM     28  C   UNL     1      32.375 -13.735 -20.905  0.00  0.00    +0.032 C 
BRANCH  22  31
ATOM     29  O   UNL     1      33.046  -7.854 -23.507  0.00  0.00    -0.270 OA
ATOM     30  N   UNL     1      31.152  -7.498 -22.220  0.00  0.00    -0.302 N 
ATOM     31  C   UNL     1      32.190  -8.295 -22.720  0.00  0.00    +0.246 C 
ATOM     32  H   UNL     1      30.506  -7.908 -21.601  0.00  0.00    +0.150 HD
BRANCH  30  33
ATOM     33  C   UNL     1      30.985  -6.114 -22.564  0.00  0.00    +0.072 C 
ATOM     34  C   UNL     1      31.777  -5.041 -21.876  0.00  0.00    +0.021 C 
ATOM     35  C   UNL     1      30.300  -5.159 -21.631  0.00  0.00    +0.021 C 
ENDBRANCH  30  33
ENDBRANCH  22  31
ENDBRANCH  20  24
ENDBRANCH   7  20
TORSDOF 5
ENDMDL
