MODEL 1
REMARK VINA RESULT:     -12.6      0.000      0.000
REMARK  Name = 447735
REMARK  4 active torsions:
REMARK  status: ('A' for Active; 'I' for Inactive)
REMARK    1  A    between atoms: N_2  and  C_13
REMARK    2  A    between atoms: C_3  and  C_18
REMARK    3  A    between atoms: C_7  and  C_15
REMARK    4  A    between atoms: C_26  and  C_30
REMARK                            x       y       z     vdW  Elec       q    Type
REMARK                         _______ _______ _______ _____ _____    ______ ____
ROOT
ATOM      1  O   UNL     1      34.215 -18.892 -23.441  0.00  0.00    -0.270 OA
ATOM      2  N   UNL     1      34.872 -16.886 -22.405  0.00  0.00    -0.280 N 
ATOM      3  C   UNL     1      34.720 -18.276 -22.510  0.00  0.00    +0.249 C 
ATOM      4  H   UNL     1      35.304 -16.561 -21.582  0.00  0.00    +0.155 HD
ENDROOT
BRANCH   2  13
ATOM      5  N   UNL     1      33.401 -11.275 -24.251  0.00  0.00    -0.274 NA
ATOM      6  C   UNL     1      33.808 -13.648 -23.810  0.00  0.00    +0.010 C 
ATOM      7  C   UNL     1      33.448 -12.261 -23.417  0.00  0.00    +0.053 C 
ATOM      8  C   UNL     1      33.735 -13.956 -25.175  0.00  0.00    -0.019 C 
ATOM      9  C   UNL     1      33.293 -12.890 -26.132  0.00  0.00    +0.053 C 
ATOM     10  C   UNL     1      33.789 -11.536 -25.642  0.00  0.00    +0.130 C 
ATOM     11  C   UNL     1      34.190 -14.620 -22.883  0.00  0.00    +0.016 C 
ATOM     12  C   UNL     1      34.023 -15.255 -25.605  0.00  0.00    -0.003 C 
ATOM     13  C   UNL     1      34.490 -15.910 -23.324  0.00  0.00    +0.051 C 
ATOM     14  C   UNL     1      34.404 -16.227 -24.680  0.00  0.00    +0.014 C 
BRANCH   7  15
ATOM     15  C   UNL     1      33.110 -11.979 -21.974  0.00  0.00    +0.040 C 
ATOM     16  C   UNL     1      32.576 -10.562 -21.868  0.00  0.00    +0.006 C 
ATOM     17  C   UNL     1      32.101 -13.004 -21.488  0.00  0.00    +0.006 C 
ENDBRANCH   7  15
ENDBRANCH   2  13
BRANCH   3  18
ATOM     18  C   UNL     1      35.206 -19.060 -21.344  0.00  0.00    +0.054 C 
ATOM     19  C   UNL     1      34.775 -20.656 -19.598  0.00  0.00    +0.000 C 
ATOM     20  C   UNL     1      36.116 -20.525 -19.168  0.00  0.00    +0.000 C 
ATOM     21  C   UNL     1      34.330 -19.909 -20.701  0.00  0.00    +0.005 C 
ATOM     22  C   UNL     1      36.515 -18.913 -20.947  0.00  0.00    +0.005 C 
ATOM     23  C   UNL     1      36.975 -19.648 -19.853  0.00  0.00    +0.000 C 
ATOM     24  C   UNL     1      36.561 -21.272 -18.065  0.00  0.00    +0.003 C 
ATOM     25  C   UNL     1      33.918 -21.532 -18.913  0.00  0.00    +0.000 C 
ATOM     26  C   UNL     1      35.695 -22.138 -17.396  0.00  0.00    +0.031 C 
ATOM     27  C   UNL     1      34.376 -22.267 -17.819  0.00  0.00    +0.003 C 
BRANCH  26  30
ATOM     28  N   UNL     1      37.472 -22.762 -15.778  0.00  0.00    -0.343 N 
ATOM     29  N   UNL     1      35.363 -23.762 -15.657  0.00  0.00    -0.285 NA
ATOM     30  C   UNL     1      36.171 -22.905 -16.257  0.00  0.00    +0.117 C 
ATOM     31  H   UNL     1      37.772 -23.292 -15.005  0.00  0.00    +0.144 HD
ATOM     32  H   UNL     1      38.090 -22.131 -16.213  0.00  0.00    +0.144 HD
ATOM     33  H   UNL     1      35.683 -24.284 -14.885  0.00  0.00    +0.188 HD
ENDBRANCH  26  30
ENDBRANCH   3  18
TORSDOF 4
ENDMDL
MODEL 2
REMARK VINA RESULT:     -12.5      3.654     11.825
REMARK  Name = 447735
REMARK  4 active torsions:
REMARK  status: ('A' for Active; 'I' for Inactive)
REMARK    1  A    between atoms: N_2  and  C_13
REMARK    2  A    between atoms: C_3  and  C_18
REMARK    3  A    between atoms: C_7  and  C_15
REMARK    4  A    between atoms: C_26  and  C_30
REMARK                            x       y       z     vdW  Elec       q    Type
REMARK                         _______ _______ _______ _____ _____    ______ ____
ROOT
ATOM      1  O   UNL     1      33.869 -23.792 -17.637  0.00  0.00    -0.270 OA
ATOM      2  N   UNL     1      35.126 -22.305 -16.318  0.00  0.00    -0.280 N 
ATOM      3  C   UNL     1      34.409 -22.707 -17.454  0.00  0.00    +0.249 C 
ATOM      4  H   UNL     1      35.493 -21.392 -16.342  0.00  0.00    +0.155 HD
ENDROOT
BRANCH   2  13
ATOM      5  N   UNL     1      38.545 -25.402 -12.347  0.00  0.00    -0.274 NA
ATOM      6  C   UNL     1      36.883 -24.341 -13.795  0.00  0.00    +0.010 C 
ATOM      7  C   UNL     1      38.186 -24.998 -13.520  0.00  0.00    +0.053 C 
ATOM      8  C   UNL     1      35.880 -24.498 -12.829  0.00  0.00    -0.019 C 
ATOM      9  C   UNL     1      36.177 -25.318 -11.610  0.00  0.00    +0.053 C 
ATOM     10  C   UNL     1      37.639 -25.135 -11.224  0.00  0.00    +0.130 C 
ATOM     11  C   UNL     1      36.637 -23.607 -14.958  0.00  0.00    +0.016 C 
ATOM     12  C   UNL     1      34.617 -23.938 -13.048  0.00  0.00    -0.003 C 
ATOM     13  C   UNL     1      35.378 -23.038 -15.160  0.00  0.00    +0.051 C 
ATOM     14  C   UNL     1      34.371 -23.206 -14.209  0.00  0.00    +0.014 C 
BRANCH   7  15
ATOM     15  C   UNL     1      39.145 -25.217 -14.664  0.00  0.00    +0.040 C 
ATOM     16  C   UNL     1      39.578 -23.863 -15.200  0.00  0.00    +0.006 C 
ATOM     17  C   UNL     1      40.325 -26.039 -14.177  0.00  0.00    +0.006 C 
ENDBRANCH   7  15
ENDBRANCH   2  13
BRANCH   3  18
ATOM     18  C   UNL     1      34.334 -21.703 -18.548  0.00  0.00    +0.054 C 
ATOM     19  C   UNL     1      35.439 -20.132 -19.996  0.00  0.00    +0.000 C 
ATOM     20  C   UNL     1      34.192 -19.830 -20.592  0.00  0.00    +0.000 C 
ATOM     21  C   UNL     1      35.494 -21.083 -18.963  0.00  0.00    +0.005 C 
ATOM     22  C   UNL     1      33.109 -21.427 -19.110  0.00  0.00    +0.005 C 
ATOM     23  C   UNL     1      33.035 -20.486 -20.138  0.00  0.00    +0.000 C 
ATOM     24  C   UNL     1      34.136 -18.879 -21.624  0.00  0.00    +0.003 C 
ATOM     25  C   UNL     1      36.593 -19.475 -20.450  0.00  0.00    +0.000 C 
ATOM     26  C   UNL     1      35.294 -18.236 -22.063  0.00  0.00    +0.031 C 
ATOM     27  C   UNL     1      36.521 -18.534 -21.477  0.00  0.00    +0.003 C 
BRANCH  26  30
ATOM     28  N   UNL     1      34.517 -17.515 -24.308  0.00  0.00    -0.343 N 
ATOM     29  N   UNL     1      35.834 -16.091 -23.003  0.00  0.00    -0.285 NA
ATOM     30  C   UNL     1      35.221 -17.255 -23.133  0.00  0.00    +0.117 C 
ATOM     31  H   UNL     1      34.480 -16.835 -25.020  0.00  0.00    +0.144 HD
ATOM     32  H   UNL     1      34.056 -18.377 -24.426  0.00  0.00    +0.144 HD
ATOM     33  H   UNL     1      35.786 -15.425 -23.727  0.00  0.00    +0.188 HD
ENDBRANCH  26  30
ENDBRANCH   3  18
TORSDOF 4
ENDMDL
MODEL 3
REMARK VINA RESULT:     -12.1      2.557      4.270
REMARK  Name = 447735
REMARK  4 active torsions:
REMARK  status: ('A' for Active; 'I' for Inactive)
REMARK    1  A    between atoms: N_2  and  C_13
REMARK    2  A    between atoms: C_3  and  C_18
REMARK    3  A    between atoms: C_7  and  C_15
REMARK    4  A    between atoms: C_26  and  C_30
REMARK                            x       y       z     vdW  Elec       q    Type
REMARK                         _______ _______ _______ _____ _____    ______ ____
ROOT
ATOM      1  O   UNL     1      33.806 -21.504 -19.531  0.00  0.00    -0.270 OA
ATOM      2  N   UNL     1      35.634 -20.039 -19.736  0.00  0.00    -0.280 N 
ATOM      3  C   UNL     1      34.886 -21.068 -19.148  0.00  0.00    +0.249 C 
ATOM      4  H   UNL     1      36.485 -19.817 -19.293  0.00  0.00    +0.155 HD
ENDROOT
BRANCH   2  13
ATOM      5  N   UNL     1      35.007 -14.968 -23.047  0.00  0.00    -0.274 NA
ATOM      6  C   UNL     1      35.016 -17.158 -21.954  0.00  0.00    +0.010 C 
ATOM      7  C   UNL     1      34.979 -15.673 -21.964  0.00  0.00    +0.053 C 
ATOM      8  C   UNL     1      34.704 -17.805 -23.157  0.00  0.00    -0.019 C 
ATOM      9  C   UNL     1      34.344 -16.973 -24.351  0.00  0.00    +0.053 C 
ATOM     10  C   UNL     1      35.147 -15.679 -24.322  0.00  0.00    +0.130 C 
ATOM     11  C   UNL     1      35.331 -17.898 -20.812  0.00  0.00    +0.016 C 
ATOM     12  C   UNL     1      34.682 -19.203 -23.203  0.00  0.00    -0.003 C 
ATOM     13  C   UNL     1      35.321 -19.293 -20.872  0.00  0.00    +0.051 C 
ATOM     14  C   UNL     1      34.995 -19.942 -22.063  0.00  0.00    +0.014 C 
BRANCH   7  15
ATOM     15  C   UNL     1      34.898 -14.939 -20.648  0.00  0.00    +0.040 C 
ATOM     16  C   UNL     1      34.957 -13.447 -20.920  0.00  0.00    +0.006 C 
ATOM     17  C   UNL     1      33.620 -15.338 -19.932  0.00  0.00    +0.006 C 
ENDBRANCH   7  15
ENDBRANCH   2  13
BRANCH   3  18
ATOM     18  C   UNL     1      35.474 -21.659 -17.917  0.00  0.00    +0.054 C 
ATOM     19  C   UNL     1      35.219 -23.017 -15.948  0.00  0.00    +0.000 C 
ATOM     20  C   UNL     1      36.572 -22.763 -15.619  0.00  0.00    +0.000 C 
ATOM     21  C   UNL     1      34.679 -22.451 -17.115  0.00  0.00    +0.005 C 
ATOM     22  C   UNL     1      36.791 -21.396 -17.620  0.00  0.00    +0.005 C 
ATOM     23  C   UNL     1      37.345 -21.951 -16.465  0.00  0.00    +0.000 C 
ATOM     24  C   UNL     1      37.113 -23.329 -14.452  0.00  0.00    +0.003 C 
ATOM     25  C   UNL     1      34.448 -23.828 -15.102  0.00  0.00    +0.000 C 
ATOM     26  C   UNL     1      36.331 -24.133 -13.623  0.00  0.00    +0.031 C 
ATOM     27  C   UNL     1      35.000 -24.382 -13.947  0.00  0.00    +0.003 C 
BRANCH  26  30
ATOM     28  N   UNL     1      38.064 -24.192 -11.847  0.00  0.00    -0.343 N 
ATOM     29  N   UNL     1      36.327 -25.755 -11.850  0.00  0.00    -0.285 NA
ATOM     30  C   UNL     1      36.905 -24.712 -12.419  0.00  0.00    +0.117 C 
ATOM     31  H   UNL     1      38.436 -24.601 -11.031  0.00  0.00    +0.144 HD
ATOM     32  H   UNL     1      38.512 -23.418 -12.258  0.00  0.00    +0.144 HD
ATOM     33  H   UNL     1      36.714 -26.150 -11.035  0.00  0.00    +0.188 HD
ENDBRANCH  26  30
ENDBRANCH   3  18
TORSDOF 4
ENDMDL
MODEL 4
REMARK VINA RESULT:     -12.0      4.846      8.447
REMARK  Name = 447735
REMARK  4 active torsions:
REMARK  status: ('A' for Active; 'I' for Inactive)
REMARK    1  A    between atoms: N_2  and  C_13
REMARK    2  A    between atoms: C_3  and  C_18
REMARK    3  A    between atoms: C_7  and  C_15
REMARK    4  A    between atoms: C_26  and  C_30
REMARK                            x       y       z     vdW  Elec       q    Type
REMARK                         _______ _______ _______ _____ _____    ______ ____
ROOT
ATOM      1  O   UNL     1      34.854  -9.650 -24.235  0.00  0.00    -0.270 OA
ATOM      2  N   UNL     1      33.038  -9.811 -22.749  0.00  0.00    -0.280 N 
ATOM      3  C   UNL     1      33.995 -10.300 -23.648  0.00  0.00    +0.249 C 
ATOM      4  H   UNL     1      32.423 -10.479 -22.369  0.00  0.00    +0.155 HD
ENDROOT
BRANCH   2  13
ATOM      5  N   UNL     1      32.230  -3.818 -23.448  0.00  0.00    -0.274 NA
ATOM      6  C   UNL     1      32.679  -6.142 -22.826  0.00  0.00    +0.010 C 
ATOM      7  C   UNL     1      32.703  -4.981 -23.752  0.00  0.00    +0.053 C 
ATOM      8  C   UNL     1      32.470  -5.862 -21.469  0.00  0.00    -0.019 C 
ATOM      9  C   UNL     1      32.304  -4.434 -21.045  0.00  0.00    +0.053 C 
ATOM     10  C   UNL     1      31.579  -3.664 -22.142  0.00  0.00    +0.130 C 
ATOM     11  C   UNL     1      32.865  -7.457 -23.258  0.00  0.00    +0.016 C 
ATOM     12  C   UNL     1      32.476  -6.908 -20.540  0.00  0.00    -0.003 C 
ATOM     13  C   UNL     1      32.853  -8.495 -22.325  0.00  0.00    +0.051 C 
ATOM     14  C   UNL     1      32.663  -8.221 -20.971  0.00  0.00    +0.014 C 
BRANCH   7  15
ATOM     15  C   UNL     1      33.317  -5.156 -25.120  0.00  0.00    +0.040 C 
ATOM     16  C   UNL     1      32.661  -4.174 -26.075  0.00  0.00    +0.006 C 
ATOM     17  C   UNL     1      34.817  -4.942 -25.025  0.00  0.00    +0.006 C 
ENDBRANCH   7  15
ENDBRANCH   2  13
BRANCH   3  18
ATOM     18  C   UNL     1      33.924 -11.760 -23.924  0.00  0.00    +0.054 C 
ATOM     19  C   UNL     1      34.353 -14.020 -23.226  0.00  0.00    +0.000 C 
ATOM     20  C   UNL     1      33.789 -14.484 -24.438  0.00  0.00    +0.000 C 
ATOM     21  C   UNL     1      34.413 -12.639 -22.980  0.00  0.00    +0.005 C 
ATOM     22  C   UNL     1      33.371 -12.183 -25.110  0.00  0.00    +0.005 C 
ATOM     23  C   UNL     1      33.302 -13.552 -25.371  0.00  0.00    +0.000 C 
ATOM     24  C   UNL     1      33.729 -15.865 -24.683  0.00  0.00    +0.003 C 
ATOM     25  C   UNL     1      34.839 -14.952 -22.295  0.00  0.00    +0.000 C 
ATOM     26  C   UNL     1      34.217 -16.777 -23.746  0.00  0.00    +0.031 C 
ATOM     27  C   UNL     1      34.771 -16.321 -22.554  0.00  0.00    +0.003 C 
BRANCH  26  30
ATOM     28  N   UNL     1      34.961 -19.110 -23.340  0.00  0.00    -0.343 N 
ATOM     29  N   UNL     1      33.298 -18.663 -24.919  0.00  0.00    -0.285 NA
ATOM     30  C   UNL     1      34.146 -18.204 -24.015  0.00  0.00    +0.117 C 
ATOM     31  H   UNL     1      34.897 -20.073 -23.538  0.00  0.00    +0.144 HD
ATOM     32  H   UNL     1      35.602 -18.789 -22.665  0.00  0.00    +0.144 HD
ATOM     33  H   UNL     1      33.249 -19.629 -25.103  0.00  0.00    +0.188 HD
ENDBRANCH  26  30
ENDBRANCH   3  18
TORSDOF 4
ENDMDL
MODEL 5
REMARK VINA RESULT:     -11.7      4.184      7.881
REMARK  Name = 447735
REMARK  4 active torsions:
REMARK  status: ('A' for Active; 'I' for Inactive)
REMARK    1  A    between atoms: N_2  and  C_13
REMARK    2  A    between atoms: C_3  and  C_18
REMARK    3  A    between atoms: C_7  and  C_15
REMARK    4  A    between atoms: C_26  and  C_30
REMARK                            x       y       z     vdW  Elec       q    Type
REMARK                         _______ _______ _______ _____ _____    ______ ____
ROOT
ATOM      1  O   UNL     1      31.230 -10.955 -21.294  0.00  0.00    -0.270 OA
ATOM      2  N   UNL     1      33.089  -9.792 -22.144  0.00  0.00    -0.280 N 
ATOM      3  C   UNL     1      32.339 -10.930 -21.817  0.00  0.00    +0.249 C 
ATOM      4  H   UNL     1      33.965  -9.959 -22.562  0.00  0.00    +0.155 HD
ENDROOT
BRANCH   2  13
ATOM      5  N   UNL     1      32.047  -4.035 -23.827  0.00  0.00    -0.274 NA
ATOM      6  C   UNL     1      32.519  -6.210 -22.809  0.00  0.00    +0.010 C 
ATOM      7  C   UNL     1      32.640  -5.182 -23.874  0.00  0.00    +0.053 C 
ATOM      8  C   UNL     1      32.046  -5.776 -21.563  0.00  0.00    -0.019 C 
ATOM      9  C   UNL     1      31.714  -4.325 -21.384  0.00  0.00    +0.053 C 
ATOM     10  C   UNL     1      31.157  -3.772 -22.690  0.00  0.00    +0.130 C 
ATOM     11  C   UNL     1      32.864  -7.549 -23.008  0.00  0.00    +0.016 C 
ATOM     12  C   UNL     1      31.946  -6.688 -20.508  0.00  0.00    -0.003 C 
ATOM     13  C   UNL     1      32.746  -8.454 -21.953  0.00  0.00    +0.051 C 
ATOM     14  C   UNL     1      32.292  -8.024 -20.706  0.00  0.00    +0.014 C 
BRANCH   7  15
ATOM     15  C   UNL     1      33.506  -5.478 -25.074  0.00  0.00    +0.040 C 
ATOM     16  C   UNL     1      32.988  -4.676 -26.255  0.00  0.00    +0.006 C 
ATOM     17  C   UNL     1      34.949  -5.139 -24.746  0.00  0.00    +0.006 C 
ENDBRANCH   7  15
ENDBRANCH   2  13
BRANCH   3  18
ATOM     18  C   UNL     1      32.990 -12.232 -22.121  0.00  0.00    +0.054 C 
ATOM     19  C   UNL     1      34.070 -14.236 -21.348  0.00  0.00    +0.000 C 
ATOM     20  C   UNL     1      34.202 -14.663 -22.690  0.00  0.00    +0.000 C 
ATOM     21  C   UNL     1      33.452 -13.004 -21.076  0.00  0.00    +0.005 C 
ATOM     22  C   UNL     1      33.106 -12.622 -23.435  0.00  0.00    +0.005 C 
ATOM     23  C   UNL     1      33.716 -13.844 -23.724  0.00  0.00    +0.000 C 
ATOM     24  C   UNL     1      34.820 -15.895 -22.962  0.00  0.00    +0.003 C 
ATOM     25  C   UNL     1      34.557 -15.055 -20.317  0.00  0.00    +0.000 C 
ATOM     26  C   UNL     1      35.298 -16.696 -21.924  0.00  0.00    +0.031 C 
ATOM     27  C   UNL     1      35.167 -16.276 -20.604  0.00  0.00    +0.003 C 
BRANCH  26  30
ATOM     28  N   UNL     1      37.260 -18.216 -21.875  0.00  0.00    -0.343 N 
ATOM     29  N   UNL     1      35.249 -18.918 -22.836  0.00  0.00    -0.285 NA
ATOM     30  C   UNL     1      35.933 -17.969 -22.221  0.00  0.00    +0.117 C 
ATOM     31  H   UNL     1      37.670 -19.086 -22.087  0.00  0.00    +0.144 HD
ATOM     32  H   UNL     1      37.788 -17.520 -21.420  0.00  0.00    +0.144 HD
ATOM     33  H   UNL     1      35.677 -19.782 -23.039  0.00  0.00    +0.188 HD
ENDBRANCH  26  30
ENDBRANCH   3  18
TORSDOF 4
ENDMDL
MODEL 6
REMARK VINA RESULT:     -11.7      3.479     11.623
REMARK  Name = 447735
REMARK  4 active torsions:
REMARK  status: ('A' for Active; 'I' for Inactive)
REMARK    1  A    between atoms: N_2  and  C_13
REMARK    2  A    between atoms: C_3  and  C_18
REMARK    3  A    between atoms: C_7  and  C_15
REMARK    4  A    between atoms: C_26  and  C_30
REMARK                            x       y       z     vdW  Elec       q    Type
REMARK                         _______ _______ _______ _____ _____    ______ ____
ROOT
ATOM      1  O   UNL     1      34.516 -23.234 -17.383  0.00  0.00    -0.270 OA
ATOM      2  N   UNL     1      36.524 -22.125 -16.866  0.00  0.00    -0.280 N 
ATOM      3  C   UNL     1      35.332 -22.339 -17.572  0.00  0.00    +0.249 C 
ATOM      4  H   UNL     1      37.062 -21.353 -17.153  0.00  0.00    +0.155 HD
ENDROOT
BRANCH   2  13
ATOM      5  N   UNL     1      36.259 -25.395 -11.738  0.00  0.00    -0.274 NA
ATOM      6  C   UNL     1      36.721 -24.018 -13.707  0.00  0.00    +0.010 C 
ATOM      7  C   UNL     1      35.898 -24.459 -12.552  0.00  0.00    +0.053 C 
ATOM      8  C   UNL     1      38.075 -24.375 -13.690  0.00  0.00    -0.019 C 
ATOM      9  C   UNL     1      38.601 -25.152 -12.521  0.00  0.00    +0.053 C 
ATOM     10  C   UNL     1      37.518 -26.096 -12.016  0.00  0.00    +0.130 C 
ATOM     11  C   UNL     1      36.198 -23.271 -14.766  0.00  0.00    +0.016 C 
ATOM     12  C   UNL     1      38.912 -23.956 -14.729  0.00  0.00    -0.003 C 
ATOM     13  C   UNL     1      37.038 -22.871 -15.806  0.00  0.00    +0.051 C 
ATOM     14  C   UNL     1      38.391 -23.209 -15.786  0.00  0.00    +0.014 C 
BRANCH   7  15
ATOM     15  C   UNL     1      34.573 -23.781 -12.302  0.00  0.00    +0.040 C 
ATOM     16  C   UNL     1      33.470 -24.634 -12.904  0.00  0.00    +0.006 C 
ATOM     17  C   UNL     1      34.388 -23.582 -10.809  0.00  0.00    +0.006 C 
ENDBRANCH   7  15
ENDBRANCH   2  13
BRANCH   3  18
ATOM     18  C   UNL     1      35.066 -21.382 -18.678  0.00  0.00    +0.054 C 
ATOM     19  C   UNL     1      35.885 -19.759 -20.252  0.00  0.00    +0.000 C 
ATOM     20  C   UNL     1      34.568 -19.596 -20.744  0.00  0.00    +0.000 C 
ATOM     21  C   UNL     1      36.120 -20.667 -19.207  0.00  0.00    +0.005 C 
ATOM     22  C   UNL     1      33.776 -21.243 -19.137  0.00  0.00    +0.005 C 
ATOM     23  C   UNL     1      33.524 -20.345 -20.176  0.00  0.00    +0.000 C 
ATOM     24  C   UNL     1      34.332 -18.688 -21.789  0.00  0.00    +0.003 C 
ATOM     25  C   UNL     1      36.927 -19.009 -20.820  0.00  0.00    +0.000 C 
ATOM     26  C   UNL     1      35.381 -17.951 -22.342  0.00  0.00    +0.031 C 
ATOM     27  C   UNL     1      36.676 -18.111 -21.858  0.00  0.00    +0.003 C 
BRANCH  26  30
ATOM     28  N   UNL     1      34.247 -17.332 -24.462  0.00  0.00    -0.343 N 
ATOM     29  N   UNL     1      35.723 -15.839 -23.435  0.00  0.00    -0.285 NA
ATOM     30  C   UNL     1      35.121 -17.015 -23.424  0.00  0.00    +0.117 C 
ATOM     31  H   UNL     1      34.086 -16.683 -25.185  0.00  0.00    +0.144 HD
ATOM     32  H   UNL     1      33.791 -18.204 -24.473  0.00  0.00    +0.144 HD
ATOM     33  H   UNL     1      35.549 -15.203 -24.168  0.00  0.00    +0.188 HD
ENDBRANCH  26  30
ENDBRANCH   3  18
TORSDOF 4
ENDMDL
MODEL 7
REMARK VINA RESULT:     -11.5      3.129     10.841
REMARK  Name = 447735
REMARK  4 active torsions:
REMARK  status: ('A' for Active; 'I' for Inactive)
REMARK    1  A    between atoms: N_2  and  C_13
REMARK    2  A    between atoms: C_3  and  C_18
REMARK    3  A    between atoms: C_7  and  C_15
REMARK    4  A    between atoms: C_26  and  C_30
REMARK                            x       y       z     vdW  Elec       q    Type
REMARK                         _______ _______ _______ _____ _____    ______ ____
ROOT
ATOM      1  O   UNL     1      35.165 -22.524 -19.191  0.00  0.00    -0.270 OA
ATOM      2  N   UNL     1      36.353 -21.138 -17.709  0.00  0.00    -0.280 N 
ATOM      3  C   UNL     1      35.700 -21.459 -18.907  0.00  0.00    +0.249 C 
ATOM      4  H   UNL     1      36.727 -20.230 -17.652  0.00  0.00    +0.155 HD
ENDROOT
BRANCH   2  13
ATOM      5  N   UNL     1      34.605 -24.740 -13.123  0.00  0.00    -0.274 NA
ATOM      6  C   UNL     1      35.615 -23.233 -14.765  0.00  0.00    +0.010 C 
ATOM      7  C   UNL     1      34.488 -23.755 -13.952  0.00  0.00    +0.053 C 
ATOM      8  C   UNL     1      36.908 -23.580 -14.350  0.00  0.00    -0.019 C 
ATOM      9  C   UNL     1      37.067 -24.428 -13.124  0.00  0.00    +0.053 C 
ATOM     10  C   UNL     1      35.907 -25.411 -13.038  0.00  0.00    +0.130 C 
ATOM     11  C   UNL     1      35.426 -22.422 -15.887  0.00  0.00    +0.016 C 
ATOM     12  C   UNL     1      38.013 -23.087 -15.050  0.00  0.00    -0.003 C 
ATOM     13  C   UNL     1      36.535 -21.948 -16.588  0.00  0.00    +0.051 C 
ATOM     14  C   UNL     1      37.824 -22.277 -16.169  0.00  0.00    +0.014 C 
BRANCH   7  15
ATOM     15  C   UNL     1      33.133 -23.105 -14.086  0.00  0.00    +0.040 C 
ATOM     16  C   UNL     1      32.505 -23.558 -15.392  0.00  0.00    +0.006 C 
ATOM     17  C   UNL     1      32.280 -23.477 -12.886  0.00  0.00    +0.006 C 
ENDBRANCH   7  15
ENDBRANCH   2  13
BRANCH   3  18
ATOM     18  C   UNL     1      35.694 -20.385 -19.936  0.00  0.00    +0.054 C 
ATOM     19  C   UNL     1      34.677 -19.377 -21.868  0.00  0.00    +0.000 C 
ATOM     20  C   UNL     1      35.681 -18.379 -21.855  0.00  0.00    +0.000 C 
ATOM     21  C   UNL     1      34.697 -20.384 -20.889  0.00  0.00    +0.005 C 
ATOM     22  C   UNL     1      36.681 -19.428 -19.901  0.00  0.00    +0.005 C 
ATOM     23  C   UNL     1      36.677 -18.419 -20.865  0.00  0.00    +0.000 C 
ATOM     24  C   UNL     1      35.661 -17.372 -22.833  0.00  0.00    +0.003 C 
ATOM     25  C   UNL     1      33.682 -19.336 -22.858  0.00  0.00    +0.000 C 
ATOM     26  C   UNL     1      34.664 -17.347 -23.810  0.00  0.00    +0.031 C 
ATOM     27  C   UNL     1      33.677 -18.328 -23.822  0.00  0.00    +0.003 C 
BRANCH  26  30
ATOM     28  N   UNL     1      35.708 -15.389 -24.923  0.00  0.00    -0.343 N 
ATOM     29  N   UNL     1      33.635 -16.190 -25.647  0.00  0.00    -0.285 NA
ATOM     30  C   UNL     1      34.657 -16.297 -24.815  0.00  0.00    +0.117 C 
ATOM     31  H   UNL     1      35.682 -14.686 -25.612  0.00  0.00    +0.144 HD
ATOM     32  H   UNL     1      36.476 -15.450 -24.311  0.00  0.00    +0.144 HD
ATOM     33  H   UNL     1      33.628 -15.479 -26.329  0.00  0.00    +0.188 HD
ENDBRANCH  26  30
ENDBRANCH   3  18
TORSDOF 4
ENDMDL
MODEL 8
REMARK VINA RESULT:     -11.4      2.430     10.555
REMARK  Name = 447735
REMARK  4 active torsions:
REMARK  status: ('A' for Active; 'I' for Inactive)
REMARK    1  A    between atoms: N_2  and  C_13
REMARK    2  A    between atoms: C_3  and  C_18
REMARK    3  A    between atoms: C_7  and  C_15
REMARK    4  A    between atoms: C_26  and  C_30
REMARK                            x       y       z     vdW  Elec       q    Type
REMARK                         _______ _______ _______ _____ _____    ______ ____
ROOT
ATOM      1  O   UNL     1      37.564 -19.620 -19.294  0.00  0.00    -0.270 OA
ATOM      2  N   UNL     1      35.516 -20.711 -18.916  0.00  0.00    -0.280 N 
ATOM      3  C   UNL     1      36.394 -19.845 -19.581  0.00  0.00    +0.249 C 
ATOM      4  H   UNL     1      34.606 -20.771 -19.286  0.00  0.00    +0.155 HD
ENDROOT
BRANCH   2  13
ATOM      5  N   UNL     1      34.113 -24.409 -14.287  0.00  0.00    -0.274 NA
ATOM      6  C   UNL     1      34.983 -22.840 -15.952  0.00  0.00    +0.010 C 
ATOM      7  C   UNL     1      33.911 -23.439 -15.117  0.00  0.00    +0.053 C 
ATOM      8  C   UNL     1      36.304 -23.091 -15.559  0.00  0.00    -0.019 C 
ATOM      9  C   UNL     1      36.546 -23.919 -14.333  0.00  0.00    +0.053 C 
ATOM     10  C   UNL     1      35.462 -24.983 -14.223  0.00  0.00    +0.130 C 
ATOM     11  C   UNL     1      34.716 -22.051 -17.073  0.00  0.00    +0.016 C 
ATOM     12  C   UNL     1      37.359 -22.522 -16.280  0.00  0.00    -0.003 C 
ATOM     13  C   UNL     1      35.775 -21.501 -17.796  0.00  0.00    +0.051 C 
ATOM     14  C   UNL     1      37.092 -21.733 -17.399  0.00  0.00    +0.014 C 
BRANCH   7  15
ATOM     15  C   UNL     1      32.510 -22.889 -15.229  0.00  0.00    +0.040 C 
ATOM     16  C   UNL     1      31.731 -23.743 -16.213  0.00  0.00    +0.006 C 
ATOM     17  C   UNL     1      31.867 -22.875 -13.854  0.00  0.00    +0.006 C 
ENDBRANCH   7  15
ENDBRANCH   2  13
BRANCH   3  18
ATOM     18  C   UNL     1      35.812 -19.113 -20.738  0.00  0.00    +0.054 C 
ATOM     19  C   UNL     1      35.203 -17.031 -21.776  0.00  0.00    +0.000 C 
ATOM     20  C   UNL     1      34.728 -17.749 -22.899  0.00  0.00    +0.000 C 
ATOM     21  C   UNL     1      35.750 -17.736 -20.691  0.00  0.00    +0.005 C 
ATOM     22  C   UNL     1      35.357 -19.836 -21.817  0.00  0.00    +0.005 C 
ATOM     23  C   UNL     1      34.812 -19.152 -22.904  0.00  0.00    +0.000 C 
ATOM     24  C   UNL     1      34.181 -17.044 -23.983  0.00  0.00    +0.003 C 
ATOM     25  C   UNL     1      35.119 -15.630 -21.771  0.00  0.00    +0.000 C 
ATOM     26  C   UNL     1      34.105 -15.651 -23.962  0.00  0.00    +0.031 C 
ATOM     27  C   UNL     1      34.573 -14.945 -22.857  0.00  0.00    +0.003 C 
BRANCH  26  30
ATOM     28  N   UNL     1      32.670 -13.861 -24.910  0.00  0.00    -0.343 N 
ATOM     29  N   UNL     1      33.840 -15.306 -26.325  0.00  0.00    -0.285 NA
ATOM     30  C   UNL     1      33.537 -14.936 -25.093  0.00  0.00    +0.117 C 
ATOM     31  H   UNL     1      32.297 -13.391 -25.691  0.00  0.00    +0.144 HD
ATOM     32  H   UNL     1      32.430 -13.571 -24.000  0.00  0.00    +0.144 HD
ATOM     33  H   UNL     1      33.456 -14.824 -27.093  0.00  0.00    +0.188 HD
ENDBRANCH  26  30
ENDBRANCH   3  18
TORSDOF 4
ENDMDL
MODEL 9
REMARK VINA RESULT:     -11.3      2.130      3.752
REMARK  Name = 447735
REMARK  4 active torsions:
REMARK  status: ('A' for Active; 'I' for Inactive)
REMARK    1  A    between atoms: N_2  and  C_13
REMARK    2  A    between atoms: C_3  and  C_18
REMARK    3  A    between atoms: C_7  and  C_15
REMARK    4  A    between atoms: C_26  and  C_30
REMARK                            x       y       z     vdW  Elec       q    Type
REMARK                         _______ _______ _______ _____ _____    ______ ____
ROOT
ATOM      1  O   UNL     1      37.162 -19.786 -20.084  0.00  0.00    -0.270 OA
ATOM      2  N   UNL     1      34.857 -19.741 -20.546  0.00  0.00    -0.280 N 
ATOM      3  C   UNL     1      36.008 -20.122 -19.843  0.00  0.00    +0.249 C 
ATOM      4  H   UNL     1      34.007 -20.106 -20.211  0.00  0.00    +0.155 HD
ENDROOT
BRANCH   2  13
ATOM      5  N   UNL     1      34.643 -14.411 -23.481  0.00  0.00    -0.274 NA
ATOM      6  C   UNL     1      34.564 -16.695 -22.604  0.00  0.00    +0.010 C 
ATOM      7  C   UNL     1      34.411 -15.221 -22.501  0.00  0.00    +0.053 C 
ATOM      8  C   UNL     1      34.605 -17.236 -23.896  0.00  0.00    -0.019 C 
ATOM      9  C   UNL     1      34.479 -16.312 -25.069  0.00  0.00    +0.053 C 
ATOM     10  C   UNL     1      35.144 -14.983 -24.736  0.00  0.00    +0.130 C 
ATOM     11  C   UNL     1      34.652 -17.525 -21.485  0.00  0.00    +0.016 C 
ATOM     12  C   UNL     1      34.707 -18.621 -24.060  0.00  0.00    -0.003 C 
ATOM     13  C   UNL     1      34.769 -18.905 -21.659  0.00  0.00    +0.051 C 
ATOM     14  C   UNL     1      34.793 -19.451 -22.942  0.00  0.00    +0.014 C 
BRANCH   7  15
ATOM     15  C   UNL     1      33.956 -14.627 -21.190  0.00  0.00    +0.040 C 
ATOM     16  C   UNL     1      35.180 -14.233 -20.384  0.00  0.00    +0.006 C 
ATOM     17  C   UNL     1      33.051 -13.440 -21.467  0.00  0.00    +0.006 C 
ENDBRANCH   7  15
ENDBRANCH   2  13
BRANCH   3  18
ATOM     18  C   UNL     1      35.781 -21.053 -18.706  0.00  0.00    +0.054 C 
ATOM     19  C   UNL     1      36.573 -22.074 -16.678  0.00  0.00    +0.000 C 
ATOM     20  C   UNL     1      35.356 -22.789 -16.583  0.00  0.00    +0.000 C 
ATOM     21  C   UNL     1      36.772 -21.198 -17.758  0.00  0.00    +0.005 C 
ATOM     22  C   UNL     1      34.590 -21.737 -18.638  0.00  0.00    +0.005 C 
ATOM     23  C   UNL     1      34.374 -22.610 -17.571  0.00  0.00    +0.000 C 
ATOM     24  C   UNL     1      35.157 -23.665 -15.503  0.00  0.00    +0.003 C 
ATOM     25  C   UNL     1      37.554 -22.254 -15.690  0.00  0.00    +0.000 C 
ATOM     26  C   UNL     1      36.143 -23.832 -14.530  0.00  0.00    +0.031 C 
ATOM     27  C   UNL     1      37.340 -23.127 -14.624  0.00  0.00    +0.003 C 
BRANCH  26  30
ATOM     28  N   UNL     1      34.697 -24.791 -12.755  0.00  0.00    -0.343 N 
ATOM     29  N   UNL     1      36.896 -25.539 -13.015  0.00  0.00    -0.285 NA
ATOM     30  C   UNL     1      35.921 -24.741 -13.418  0.00  0.00    +0.117 C 
ATOM     31  H   UNL     1      34.569 -25.415 -12.004  0.00  0.00    +0.144 HD
ATOM     32  H   UNL     1      33.960 -24.203 -13.037  0.00  0.00    +0.144 HD
ATOM     33  H   UNL     1      36.748 -26.156 -12.262  0.00  0.00    +0.188 HD
ENDBRANCH  26  30
ENDBRANCH   3  18
TORSDOF 4
ENDMDL
