MODEL 1
REMARK VINA RESULT:     -12.3      0.000      0.000
REMARK  Name = 446129
REMARK  7 active torsions:
REMARK  status: ('A' for Active; 'I' for Inactive)
REMARK    1  A    between atoms: C_1  and  O_2
REMARK    2  A    between atoms: C_1  and  C_4
REMARK    3  A    between atoms: C_1  and  C_18
REMARK    4  A    between atoms: C_4  and  N_5
REMARK    5  A    between atoms: C_18  and  O_19
REMARK    6  A    between atoms: O_19  and  C_23
REMARK    7  A    between atoms: C_20  and  C_26
REMARK                            x       y       z     vdW  Elec       q    Type
REMARK                         _______ _______ _______ _____ _____    ______ ____
ROOT
ATOM      1  C   UNL     1      33.667 -14.454 -25.010  0.00  0.00    +0.133 C 
ENDROOT
BRANCH   1   2
ATOM      2  O   UNL     1      32.353 -14.128 -25.469  0.00  0.00    -0.383 OA
ATOM      3  H   UNL     1      31.760 -14.880 -25.313  0.00  0.00    +0.210 HD
ENDBRANCH   1   2
BRANCH   1   4
ATOM      4  C   UNL     1      33.831 -13.895 -23.595  0.00  0.00    -0.043 C 
BRANCH   4   5
ATOM      5  N   UNL     1      33.206 -12.581 -23.446  0.00  0.00    +0.391 N 
ATOM      6  N   UNL     1      32.970  -9.898 -22.497  0.00  0.00    -0.298 N 
ATOM      7  C   UNL     1      34.086 -11.529 -23.968  0.00  0.00    -0.055 C 
ATOM      8  C   UNL     1      32.892 -12.318 -22.036  0.00  0.00    -0.055 C 
ATOM      9  C   UNL     1      33.419 -10.155 -23.869  0.00  0.00    +0.069 C 
ATOM     10  C   UNL     1      32.185 -10.970 -21.873  0.00  0.00    +0.069 C 
ATOM     11  H   UNL     1      32.337 -12.581 -23.982  0.00  0.00    -0.079 HD
ATOM     12  N   UNL     1      31.496  -8.216 -21.635  0.00  0.00    -0.229 NA
ATOM     13  C   UNL     1      32.737  -8.583 -22.078  0.00  0.00    +0.132 C 
ATOM     14  C   UNL     1      33.799  -7.668 -22.125  0.00  0.00    +0.034 C 
ATOM     15  C   UNL     1      33.583  -6.358 -21.712  0.00  0.00    +0.004 C 
ATOM     16  C   UNL     1      31.323  -6.933 -21.242  0.00  0.00    +0.100 C 
ATOM     17  C   UNL     1      32.325  -5.976 -21.261  0.00  0.00    +0.021 C 
ENDBRANCH   4   5
ENDBRANCH   1   4
BRANCH   1  18
ATOM     18  C   UNL     1      33.850 -15.969 -25.086  0.00  0.00    +0.232 C 
BRANCH  18  19
ATOM     19  O   UNL     1      35.062 -16.320 -24.427  0.00  0.00    -0.473 OA
BRANCH  19  23
ATOM     20  C   UNL     1      34.748 -18.890 -21.183  0.00  0.00    -0.022 C 
ATOM     21  C   UNL     1      34.297 -19.295 -22.439  0.00  0.00    -0.001 C 
ATOM     22  C   UNL     1      35.304 -17.622 -21.017  0.00  0.00    -0.001 C 
ATOM     23  C   UNL     1      34.958 -17.168 -23.357  0.00  0.00    +0.139 C 
ATOM     24  C   UNL     1      34.403 -18.432 -23.529  0.00  0.00    +0.037 C 
ATOM     25  C   UNL     1      35.408 -16.758 -22.107  0.00  0.00    +0.037 C 
BRANCH  20  26
ATOM     26  C   UNL     1      34.632 -19.829 -19.997  0.00  0.00    +0.022 C 
ATOM     27  C   UNL     1      33.269 -20.543 -19.961  0.00  0.00    +0.004 C 
ATOM     28  C   UNL     1      35.786 -20.845 -19.956  0.00  0.00    +0.004 C 
ATOM     29  C   UNL     1      33.159 -21.479 -18.758  0.00  0.00    +0.000 C 
ATOM     30  C   UNL     1      35.666 -21.780 -18.753  0.00  0.00    +0.000 C 
ATOM     31  C   UNL     1      34.311 -22.479 -18.717  0.00  0.00    +0.000 C 
ENDBRANCH  20  26
ENDBRANCH  19  23
ENDBRANCH  18  19
ENDBRANCH   1  18
TORSDOF 7
ENDMDL
MODEL 2
REMARK VINA RESULT:     -12.2      2.637     10.512
REMARK  Name = 446129
REMARK  7 active torsions:
REMARK  status: ('A' for Active; 'I' for Inactive)
REMARK    1  A    between atoms: C_1  and  O_2
REMARK    2  A    between atoms: C_1  and  C_4
REMARK    3  A    between atoms: C_1  and  C_18
REMARK    4  A    between atoms: C_4  and  N_5
REMARK    5  A    between atoms: C_18  and  O_19
REMARK    6  A    between atoms: O_19  and  C_23
REMARK    7  A    between atoms: C_20  and  C_26
REMARK                            x       y       z     vdW  Elec       q    Type
REMARK                         _______ _______ _______ _____ _____    ______ ____
ROOT
ATOM      1  C   UNL     1      33.770 -15.596 -24.467  0.00  0.00    +0.133 C 
ENDROOT
BRANCH   1   2
ATOM      2  O   UNL     1      33.853 -15.813 -25.878  0.00  0.00    -0.383 OA
ATOM      3  H   UNL     1      32.960 -15.875 -26.250  0.00  0.00    +0.210 HD
ENDBRANCH   1   2
BRANCH   1   4
ATOM      4  C   UNL     1      35.186 -15.668 -23.889  0.00  0.00    -0.043 C 
BRANCH   4   5
ATOM      5  N   UNL     1      35.420 -16.914 -23.161  0.00  0.00    +0.391 N 
ATOM      6  N   UNL     1      34.899 -18.929 -21.204  0.00  0.00    -0.298 N 
ATOM      7  C   UNL     1      34.281 -17.826 -23.319  0.00  0.00    -0.055 C 
ATOM      8  C   UNL     1      35.649 -16.642 -21.736  0.00  0.00    -0.055 C 
ATOM      9  C   UNL     1      34.539 -19.156 -22.607  0.00  0.00    +0.069 C 
ATOM     10  C   UNL     1      35.953 -17.933 -20.972  0.00  0.00    +0.069 C 
ATOM     11  H   UNL     1      36.254 -17.357 -23.549  0.00  0.00    -0.079 HD
ATOM     12  N   UNL     1      35.848 -20.418 -19.583  0.00  0.00    -0.229 NA
ATOM     13  C   UNL     1      34.757 -19.964 -20.274  0.00  0.00    +0.132 C 
ATOM     14  C   UNL     1      33.483 -20.514 -20.075  0.00  0.00    +0.034 C 
ATOM     15  C   UNL     1      33.326 -21.544 -19.155  0.00  0.00    +0.004 C 
ATOM     16  C   UNL     1      35.657 -21.421 -18.696  0.00  0.00    +0.100 C 
ATOM     17  C   UNL     1      34.428 -22.012 -18.448  0.00  0.00    +0.021 C 
ENDBRANCH   4   5
ENDBRANCH   1   4
BRANCH   1  18
ATOM     18  C   UNL     1      33.084 -14.254 -24.219  0.00  0.00    +0.232 C 
BRANCH  18  19
ATOM     19  O   UNL     1      33.305 -13.868 -22.866  0.00  0.00    -0.473 OA
BRANCH  19  23
ATOM     20  C   UNL     1      32.253  -9.986 -21.839  0.00  0.00    -0.022 C 
ATOM     21  C   UNL     1      33.085 -10.216 -22.934  0.00  0.00    -0.001 C 
ATOM     22  C   UNL     1      31.775 -11.060 -21.089  0.00  0.00    -0.001 C 
ATOM     23  C   UNL     1      32.958 -12.587 -22.527  0.00  0.00    +0.139 C 
ATOM     24  C   UNL     1      33.439 -11.520 -23.280  0.00  0.00    +0.037 C 
ATOM     25  C   UNL     1      32.129 -12.364 -21.433  0.00  0.00    +0.037 C 
BRANCH  20  26
ATOM     26  C   UNL     1      31.870  -8.567 -21.463  0.00  0.00    +0.022 C 
ATOM     27  C   UNL     1      33.071  -7.771 -20.924  0.00  0.00    +0.004 C 
ATOM     28  C   UNL     1      31.199  -7.826 -22.633  0.00  0.00    +0.004 C 
ATOM     29  C   UNL     1      32.673  -6.347 -20.541  0.00  0.00    +0.000 C 
ATOM     30  C   UNL     1      30.808  -6.402 -22.243  0.00  0.00    +0.000 C 
ATOM     31  C   UNL     1      32.000  -5.619 -21.701  0.00  0.00    +0.000 C 
ENDBRANCH  20  26
ENDBRANCH  19  23
ENDBRANCH  18  19
ENDBRANCH   1  18
TORSDOF 7
ENDMDL
MODEL 3
REMARK VINA RESULT:     -11.9      2.971      5.654
REMARK  Name = 446129
REMARK  7 active torsions:
REMARK  status: ('A' for Active; 'I' for Inactive)
REMARK    1  A    between atoms: C_1  and  O_2
REMARK    2  A    between atoms: C_1  and  C_4
REMARK    3  A    between atoms: C_1  and  C_18
REMARK    4  A    between atoms: C_4  and  N_5
REMARK    5  A    between atoms: C_18  and  O_19
REMARK    6  A    between atoms: O_19  and  C_23
REMARK    7  A    between atoms: C_20  and  C_26
REMARK                            x       y       z     vdW  Elec       q    Type
REMARK                         _______ _______ _______ _____ _____    ______ ____
ROOT
ATOM      1  C   UNL     1      36.162 -18.466 -20.963  0.00  0.00    +0.133 C 
ENDROOT
BRANCH   1   2
ATOM      2  O   UNL     1      37.557 -18.730 -20.795  0.00  0.00    -0.383 OA
ATOM      3  H   UNL     1      38.072 -18.089 -21.309  0.00  0.00    +0.210 HD
ENDBRANCH   1   2
BRANCH   1   4
ATOM      4  C   UNL     1      35.965 -17.793 -22.324  0.00  0.00    -0.043 C 
BRANCH   4   5
ATOM      5  N   UNL     1      35.631 -16.375 -22.193  0.00  0.00    +0.391 N 
ATOM      6  N   UNL     1      33.910 -14.122 -21.843  0.00  0.00    -0.298 N 
ATOM      7  C   UNL     1      35.012 -16.109 -20.889  0.00  0.00    -0.055 C 
ATOM      8  C   UNL     1      34.725 -15.958 -23.271  0.00  0.00    -0.055 C 
ATOM      9  C   UNL     1      34.709 -14.618 -20.718  0.00  0.00    +0.069 C 
ATOM     10  C   UNL     1      34.413 -14.462 -23.179  0.00  0.00    +0.069 C 
ATOM     11  H   UNL     1      36.495 -15.837 -22.264  0.00  0.00    -0.079 HD
ATOM     12  N   UNL     1      33.408 -11.879 -22.522  0.00  0.00    -0.229 NA
ATOM     13  C   UNL     1      33.165 -12.946 -21.701  0.00  0.00    +0.132 C 
ATOM     14  C   UNL     1      32.179 -12.895 -20.705  0.00  0.00    +0.034 C 
ATOM     15  C   UNL     1      31.432 -11.733 -20.551  0.00  0.00    +0.004 C 
ATOM     16  C   UNL     1      32.662 -10.765 -22.342  0.00  0.00    +0.100 C 
ATOM     17  C   UNL     1      31.671 -10.644 -21.381  0.00  0.00    +0.021 C 
ENDBRANCH   4   5
ENDBRANCH   1   4
BRANCH   1  18
ATOM     18  C   UNL     1      35.395 -19.780 -20.823  0.00  0.00    +0.232 C 
BRANCH  18  19
ATOM     19  O   UNL     1      36.112 -20.640 -19.943  0.00  0.00    -0.473 OA
BRANCH  19  23
ATOM     20  C   UNL     1      33.885 -22.653 -17.077  0.00  0.00    -0.022 C 
ATOM     21  C   UNL     1      35.249 -22.444 -16.879  0.00  0.00    -0.001 C 
ATOM     22  C   UNL     1      33.269 -22.187 -18.239  0.00  0.00    -0.001 C 
ATOM     23  C   UNL     1      35.378 -21.304 -18.998  0.00  0.00    +0.139 C 
ATOM     24  C   UNL     1      35.998 -21.767 -17.841  0.00  0.00    +0.037 C 
ATOM     25  C   UNL     1      34.018 -21.512 -19.202  0.00  0.00    +0.037 C 
BRANCH  20  26
ATOM     26  C   UNL     1      33.071 -23.391 -16.030  0.00  0.00    +0.022 C 
ATOM     27  C   UNL     1      33.716 -23.303 -14.635  0.00  0.00    +0.004 C 
ATOM     28  C   UNL     1      31.612 -22.906 -15.993  0.00  0.00    +0.004 C 
ATOM     29  C   UNL     1      32.894 -24.056 -13.591  0.00  0.00    +0.000 C 
ATOM     30  C   UNL     1      30.798 -23.660 -14.943  0.00  0.00    +0.000 C 
ATOM     31  C   UNL     1      31.445 -23.578 -13.564  0.00  0.00    +0.000 C 
ENDBRANCH  20  26
ENDBRANCH  19  23
ENDBRANCH  18  19
ENDBRANCH   1  18
TORSDOF 7
ENDMDL
MODEL 4
REMARK VINA RESULT:     -11.7      1.149      2.267
REMARK  Name = 446129
REMARK  7 active torsions:
REMARK  status: ('A' for Active; 'I' for Inactive)
REMARK    1  A    between atoms: C_1  and  O_2
REMARK    2  A    between atoms: C_1  and  C_4
REMARK    3  A    between atoms: C_1  and  C_18
REMARK    4  A    between atoms: C_4  and  N_5
REMARK    5  A    between atoms: C_18  and  O_19
REMARK    6  A    between atoms: O_19  and  C_23
REMARK    7  A    between atoms: C_20  and  C_26
REMARK                            x       y       z     vdW  Elec       q    Type
REMARK                         _______ _______ _______ _____ _____    ______ ____
ROOT
ATOM      1  C   UNL     1      33.475 -13.414 -23.439  0.00  0.00    +0.133 C 
ENDROOT
BRANCH   1   2
ATOM      2  O   UNL     1      32.731 -14.250 -24.329  0.00  0.00    -0.383 OA
ATOM      3  H   UNL     1      33.153 -15.121 -24.384  0.00  0.00    +0.210 HD
ENDBRANCH   1   2
BRANCH   1   4
ATOM      4  C   UNL     1      32.538 -12.955 -22.319  0.00  0.00    -0.043 C 
BRANCH   4   5
ATOM      5  N   UNL     1      32.749 -11.552 -21.965  0.00  0.00    +0.391 N 
ATOM      6  N   UNL     1      32.234  -8.743 -22.017  0.00  0.00    -0.298 N 
ATOM      7  C   UNL     1      31.560 -11.002 -21.303  0.00  0.00    -0.055 C 
ATOM      8  C   UNL     1      33.066 -10.762 -23.161  0.00  0.00    -0.055 C 
ATOM      9  C   UNL     1      31.789  -9.550 -20.877  0.00  0.00    +0.069 C 
ATOM     10  C   UNL     1      33.345  -9.301 -22.797  0.00  0.00    +0.069 C 
ATOM     11  H   UNL     1      33.538 -11.503 -21.320  0.00  0.00    -0.079 HD
ATOM     12  N   UNL     1      33.192  -6.547 -22.086  0.00  0.00    -0.229 NA
ATOM     13  C   UNL     1      32.090  -7.351 -21.981  0.00  0.00    +0.132 C 
ATOM     14  C   UNL     1      30.802  -6.816 -21.836  0.00  0.00    +0.034 C 
ATOM     15  C   UNL     1      30.644  -5.435 -21.798  0.00  0.00    +0.004 C 
ATOM     16  C   UNL     1      32.999  -5.209 -22.044  0.00  0.00    +0.100 C 
ATOM     17  C   UNL     1      31.757  -4.610 -21.903  0.00  0.00    +0.021 C 
ENDBRANCH   4   5
ENDBRANCH   1   4
BRANCH   1  18
ATOM     18  C   UNL     1      34.685 -14.196 -22.931  0.00  0.00    +0.232 C 
BRANCH  18  19
ATOM     19  O   UNL     1      34.797 -15.406 -23.673  0.00  0.00    -0.473 OA
BRANCH  19  23
ATOM     20  C   UNL     1      35.006 -18.926 -21.485  0.00  0.00    -0.022 C 
ATOM     21  C   UNL     1      35.359 -17.714 -20.891  0.00  0.00    -0.001 C 
ATOM     22  C   UNL     1      34.584 -18.955 -22.814  0.00  0.00    -0.001 C 
ATOM     23  C   UNL     1      34.867 -16.567 -22.952  0.00  0.00    +0.139 C 
ATOM     24  C   UNL     1      35.288 -16.531 -21.626  0.00  0.00    +0.037 C 
ATOM     25  C   UNL     1      34.515 -17.772 -23.549  0.00  0.00    +0.037 C 
BRANCH  20  26
ATOM     26  C   UNL     1      35.084 -20.213 -20.685  0.00  0.00    +0.022 C 
ATOM     27  C   UNL     1      36.324 -20.249 -19.773  0.00  0.00    +0.004 C 
ATOM     28  C   UNL     1      33.799 -20.464 -19.877  0.00  0.00    +0.004 C 
ATOM     29  C   UNL     1      36.397 -21.552 -18.979  0.00  0.00    +0.000 C 
ATOM     30  C   UNL     1      33.883 -21.766 -19.082  0.00  0.00    +0.000 C 
ATOM     31  C   UNL     1      35.117 -21.801 -18.186  0.00  0.00    +0.000 C 
ENDBRANCH  20  26
ENDBRANCH  19  23
ENDBRANCH  18  19
ENDBRANCH   1  18
TORSDOF 7
ENDMDL
MODEL 5
REMARK VINA RESULT:     -11.7      2.702     10.819
REMARK  Name = 446129
REMARK  7 active torsions:
REMARK  status: ('A' for Active; 'I' for Inactive)
REMARK    1  A    between atoms: C_1  and  O_2
REMARK    2  A    between atoms: C_1  and  C_4
REMARK    3  A    between atoms: C_1  and  C_18
REMARK    4  A    between atoms: C_4  and  N_5
REMARK    5  A    between atoms: C_18  and  O_19
REMARK    6  A    between atoms: O_19  and  C_23
REMARK    7  A    between atoms: C_20  and  C_26
REMARK                            x       y       z     vdW  Elec       q    Type
REMARK                         _______ _______ _______ _____ _____    ______ ____
ROOT
ATOM      1  C   UNL     1      33.658 -15.310 -23.957  0.00  0.00    +0.133 C 
ENDROOT
BRANCH   1   2
ATOM      2  O   UNL     1      32.875 -15.162 -25.144  0.00  0.00    -0.383 OA
ATOM      3  H   UNL     1      33.077 -14.309 -25.560  0.00  0.00    +0.210 HD
ENDBRANCH   1   2
BRANCH   1   4
ATOM      4  C   UNL     1      35.007 -15.920 -24.348  0.00  0.00    -0.043 C 
BRANCH   4   5
ATOM      5  N   UNL     1      35.339 -17.089 -23.535  0.00  0.00    +0.391 N 
ATOM      6  N   UNL     1      35.001 -18.972 -21.415  0.00  0.00    -0.298 N 
ATOM      7  C   UNL     1      34.256 -18.078 -23.586  0.00  0.00    -0.055 C 
ATOM      8  C   UNL     1      35.590 -16.693 -22.144  0.00  0.00    -0.055 C 
ATOM      9  C   UNL     1      34.617 -19.330 -22.784  0.00  0.00    +0.069 C 
ATOM     10  C   UNL     1      35.995 -17.899 -21.293  0.00  0.00    +0.069 C 
ATOM     11  H   UNL     1      36.188 -17.509 -23.915  0.00  0.00    -0.079 HD
ATOM     12  N   UNL     1      36.085 -20.270 -19.716  0.00  0.00    -0.229 NA
ATOM     13  C   UNL     1      34.950 -19.939 -20.403  0.00  0.00    +0.132 C 
ATOM     14  C   UNL     1      33.718 -20.547 -20.122  0.00  0.00    +0.034 C 
ATOM     15  C   UNL     1      33.652 -21.510 -19.121  0.00  0.00    +0.004 C 
ATOM     16  C   UNL     1      35.982 -21.211 -18.750  0.00  0.00    +0.100 C 
ATOM     17  C   UNL     1      34.801 -21.853 -18.417  0.00  0.00    +0.021 C 
ENDBRANCH   4   5
ENDBRANCH   1   4
BRANCH   1  18
ATOM     18  C   UNL     1      33.786 -13.946 -23.281  0.00  0.00    +0.232 C 
BRANCH  18  19
ATOM     19  O   UNL     1      33.790 -12.934 -24.283  0.00  0.00    -0.473 OA
BRANCH  19  23
ATOM     20  C   UNL     1      33.665  -9.001 -22.962  0.00  0.00    -0.022 C 
ATOM     21  C   UNL     1      32.826  -9.956 -22.389  0.00  0.00    -0.001 C 
ATOM     22  C   UNL     1      34.546  -9.368 -23.980  0.00  0.00    -0.001 C 
ATOM     23  C   UNL     1      33.748 -11.637 -23.848  0.00  0.00    +0.139 C 
ATOM     24  C   UNL     1      32.868 -11.278 -22.832  0.00  0.00    +0.037 C 
ATOM     25  C   UNL     1      34.587 -10.690 -24.424  0.00  0.00    +0.037 C 
BRANCH  20  26
ATOM     26  C   UNL     1      33.619  -7.564 -22.480  0.00  0.00    +0.022 C 
ATOM     27  C   UNL     1      33.152  -6.601 -23.587  0.00  0.00    +0.004 C 
ATOM     28  C   UNL     1      32.753  -7.411 -21.217  0.00  0.00    +0.004 C 
ATOM     29  C   UNL     1      33.118  -5.156 -23.093  0.00  0.00    +0.000 C 
ATOM     30  C   UNL     1      32.720  -5.962 -20.733  0.00  0.00    +0.000 C 
ATOM     31  C   UNL     1      32.266  -5.011 -21.836  0.00  0.00    +0.000 C 
ENDBRANCH  20  26
ENDBRANCH  19  23
ENDBRANCH  18  19
ENDBRANCH   1  18
TORSDOF 7
ENDMDL
MODEL 6
REMARK VINA RESULT:     -11.7      2.125      4.262
REMARK  Name = 446129
REMARK  7 active torsions:
REMARK  status: ('A' for Active; 'I' for Inactive)
REMARK    1  A    between atoms: C_1  and  O_2
REMARK    2  A    between atoms: C_1  and  C_4
REMARK    3  A    between atoms: C_1  and  C_18
REMARK    4  A    between atoms: C_4  and  N_5
REMARK    5  A    between atoms: C_18  and  O_19
REMARK    6  A    between atoms: O_19  and  C_23
REMARK    7  A    between atoms: C_20  and  C_26
REMARK                            x       y       z     vdW  Elec       q    Type
REMARK                         _______ _______ _______ _____ _____    ______ ____
ROOT
ATOM      1  C   UNL     1      35.260 -17.650 -22.470  0.00  0.00    +0.133 C 
ENDROOT
BRANCH   1   2
ATOM      2  O   UNL     1      36.675 -17.672 -22.264  0.00  0.00    -0.383 OA
ATOM      3  H   UNL     1      36.935 -16.910 -21.723  0.00  0.00    +0.210 HD
ENDBRANCH   1   2
BRANCH   1   4
ATOM      4  C   UNL     1      34.970 -16.780 -23.695  0.00  0.00    -0.043 C 
BRANCH   4   5
ATOM      5  N   UNL     1      34.770 -15.376 -23.338  0.00  0.00    +0.391 N 
ATOM      6  N   UNL     1      33.335 -13.119 -22.334  0.00  0.00    -0.298 N 
ATOM      7  C   UNL     1      34.508 -15.242 -21.900  0.00  0.00    -0.055 C 
ATOM      8  C   UNL     1      33.656 -14.804 -24.104  0.00  0.00    -0.055 C 
ATOM      9  C   UNL     1      34.353 -13.772 -21.504  0.00  0.00    +0.069 C 
ATOM     10  C   UNL     1      33.472 -13.319 -23.782  0.00  0.00    +0.069 C 
ATOM     11  H   UNL     1      35.623 -14.865 -23.567  0.00  0.00    -0.079 HD
ATOM     12  N   UNL     1      32.827 -10.795 -22.627  0.00  0.00    -0.229 NA
ATOM     13  C   UNL     1      32.725 -11.941 -21.887  0.00  0.00    +0.132 C 
ATOM     14  C   UNL     1      32.019 -11.972 -20.676  0.00  0.00    +0.034 C 
ATOM     15  C   UNL     1      31.408 -10.810 -20.219  0.00  0.00    +0.004 C 
ATOM     16  C   UNL     1      32.220  -9.685 -22.151  0.00  0.00    +0.100 C 
ATOM     17  C   UNL     1      31.505  -9.640 -20.964  0.00  0.00    +0.021 C 
ENDBRANCH   4   5
ENDBRANCH   1   4
BRANCH   1  18
ATOM     18  C   UNL     1      34.765 -19.088 -22.621  0.00  0.00    +0.232 C 
BRANCH  18  19
ATOM     19  O   UNL     1      33.817 -19.358 -21.593  0.00  0.00    -0.473 OA
BRANCH  19  23
ATOM     20  C   UNL     1      35.125 -21.668 -18.403  0.00  0.00    -0.022 C 
ATOM     21  C   UNL     1      36.049 -20.988 -19.196  0.00  0.00    -0.001 C 
ATOM     22  C   UNL     1      33.762 -21.573 -18.683  0.00  0.00    -0.001 C 
ATOM     23  C   UNL     1      34.248 -20.121 -20.542  0.00  0.00    +0.139 C 
ATOM     24  C   UNL     1      35.609 -20.212 -20.268  0.00  0.00    +0.037 C 
ATOM     25  C   UNL     1      33.323 -20.797 -19.755  0.00  0.00    +0.037 C 
BRANCH  20  26
ATOM     26  C   UNL     1      35.604 -22.514 -17.238  0.00  0.00    +0.022 C 
ATOM     27  C   UNL     1      36.818 -21.884 -16.531  0.00  0.00    +0.004 C 
ATOM     28  C   UNL     1      34.473 -22.801 -16.236  0.00  0.00    +0.004 C 
ATOM     29  C   UNL     1      37.297 -22.747 -15.366  0.00  0.00    +0.000 C 
ATOM     30  C   UNL     1      34.961 -23.661 -15.071  0.00  0.00    +0.000 C 
ATOM     31  C   UNL     1      36.169 -23.037 -14.379  0.00  0.00    +0.000 C 
ENDBRANCH  20  26
ENDBRANCH  19  23
ENDBRANCH  18  19
ENDBRANCH   1  18
TORSDOF 7
ENDMDL
MODEL 7
REMARK VINA RESULT:     -11.6      1.910      3.270
REMARK  Name = 446129
REMARK  7 active torsions:
REMARK  status: ('A' for Active; 'I' for Inactive)
REMARK    1  A    between atoms: C_1  and  O_2
REMARK    2  A    between atoms: C_1  and  C_4
REMARK    3  A    between atoms: C_1  and  C_18
REMARK    4  A    between atoms: C_4  and  N_5
REMARK    5  A    between atoms: C_18  and  O_19
REMARK    6  A    between atoms: O_19  and  C_23
REMARK    7  A    between atoms: C_20  and  C_26
REMARK                            x       y       z     vdW  Elec       q    Type
REMARK                         _______ _______ _______ _____ _____    ______ ____
ROOT
ATOM      1  C   UNL     1      34.476 -17.451 -24.487  0.00  0.00    +0.133 C 
ENDROOT
BRANCH   1   2
ATOM      2  O   UNL     1      33.212 -17.154 -25.087  0.00  0.00    -0.383 OA
ATOM      3  H   UNL     1      32.541 -17.767 -24.747  0.00  0.00    +0.210 HD
ENDBRANCH   1   2
BRANCH   1   4
ATOM      4  C   UNL     1      35.100 -16.136 -24.014  0.00  0.00    -0.043 C 
BRANCH   4   5
ATOM      5  N   UNL     1      34.122 -15.266 -23.360  0.00  0.00    +0.391 N 
ATOM      6  N   UNL     1      33.124 -12.824 -22.266  0.00  0.00    -0.298 N 
ATOM      7  C   UNL     1      33.748 -14.155 -24.243  0.00  0.00    -0.055 C 
ATOM      8  C   UNL     1      34.662 -14.743 -22.099  0.00  0.00    -0.055 C 
ATOM      9  C   UNL     1      32.683 -13.270 -23.592  0.00  0.00    +0.069 C 
ATOM     10  C   UNL     1      33.627 -13.877 -21.376  0.00  0.00    +0.069 C 
ATOM     11  H   UNL     1      33.290 -15.821 -23.157  0.00  0.00    -0.079 HD
ATOM     12  N   UNL     1      31.893 -11.801 -20.483  0.00  0.00    -0.229 NA
ATOM     13  C   UNL     1      32.540 -11.694 -21.683  0.00  0.00    +0.132 C 
ATOM     14  C   UNL     1      32.635 -10.469 -22.358  0.00  0.00    +0.034 C 
ATOM     15  C   UNL     1      32.058  -9.337 -21.792  0.00  0.00    +0.004 C 
ATOM     16  C   UNL     1      31.344 -10.680 -19.963  0.00  0.00    +0.100 C 
ATOM     17  C   UNL     1      31.399  -9.436 -20.572  0.00  0.00    +0.021 C 
ENDBRANCH   4   5
ENDBRANCH   1   4
BRANCH   1  18
ATOM     18  C   UNL     1      34.258 -18.456 -23.357  0.00  0.00    +0.232 C 
BRANCH  18  19
ATOM     19  O   UNL     1      35.109 -18.116 -22.268  0.00  0.00    -0.473 OA
BRANCH  19  23
ATOM     20  C   UNL     1      35.466 -20.925 -19.233  0.00  0.00    -0.022 C 
ATOM     21  C   UNL     1      34.219 -20.670 -19.803  0.00  0.00    -0.001 C 
ATOM     22  C   UNL     1      36.592 -20.236 -19.681  0.00  0.00    -0.001 C 
ATOM     23  C   UNL     1      35.226 -19.042 -21.266  0.00  0.00    +0.139 C 
ATOM     24  C   UNL     1      34.099 -19.726 -20.823  0.00  0.00    +0.037 C 
ATOM     25  C   UNL     1      36.472 -19.291 -20.700  0.00  0.00    +0.037 C 
BRANCH  20  26
ATOM     26  C   UNL     1      35.596 -21.951 -18.122  0.00  0.00    +0.022 C 
ATOM     27  C   UNL     1      36.604 -21.509 -17.047  0.00  0.00    +0.004 C 
ATOM     28  C   UNL     1      34.233 -22.289 -17.493  0.00  0.00    +0.004 C 
ATOM     29  C   UNL     1      36.734 -22.553 -15.939  0.00  0.00    +0.000 C 
ATOM     30  C   UNL     1      34.372 -23.330 -16.384  0.00  0.00    +0.000 C 
ATOM     31  C   UNL     1      35.379 -22.892 -15.324  0.00  0.00    +0.000 C 
ENDBRANCH  20  26
ENDBRANCH  19  23
ENDBRANCH  18  19
ENDBRANCH   1  18
TORSDOF 7
ENDMDL
MODEL 8
REMARK VINA RESULT:     -11.6      2.349      4.580
REMARK  Name = 446129
REMARK  7 active torsions:
REMARK  status: ('A' for Active; 'I' for Inactive)
REMARK    1  A    between atoms: C_1  and  O_2
REMARK    2  A    between atoms: C_1  and  C_4
REMARK    3  A    between atoms: C_1  and  C_18
REMARK    4  A    between atoms: C_4  and  N_5
REMARK    5  A    between atoms: C_18  and  O_19
REMARK    6  A    between atoms: O_19  and  C_23
REMARK    7  A    between atoms: C_20  and  C_26
REMARK                            x       y       z     vdW  Elec       q    Type
REMARK                         _______ _______ _______ _____ _____    ______ ____
ROOT
ATOM      1  C   UNL     1      35.960 -17.547 -21.798  0.00  0.00    +0.133 C 
ENDROOT
BRANCH   1   2
ATOM      2  O   UNL     1      37.124 -18.323 -22.095  0.00  0.00    -0.383 OA
ATOM      3  H   UNL     1      37.617 -17.904 -22.818  0.00  0.00    +0.210 HD
ENDBRANCH   1   2
BRANCH   1   4
ATOM      4  C   UNL     1      35.275 -17.190 -23.119  0.00  0.00    -0.043 C 
BRANCH   4   5
ATOM      5  N   UNL     1      34.415 -16.014 -22.993  0.00  0.00    +0.391 N 
ATOM      6  N   UNL     1      33.806 -13.225 -22.911  0.00  0.00    -0.298 N 
ATOM      7  C   UNL     1      34.460 -15.208 -24.218  0.00  0.00    -0.055 C 
ATOM      8  C   UNL     1      34.824 -15.199 -21.843  0.00  0.00    -0.055 C 
ATOM      9  C   UNL     1      33.519 -14.004 -24.120  0.00  0.00    +0.069 C 
ATOM     10  C   UNL     1      33.895 -13.995 -21.664  0.00  0.00    +0.069 C 
ATOM     11  H   UNL     1      33.458 -16.335 -22.844  0.00  0.00    -0.079 HD
ATOM     12  N   UNL     1      32.535 -11.498 -21.840  0.00  0.00    -0.229 NA
ATOM     13  C   UNL     1      33.392 -11.890 -22.831  0.00  0.00    +0.132 C 
ATOM     14  C   UNL     1      33.876 -10.982 -23.784  0.00  0.00    +0.034 C 
ATOM     15  C   UNL     1      33.473  -9.653 -23.718  0.00  0.00    +0.004 C 
ATOM     16  C   UNL     1      32.165 -10.197 -21.808  0.00  0.00    +0.100 C 
ATOM     17  C   UNL     1      32.602  -9.245 -22.714  0.00  0.00    +0.021 C 
ENDBRANCH   4   5
ENDBRANCH   1   4
BRANCH   1  18
ATOM     18  C   UNL     1      35.067 -18.348 -20.851  0.00  0.00    +0.232 C 
BRANCH  18  19
ATOM     19  O   UNL     1      35.411 -19.726 -20.949  0.00  0.00    -0.473 OA
BRANCH  19  23
ATOM     20  C   UNL     1      34.005 -22.216 -17.940  0.00  0.00    -0.022 C 
ATOM     21  C   UNL     1      35.377 -22.031 -18.109  0.00  0.00    -0.001 C 
ATOM     22  C   UNL     1      33.106 -21.564 -18.784  0.00  0.00    -0.001 C 
ATOM     23  C   UNL     1      34.948 -20.548 -19.957  0.00  0.00    +0.139 C 
ATOM     24  C   UNL     1      35.850 -21.195 -19.119  0.00  0.00    +0.037 C 
ATOM     25  C   UNL     1      33.578 -20.728 -19.796  0.00  0.00    +0.037 C 
BRANCH  20  26
ATOM     26  C   UNL     1      33.492 -23.127 -16.841  0.00  0.00    +0.022 C 
ATOM     27  C   UNL     1      34.406 -23.105 -15.604  0.00  0.00    +0.004 C 
ATOM     28  C   UNL     1      32.039 -22.798 -16.457  0.00  0.00    +0.004 C 
ATOM     29  C   UNL     1      33.885 -24.033 -14.507  0.00  0.00    +0.000 C 
ATOM     30  C   UNL     1      31.527 -23.727 -15.357  0.00  0.00    +0.000 C 
ATOM     31  C   UNL     1      32.441 -23.709 -14.136  0.00  0.00    +0.000 C 
ENDBRANCH  20  26
ENDBRANCH  19  23
ENDBRANCH  18  19
ENDBRANCH   1  18
TORSDOF 7
ENDMDL
MODEL 9
REMARK VINA RESULT:     -10.9      2.955      5.311
REMARK  Name = 446129
REMARK  7 active torsions:
REMARK  status: ('A' for Active; 'I' for Inactive)
REMARK    1  A    between atoms: C_1  and  O_2
REMARK    2  A    between atoms: C_1  and  C_4
REMARK    3  A    between atoms: C_1  and  C_18
REMARK    4  A    between atoms: C_4  and  N_5
REMARK    5  A    between atoms: C_18  and  O_19
REMARK    6  A    between atoms: O_19  and  C_23
REMARK    7  A    between atoms: C_20  and  C_26
REMARK                            x       y       z     vdW  Elec       q    Type
REMARK                         _______ _______ _______ _____ _____    ______ ____
ROOT
ATOM      1  C   UNL     1      35.927 -18.143 -21.006  0.00  0.00    +0.133 C 
ENDROOT
BRANCH   1   2
ATOM      2  O   UNL     1      37.243 -18.696 -20.926  0.00  0.00    -0.383 OA
ATOM      3  H   UNL     1      37.196 -19.591 -20.554  0.00  0.00    +0.210 HD
ENDBRANCH   1   2
BRANCH   1   4
ATOM      4  C   UNL     1      35.773 -17.474 -22.374  0.00  0.00    -0.043 C 
BRANCH   4   5
ATOM      5  N   UNL     1      35.449 -16.052 -22.257  0.00  0.00    +0.391 N 
ATOM      6  N   UNL     1      33.751 -13.788 -21.871  0.00  0.00    -0.298 N 
ATOM      7  C   UNL     1      34.895 -15.756 -20.930  0.00  0.00    -0.055 C 
ATOM      8  C   UNL     1      34.492 -15.656 -23.297  0.00  0.00    -0.055 C 
ATOM      9  C   UNL     1      34.604 -14.262 -20.776  0.00  0.00    +0.069 C 
ATOM     10  C   UNL     1      34.187 -14.157 -23.223  0.00  0.00    +0.069 C 
ATOM     11  H   UNL     1      36.310 -15.519 -22.382  0.00  0.00    -0.079 HD
ATOM     12  N   UNL     1      33.221 -11.558 -22.572  0.00  0.00    -0.229 NA
ATOM     13  C   UNL     1      33.017 -12.606 -21.717  0.00  0.00    +0.132 C 
ATOM     14  C   UNL     1      32.081 -12.532 -20.676  0.00  0.00    +0.034 C 
ATOM     15  C   UNL     1      31.344 -11.364 -20.510  0.00  0.00    +0.004 C 
ATOM     16  C   UNL     1      32.486 -10.439 -22.380  0.00  0.00    +0.100 C 
ATOM     17  C   UNL     1      31.544 -10.294 -21.374  0.00  0.00    +0.021 C 
ENDBRANCH   4   5
ENDBRANCH   1   4
BRANCH   1  18
ATOM     18  C   UNL     1      34.912 -19.259 -20.763  0.00  0.00    +0.232 C 
BRANCH  18  19
ATOM     19  O   UNL     1      35.610 -20.492 -20.613  0.00  0.00    -0.473 OA
BRANCH  19  23
ATOM     20  C   UNL     1      35.609 -22.191 -16.826  0.00  0.00    -0.022 C 
ATOM     21  C   UNL     1      34.473 -22.281 -17.631  0.00  0.00    -0.001 C 
ATOM     22  C   UNL     1      36.744 -21.529 -17.294  0.00  0.00    -0.001 C 
ATOM     23  C   UNL     1      35.609 -21.052 -19.364  0.00  0.00    +0.139 C 
ATOM     24  C   UNL     1      34.474 -21.711 -18.904  0.00  0.00    +0.037 C 
ATOM     25  C   UNL     1      36.744 -20.957 -18.566  0.00  0.00    +0.037 C 
BRANCH  20  26
ATOM     26  C   UNL     1      35.607 -22.811 -15.442  0.00  0.00    +0.022 C 
ATOM     27  C   UNL     1      34.525 -23.896 -15.299  0.00  0.00    +0.004 C 
ATOM     28  C   UNL     1      36.992 -23.362 -15.060  0.00  0.00    +0.004 C 
ATOM     29  C   UNL     1      34.527 -24.507 -13.899  0.00  0.00    +0.000 C 
ATOM     30  C   UNL     1      36.984 -23.975 -13.661  0.00  0.00    +0.000 C 
ATOM     31  C   UNL     1      35.904 -25.044 -13.521  0.00  0.00    +0.000 C 
ENDBRANCH  20  26
ENDBRANCH  19  23
ENDBRANCH  18  19
ENDBRANCH   1  18
TORSDOF 7
ENDMDL
