MODEL 1
REMARK VINA RESULT:     -12.3      0.000      0.000
REMARK  Name = 448317
REMARK  6 active torsions:
REMARK  status: ('A' for Active; 'I' for Inactive)
REMARK    1  A    between atoms: C_1  and  C_18
REMARK    2  A    between atoms: C_4  and  N_24
REMARK    3  A    between atoms: C_5  and  S_25
REMARK    4  A    between atoms: S_25  and  C_26
REMARK    5  A    between atoms: C_27  and  O_32
REMARK    6  A    between atoms: O_32  and  C_33
REMARK                            x       y       z     vdW  Elec       q    Type
REMARK                         _______ _______ _______ _____ _____    ______ ____
ROOT
ATOM      1  C   UNL     1      34.123 -20.836 -19.336  0.00  0.00    +0.002 C 
ATOM      2  C   UNL     1      35.435 -20.397 -19.510  0.00  0.00    +0.025 C 
ATOM      3  C   UNL     1      33.129 -20.432 -20.227  0.00  0.00    +0.001 C 
ATOM      4  C   UNL     1      35.754 -19.554 -20.575  0.00  0.00    +0.149 C 
ATOM      5  C   UNL     1      34.760 -19.149 -21.465  0.00  0.00    +0.052 C 
ATOM      6  C   UNL     1      33.447 -19.588 -21.292  0.00  0.00    +0.008 C 
ENDROOT
BRANCH   1  18
ATOM      7  O   UNL     1      38.710 -23.844 -11.887  0.00  0.00    -0.275 OA
ATOM      8  N   UNL     1      35.484 -23.556 -15.524  0.00  0.00    -0.290 N 
ATOM      9  N   UNL     1      37.476 -24.473 -13.748  0.00  0.00    -0.276 N 
ATOM     10  N   UNL     1      33.151 -23.399 -16.099  0.00  0.00    -0.229 NA
ATOM     11  C   UNL     1      35.326 -24.867 -14.880  0.00  0.00    +0.114 C 
ATOM     12  C   UNL     1      36.316 -22.580 -14.803  0.00  0.00    +0.114 C 
ATOM     13  C   UNL     1      36.690 -25.448 -14.508  0.00  0.00    +0.115 C 
ATOM     14  C   UNL     1      37.663 -23.198 -14.436  0.00  0.00    +0.115 C 
ATOM     15  C   UNL     1      34.461 -23.060 -16.341  0.00  0.00    +0.132 C 
ATOM     16  C   UNL     1      38.039 -24.682 -12.492  0.00  0.00    +0.226 C 
ATOM     17  C   UNL     1      34.797 -22.211 -17.412  0.00  0.00    +0.034 C 
ATOM     18  C   UNL     1      33.792 -21.710 -18.232  0.00  0.00    +0.004 C 
ATOM     19  C   UNL     1      37.789 -26.028 -11.858  0.00  0.00    +0.095 C 
ATOM     20  C   UNL     1      32.467 -22.052 -17.986  0.00  0.00    +0.021 C 
ATOM     21  C   UNL     1      32.201 -22.893 -16.918  0.00  0.00    +0.100 C 
ENDBRANCH   1  18
BRANCH   4  24
ATOM     22  O   UNL     1      37.477 -18.636 -21.803  0.00  0.00    -0.126 OA
ATOM     23  O   UNL     1      37.883 -19.264 -19.739  0.00  0.00    -0.126 OA
ATOM     24  N   UNL     1      37.107 -19.130 -20.713  0.00  0.00    +0.058 N 
ENDBRANCH   4  24
BRANCH   5  25
ATOM     25  S   UNL     1      35.101 -18.069 -22.853  0.00  0.00    -0.082 S 
BRANCH  25  26
ATOM     26  C   UNL     1      34.899 -16.466 -22.093  0.00  0.00    +0.063 C 
ATOM     27  C   UNL     1      34.718 -15.315 -22.861  0.00  0.00    +0.144 C 
ATOM     28  C   UNL     1      34.928 -16.376 -20.700  0.00  0.00    +0.010 C 
ATOM     29  C   UNL     1      34.564 -14.077 -22.238  0.00  0.00    +0.037 C 
ATOM     30  C   UNL     1      34.774 -15.137 -20.077  0.00  0.00    +0.001 C 
ATOM     31  C   UNL     1      34.592 -13.987 -20.845  0.00  0.00    +0.003 C 
BRANCH  27  32
ATOM     32  O   UNL     1      34.683 -15.364 -24.223  0.00  0.00    -0.475 OA
BRANCH  32  33
ATOM     33  C   UNL     1      33.414 -15.176 -24.846  0.00  0.00    +0.206 C 
ATOM     34  C   UNL     1      33.394 -13.824 -25.526  0.00  0.00    +0.051 C 
ENDBRANCH  32  33
ENDBRANCH  27  32
ENDBRANCH  25  26
ENDBRANCH   5  25
TORSDOF 6
ENDMDL
MODEL 2
REMARK VINA RESULT:     -10.5      6.619     12.757
REMARK  Name = 448317
REMARK  6 active torsions:
REMARK  status: ('A' for Active; 'I' for Inactive)
REMARK    1  A    between atoms: C_1  and  C_18
REMARK    2  A    between atoms: C_4  and  N_24
REMARK    3  A    between atoms: C_5  and  S_25
REMARK    4  A    between atoms: S_25  and  C_26
REMARK    5  A    between atoms: C_27  and  O_32
REMARK    6  A    between atoms: O_32  and  C_33
REMARK                            x       y       z     vdW  Elec       q    Type
REMARK                         _______ _______ _______ _____ _____    ______ ____
ROOT
ATOM      1  C   UNL     1      33.316 -13.054 -21.840  0.00  0.00    +0.002 C 
ATOM      2  C   UNL     1      33.076 -13.264 -23.198  0.00  0.00    +0.025 C 
ATOM      3  C   UNL     1      34.180 -13.900 -21.146  0.00  0.00    +0.001 C 
ATOM      4  C   UNL     1      33.702 -14.319 -23.863  0.00  0.00    +0.149 C 
ATOM      5  C   UNL     1      34.567 -15.165 -23.169  0.00  0.00    +0.052 C 
ATOM      6  C   UNL     1      34.807 -14.955 -21.810  0.00  0.00    +0.008 C 
ENDROOT
BRANCH   1  18
ATOM      7  O   UNL     1      31.163  -4.352 -24.127  0.00  0.00    -0.275 OA
ATOM      8  N   UNL     1      32.205  -8.318 -21.498  0.00  0.00    -0.290 N 
ATOM      9  N   UNL     1      32.223  -5.708 -22.571  0.00  0.00    -0.276 N 
ATOM     10  N   UNL     1      31.413  -9.848 -19.817  0.00  0.00    -0.229 NA
ATOM     11  C   UNL     1      32.174  -7.165 -20.588  0.00  0.00    +0.114 C 
ATOM     12  C   UNL     1      31.671  -8.087 -22.850  0.00  0.00    +0.114 C 
ATOM     13  C   UNL     1      32.810  -5.943 -21.250  0.00  0.00    +0.115 C 
ATOM     14  C   UNL     1      32.318  -6.852 -23.473  0.00  0.00    +0.115 C 
ATOM     15  C   UNL     1      32.113  -9.613 -20.976  0.00  0.00    +0.132 C 
ATOM     16  C   UNL     1      31.633  -4.522 -23.000  0.00  0.00    +0.226 C 
ATOM     17  C   UNL     1      32.750 -10.668 -21.657  0.00  0.00    +0.034 C 
ATOM     18  C   UNL     1      32.667 -11.961 -21.151  0.00  0.00    +0.004 C 
ATOM     19  C   UNL     1      31.577  -3.397 -21.999  0.00  0.00    +0.095 C 
ATOM     20  C   UNL     1      31.958 -12.198 -19.979  0.00  0.00    +0.021 C 
ATOM     21  C   UNL     1      31.355 -11.117 -19.355  0.00  0.00    +0.100 C 
ENDBRANCH   1  18
BRANCH   4  24
ATOM     22  O   UNL     1      33.601 -13.529 -26.027  0.00  0.00    -0.126 OA
ATOM     23  O   UNL     1      33.021 -15.612 -25.646  0.00  0.00    -0.126 OA
ATOM     24  N   UNL     1      33.427 -14.495 -25.249  0.00  0.00    +0.058 N 
ENDBRANCH   4  24
BRANCH   5  25
ATOM     25  S   UNL     1      35.402 -16.537 -23.960  0.00  0.00    -0.082 S 
BRANCH  25  26
ATOM     26  C   UNL     1      35.423 -17.733 -22.635  0.00  0.00    +0.063 C 
ATOM     27  C   UNL     1      34.365 -18.621 -22.439  0.00  0.00    +0.144 C 
ATOM     28  C   UNL     1      36.529 -17.769 -21.782  0.00  0.00    +0.010 C 
ATOM     29  C   UNL     1      34.411 -19.543 -21.394  0.00  0.00    +0.037 C 
ATOM     30  C   UNL     1      36.574 -18.692 -20.737  0.00  0.00    +0.001 C 
ATOM     31  C   UNL     1      35.515 -19.579 -20.542  0.00  0.00    +0.003 C 
BRANCH  27  32
ATOM     32  O   UNL     1      33.271 -18.616 -23.253  0.00  0.00    -0.475 OA
BRANCH  32  33
ATOM     33  C   UNL     1      33.461 -19.047 -24.598  0.00  0.00    +0.206 C 
ATOM     34  C   UNL     1      32.123 -19.069 -25.304  0.00  0.00    +0.051 C 
ENDBRANCH  32  33
ENDBRANCH  27  32
ENDBRANCH  25  26
ENDBRANCH   5  25
TORSDOF 6
ENDMDL
MODEL 3
REMARK VINA RESULT:     -10.1      2.739      3.895
REMARK  Name = 448317
REMARK  6 active torsions:
REMARK  status: ('A' for Active; 'I' for Inactive)
REMARK    1  A    between atoms: C_1  and  C_18
REMARK    2  A    between atoms: C_4  and  N_24
REMARK    3  A    between atoms: C_5  and  S_25
REMARK    4  A    between atoms: S_25  and  C_26
REMARK    5  A    between atoms: C_27  and  O_32
REMARK    6  A    between atoms: O_32  and  C_33
REMARK                            x       y       z     vdW  Elec       q    Type
REMARK                         _______ _______ _______ _____ _____    ______ ____
ROOT
ATOM      1  C   UNL     1      35.977 -20.761 -18.877  0.00  0.00    +0.002 C 
ATOM      2  C   UNL     1      34.812 -20.613 -19.628  0.00  0.00    +0.025 C 
ATOM      3  C   UNL     1      37.145 -20.104 -19.265  0.00  0.00    +0.001 C 
ATOM      4  C   UNL     1      34.812 -19.807 -20.767  0.00  0.00    +0.149 C 
ATOM      5  C   UNL     1      35.980 -19.151 -21.156  0.00  0.00    +0.052 C 
ATOM      6  C   UNL     1      37.146 -19.298 -20.405  0.00  0.00    +0.008 C 
ENDROOT
BRANCH   1  18
ATOM      7  O   UNL     1      29.479 -25.562 -14.370  0.00  0.00    -0.275 OA
ATOM      8  N   UNL     1      33.573 -23.109 -15.343  0.00  0.00    -0.290 N 
ATOM      9  N   UNL     1      31.154 -23.968 -14.172  0.00  0.00    -0.276 N 
ATOM     10  N   UNL     1      35.977 -23.210 -15.414  0.00  0.00    -0.229 NA
ATOM     11  C   UNL     1      33.519 -23.345 -13.894  0.00  0.00    +0.114 C 
ATOM     12  C   UNL     1      32.602 -23.858 -16.156  0.00  0.00    +0.114 C 
ATOM     13  C   UNL     1      32.091 -23.171 -13.377  0.00  0.00    +0.115 C 
ATOM     14  C   UNL     1      31.191 -23.672 -15.602  0.00  0.00    +0.115 C 
ATOM     15  C   UNL     1      34.790 -22.762 -15.942  0.00  0.00    +0.132 C 
ATOM     16  C   UNL     1      30.269 -24.920 -13.674  0.00  0.00    +0.226 C 
ATOM     17  C   UNL     1      34.776 -21.948 -17.090  0.00  0.00    +0.034 C 
ATOM     18  C   UNL     1      35.977 -21.596 -17.697  0.00  0.00    +0.004 C 
ATOM     19  C   UNL     1      30.305 -25.160 -12.186  0.00  0.00    +0.095 C 
ATOM     20  C   UNL     1      37.178 -22.050 -17.163  0.00  0.00    +0.021 C 
ATOM     21  C   UNL     1      37.125 -22.846 -16.030  0.00  0.00    +0.100 C 
ENDBRANCH   1  18
BRANCH   4  24
ATOM     22  O   UNL     1      33.656 -19.346 -22.708  0.00  0.00    -0.126 OA
ATOM     23  O   UNL     1      32.515 -19.925 -20.924  0.00  0.00    -0.126 OA
ATOM     24  N   UNL     1      33.599 -19.686 -21.504  0.00  0.00    +0.058 N 
ENDBRANCH   4  24
BRANCH   5  25
ATOM     25  S   UNL     1      36.050 -18.102 -22.606  0.00  0.00    -0.082 S 
BRANCH  25  26
ATOM     26  C   UNL     1      35.392 -16.576 -21.955  0.00  0.00    +0.063 C 
ATOM     27  C   UNL     1      35.031 -15.521 -22.795  0.00  0.00    +0.144 C 
ATOM     28  C   UNL     1      35.241 -16.446 -20.572  0.00  0.00    +0.010 C 
ATOM     29  C   UNL     1      34.521 -14.341 -22.255  0.00  0.00    +0.037 C 
ATOM     30  C   UNL     1      34.731 -15.265 -20.033  0.00  0.00    +0.001 C 
ATOM     31  C   UNL     1      34.371 -14.212 -20.873  0.00  0.00    +0.003 C 
BRANCH  27  32
ATOM     32  O   UNL     1      35.162 -15.611 -24.149  0.00  0.00    -0.475 OA
BRANCH  32  33
ATOM     33  C   UNL     1      33.977 -15.868 -24.899  0.00  0.00    +0.206 C 
ATOM     34  C   UNL     1      33.535 -14.589 -25.575  0.00  0.00    +0.051 C 
ENDBRANCH  32  33
ENDBRANCH  27  32
ENDBRANCH  25  26
ENDBRANCH   5  25
TORSDOF 6
ENDMDL
