MODEL 1
REMARK VINA RESULT:     -12.7      0.000      0.000
REMARK  Name = 448407
REMARK  4 active torsions:
REMARK  status: ('A' for Active; 'I' for Inactive)
REMARK    1  A    between atoms: C_1  and  N_8
REMARK    2  A    between atoms: C_2  and  C_23
REMARK    3  A    between atoms: N_22  and  C_25
REMARK    4  A    between atoms: C_25  and  C_28
REMARK                            x       y       z     vdW  Elec       q    Type
REMARK                         _______ _______ _______ _____ _____    ______ ____
ROOT
ATOM      1  C   UNL     1      34.994 -22.150 -17.606  0.00  0.00    +0.090 C 
ATOM      2  C   UNL     1      35.189 -20.613 -19.484  0.00  0.00    +0.055 C 
ATOM      3  C   UNL     1      35.759 -21.274 -18.397  0.00  0.00    +0.023 C 
ATOM      4  C   UNL     1      33.642 -22.344 -17.937  0.00  0.00    +0.018 C 
ATOM      5  C   UNL     1      33.845 -20.817 -19.798  0.00  0.00    +0.005 C 
ATOM      6  C   UNL     1      33.072 -21.683 -19.024  0.00  0.00    +0.002 C 
ENDROOT
BRANCH   1   8
ATOM      7  O   UNL     1      33.885 -24.459 -13.086  0.00  0.00    -0.207 OA
ATOM      8  N   UNL     1      35.562 -22.810 -16.523  0.00  0.00    -0.137 N 
ATOM      9  N   UNL     1      36.765 -22.498 -15.970  0.00  0.00    -0.215 N 
ATOM     10  N   UNL     1      34.716 -23.410 -15.595  0.00  0.00    -0.143 NA
ATOM     11  N   UNL     1      37.548 -22.855 -13.667  0.00  0.00    -0.309 NA
ATOM     12  N   UNL     1      35.952 -23.907 -12.193  0.00  0.00    -0.251 NA
ATOM     13  N   UNL     1      38.045 -23.312 -11.410  0.00  0.00    -0.283 N 
ATOM     14  C   UNL     1      36.750 -22.879 -14.669  0.00  0.00    +0.243 C 
ATOM     15  C   UNL     1      35.407 -23.456 -14.498  0.00  0.00    +0.241 C 
ATOM     16  C   UNL     1      35.009 -23.990 -13.189  0.00  0.00    +0.239 C 
ATOM     17  C   UNL     1      37.132 -23.373 -12.438  0.00  0.00    +0.208 C 
ATOM     18  H   UNL     1      37.518 -22.067 -16.435  0.00  0.00    +0.175 HD
ATOM     19  H   UNL     1      38.935 -22.918 -11.563  0.00  0.00    +0.156 HD
ATOM     20  H   UNL     1      37.809 -23.662 -10.520  0.00  0.00    +0.156 HD
ENDBRANCH   1   8
BRANCH   2  23
ATOM     21  O   UNL     1      37.102 -19.317 -19.883  0.00  0.00    -0.270 OA
ATOM     22  N   UNL     1      35.477 -19.340 -21.538  0.00  0.00    -0.297 N 
ATOM     23  C   UNL     1      35.995 -19.712 -20.292  0.00  0.00    +0.246 C 
ATOM     24  H   UNL     1      34.595 -19.689 -21.798  0.00  0.00    +0.150 HD
BRANCH  22  25
ATOM     25  C   UNL     1      36.169 -18.471 -22.463  0.00  0.00    +0.117 C 
BRANCH  25  28
ATOM     26 CL   UNL     1      34.519 -14.025 -20.330  0.00  0.00    -0.082 Cl
ATOM     27 CL   UNL     1      33.682 -15.107 -25.550  0.00  0.00    -0.082 Cl
ATOM     28  C   UNL     1      35.470 -17.152 -22.624  0.00  0.00    -0.001 C 
ATOM     29  C   UNL     1      34.963 -16.790 -23.867  0.00  0.00    +0.009 C 
ATOM     30  C   UNL     1      35.337 -16.306 -21.529  0.00  0.00    +0.009 C 
ATOM     31  C   UNL     1      34.688 -15.080 -21.679  0.00  0.00    +0.058 C 
ATOM     32  C   UNL     1      34.314 -15.565 -24.017  0.00  0.00    +0.058 C 
ATOM     33  C   UNL     1      34.177 -14.709 -22.923  0.00  0.00    +0.023 C 
ENDBRANCH  25  28
ENDBRANCH  22  25
ENDBRANCH   2  23
TORSDOF 4
ENDMDL
MODEL 2
REMARK VINA RESULT:     -12.6      4.733     10.400
REMARK  Name = 448407
REMARK  4 active torsions:
REMARK  status: ('A' for Active; 'I' for Inactive)
REMARK    1  A    between atoms: C_1  and  N_8
REMARK    2  A    between atoms: C_2  and  C_23
REMARK    3  A    between atoms: N_22  and  C_25
REMARK    4  A    between atoms: C_25  and  C_28
REMARK                            x       y       z     vdW  Elec       q    Type
REMARK                         _______ _______ _______ _____ _____    ______ ____
ROOT
ATOM      1  C   UNL     1      35.727 -18.593 -21.083  0.00  0.00    +0.090 C 
ATOM      2  C   UNL     1      34.768 -20.404 -19.769  0.00  0.00    +0.055 C 
ATOM      3  C   UNL     1      34.610 -19.311 -20.621  0.00  0.00    +0.023 C 
ATOM      4  C   UNL     1      37.006 -19.002 -20.668  0.00  0.00    +0.018 C 
ATOM      5  C   UNL     1      36.044 -20.796 -19.367  0.00  0.00    +0.005 C 
ATOM      6  C   UNL     1      37.164 -20.095 -19.816  0.00  0.00    +0.002 C 
ENDROOT
BRANCH   1   8
ATOM      7  O   UNL     1      34.522 -13.541 -21.203  0.00  0.00    -0.207 OA
ATOM      8  N   UNL     1      35.570 -17.505 -21.934  0.00  0.00    -0.137 N 
ATOM      9  N   UNL     1      35.048 -17.571 -23.187  0.00  0.00    -0.215 N 
ATOM     10  N   UNL     1      35.382 -16.245 -21.369  0.00  0.00    -0.143 NA
ATOM     11  N   UNL     1      33.889 -15.825 -24.475  0.00  0.00    -0.309 NA
ATOM     12  N   UNL     1      33.650 -13.706 -23.345  0.00  0.00    -0.251 NA
ATOM     13  N   UNL     1      32.817 -13.986 -25.484  0.00  0.00    -0.283 N 
ATOM     14  C   UNL     1      34.502 -16.366 -23.488  0.00  0.00    +0.243 C 
ATOM     15  C   UNL     1      34.753 -15.567 -22.279  0.00  0.00    +0.241 C 
ATOM     16  C   UNL     1      34.297 -14.172 -22.225  0.00  0.00    +0.239 C 
ATOM     17  C   UNL     1      33.469 -14.496 -24.385  0.00  0.00    +0.208 C 
ATOM     18  H   UNL     1      35.063 -18.359 -23.776  0.00  0.00    +0.175 HD
ATOM     19  H   UNL     1      32.668 -14.553 -26.276  0.00  0.00    +0.156 HD
ATOM     20  H   UNL     1      32.499 -13.054 -25.479  0.00  0.00    +0.156 HD
ENDBRANCH   1   8
BRANCH   2  23
ATOM     21  O   UNL     1      32.511 -21.027 -19.889  0.00  0.00    -0.270 OA
ATOM     22  N   UNL     1      33.778 -21.971 -18.191  0.00  0.00    -0.297 N 
ATOM     23  C   UNL     1      33.602 -21.136 -19.301  0.00  0.00    +0.246 C 
ATOM     24  H   UNL     1      34.669 -22.009 -17.775  0.00  0.00    +0.150 HD
BRANCH  22  25
ATOM     25  C   UNL     1      32.723 -22.779 -17.625  0.00  0.00    +0.117 C 
BRANCH  25  28
ATOM     26 CL   UNL     1      30.889 -24.220 -12.977  0.00  0.00    -0.082 Cl
ATOM     27 CL   UNL     1      36.167 -23.444 -13.786  0.00  0.00    -0.082 Cl
ATOM     28  C   UNL     1      32.995 -23.134 -16.191  0.00  0.00    -0.001 C 
ATOM     29  C   UNL     1      34.302 -23.124 -15.716  0.00  0.00    +0.009 C 
ATOM     30  C   UNL     1      31.938 -23.470 -15.354  0.00  0.00    +0.009 C 
ATOM     31  C   UNL     1      32.190 -23.801 -14.022  0.00  0.00    +0.058 C 
ATOM     32  C   UNL     1      34.555 -23.454 -14.385  0.00  0.00    +0.058 C 
ATOM     33  C   UNL     1      33.499 -23.794 -13.537  0.00  0.00    +0.023 C 
ENDBRANCH  25  28
ENDBRANCH  22  25
ENDBRANCH   2  23
TORSDOF 4
ENDMDL
MODEL 3
REMARK VINA RESULT:     -12.6      2.784      3.908
REMARK  Name = 448407
REMARK  4 active torsions:
REMARK  status: ('A' for Active; 'I' for Inactive)
REMARK    1  A    between atoms: C_1  and  N_8
REMARK    2  A    between atoms: C_2  and  C_23
REMARK    3  A    between atoms: N_22  and  C_25
REMARK    4  A    between atoms: C_25  and  C_28
REMARK                            x       y       z     vdW  Elec       q    Type
REMARK                         _______ _______ _______ _____ _____    ______ ____
ROOT
ATOM      1  C   UNL     1      34.272 -22.063 -18.013  0.00  0.00    +0.090 C 
ATOM      2  C   UNL     1      34.760 -20.651 -19.936  0.00  0.00    +0.055 C 
ATOM      3  C   UNL     1      33.858 -21.406 -19.185  0.00  0.00    +0.023 C 
ATOM      4  C   UNL     1      35.615 -21.941 -17.615  0.00  0.00    +0.018 C 
ATOM      5  C   UNL     1      36.088 -20.541 -19.526  0.00  0.00    +0.005 C 
ATOM      6  C   UNL     1      36.516 -21.186 -18.365  0.00  0.00    +0.002 C 
ENDROOT
BRANCH   1   8
ATOM      7  O   UNL     1      29.289 -22.379 -16.578  0.00  0.00    -0.207 OA
ATOM      8  N   UNL     1      33.374 -22.814 -17.264  0.00  0.00    -0.137 N 
ATOM      9  N   UNL     1      33.664 -23.411 -16.078  0.00  0.00    -0.215 N 
ATOM     10  N   UNL     1      32.017 -22.518 -17.367  0.00  0.00    -0.143 NA
ATOM     11  N   UNL     1      32.153 -23.984 -14.224  0.00  0.00    -0.309 NA
ATOM     12  N   UNL     1      29.838 -23.400 -14.571  0.00  0.00    -0.251 NA
ATOM     13  N   UNL     1      30.499 -24.423 -12.605  0.00  0.00    -0.283 N 
ATOM     14  C   UNL     1      32.516 -23.527 -15.365  0.00  0.00    +0.243 C 
ATOM     15  C   UNL     1      31.503 -22.935 -16.252  0.00  0.00    +0.241 C 
ATOM     16  C   UNL     1      30.102 -22.879 -15.815  0.00  0.00    +0.239 C 
ATOM     17  C   UNL     1      30.811 -23.911 -13.844  0.00  0.00    +0.208 C 
ATOM     18  H   UNL     1      34.556 -23.707 -15.786  0.00  0.00    +0.175 HD
ATOM     19  H   UNL     1      31.206 -24.811 -12.039  0.00  0.00    +0.156 HD
ATOM     20  H   UNL     1      29.569 -24.400 -12.283  0.00  0.00    +0.156 HD
ENDBRANCH   1   8
BRANCH   2  23
ATOM     21  O   UNL     1      33.103 -19.785 -21.350  0.00  0.00    -0.270 OA
ATOM     22  N   UNL     1      35.306 -19.546 -22.034  0.00  0.00    -0.297 N 
ATOM     23  C   UNL     1      34.315 -19.977 -21.145  0.00  0.00    +0.246 C 
ATOM     24  H   UNL     1      36.246 -19.732 -21.809  0.00  0.00    +0.150 HD
BRANCH  22  25
ATOM     25  C   UNL     1      35.024 -18.842 -23.264  0.00  0.00    +0.117 C 
BRANCH  25  28
ATOM     26 CL   UNL     1      33.634 -14.207 -25.169  0.00  0.00    -0.082 Cl
ATOM     27 CL   UNL     1      35.060 -14.797 -19.997  0.00  0.00    -0.082 Cl
ATOM     28  C   UNL     1      34.795 -17.376 -23.034  0.00  0.00    -0.001 C 
ATOM     29  C   UNL     1      35.009 -16.837 -21.771  0.00  0.00    +0.009 C 
ATOM     30  C   UNL     1      34.372 -16.573 -24.086  0.00  0.00    +0.009 C 
ATOM     31  C   UNL     1      34.159 -15.211 -23.873  0.00  0.00    +0.058 C 
ATOM     32  C   UNL     1      34.797 -15.475 -21.557  0.00  0.00    +0.058 C 
ATOM     33  C   UNL     1      34.371 -14.661 -22.608  0.00  0.00    +0.023 C 
ENDBRANCH  25  28
ENDBRANCH  22  25
ENDBRANCH   2  23
TORSDOF 4
ENDMDL
MODEL 4
REMARK VINA RESULT:     -12.1      1.510      2.512
REMARK  Name = 448407
REMARK  4 active torsions:
REMARK  status: ('A' for Active; 'I' for Inactive)
REMARK    1  A    between atoms: C_1  and  N_8
REMARK    2  A    between atoms: C_2  and  C_23
REMARK    3  A    between atoms: N_22  and  C_25
REMARK    4  A    between atoms: C_25  and  C_28
REMARK                            x       y       z     vdW  Elec       q    Type
REMARK                         _______ _______ _______ _____ _____    ______ ____
ROOT
ATOM      1  C   UNL     1      34.997 -22.118 -17.339  0.00  0.00    +0.090 C 
ATOM      2  C   UNL     1      35.253 -20.751 -19.337  0.00  0.00    +0.055 C 
ATOM      3  C   UNL     1      35.767 -21.261 -18.145  0.00  0.00    +0.023 C 
ATOM      4  C   UNL     1      33.698 -22.449 -17.762  0.00  0.00    +0.018 C 
ATOM      5  C   UNL     1      33.962 -21.090 -19.742  0.00  0.00    +0.005 C 
ATOM      6  C   UNL     1      33.185 -21.939 -18.954  0.00  0.00    +0.002 C 
ENDROOT
BRANCH   1   8
ATOM      7  O   UNL     1      39.358 -23.793 -15.065  0.00  0.00    -0.207 OA
ATOM      8  N   UNL     1      35.510 -22.628 -16.152  0.00  0.00    -0.137 N 
ATOM      9  N   UNL     1      34.853 -23.491 -15.333  0.00  0.00    -0.215 N 
ATOM     10  N   UNL     1      36.891 -22.762 -16.031  0.00  0.00    -0.143 NA
ATOM     11  N   UNL     1      35.779 -25.148 -13.769  0.00  0.00    -0.309 NA
ATOM     12  N   UNL     1      38.189 -25.244 -13.686  0.00  0.00    -0.251 NA
ATOM     13  N   UNL     1      36.921 -26.647 -12.354  0.00  0.00    -0.283 N 
ATOM     14  C   UNL     1      35.773 -24.217 -14.650  0.00  0.00    +0.243 C 
ATOM     15  C   UNL     1      37.055 -23.696 -15.147  0.00  0.00    +0.241 C 
ATOM     16  C   UNL     1      38.312 -24.250 -14.627  0.00  0.00    +0.239 C 
ATOM     17  C   UNL     1      36.995 -25.649 -13.300  0.00  0.00    +0.208 C 
ATOM     18  H   UNL     1      33.876 -23.576 -15.250  0.00  0.00    +0.175 HD
ATOM     19  H   UNL     1      36.042 -26.970 -12.047  0.00  0.00    +0.156 HD
ATOM     20  H   UNL     1      37.745 -27.039 -11.987  0.00  0.00    +0.156 HD
ENDBRANCH   1   8
BRANCH   2  23
ATOM     21  O   UNL     1      37.194 -19.513 -19.781  0.00  0.00    -0.270 OA
ATOM     22  N   UNL     1      35.520 -19.464 -21.385  0.00  0.00    -0.297 N 
ATOM     23  C   UNL     1      36.063 -19.867 -20.160  0.00  0.00    +0.246 C 
ATOM     24  H   UNL     1      34.619 -19.780 -21.622  0.00  0.00    +0.150 HD
BRANCH  22  25
ATOM     25  C   UNL     1      36.211 -18.607 -22.321  0.00  0.00    +0.117 C 
BRANCH  25  28
ATOM     26 CL   UNL     1      33.714 -15.286 -25.448  0.00  0.00    -0.082 Cl
ATOM     27 CL   UNL     1      34.572 -14.129 -20.247  0.00  0.00    -0.082 Cl
ATOM     28  C   UNL     1      35.513 -17.289 -22.499  0.00  0.00    -0.001 C 
ATOM     29  C   UNL     1      35.384 -16.427 -21.416  0.00  0.00    +0.009 C 
ATOM     30  C   UNL     1      35.001 -16.945 -23.745  0.00  0.00    +0.009 C 
ATOM     31  C   UNL     1      34.352 -15.721 -23.910  0.00  0.00    +0.058 C 
ATOM     32  C   UNL     1      34.736 -15.204 -21.581  0.00  0.00    +0.058 C 
ATOM     33  C   UNL     1      34.219 -14.851 -22.828  0.00  0.00    +0.023 C 
ENDBRANCH  25  28
ENDBRANCH  22  25
ENDBRANCH   2  23
TORSDOF 4
ENDMDL
MODEL 5
REMARK VINA RESULT:     -12.0      5.975     11.246
REMARK  Name = 448407
REMARK  4 active torsions:
REMARK  status: ('A' for Active; 'I' for Inactive)
REMARK    1  A    between atoms: C_1  and  N_8
REMARK    2  A    between atoms: C_2  and  C_23
REMARK    3  A    between atoms: N_22  and  C_25
REMARK    4  A    between atoms: C_25  and  C_28
REMARK                            x       y       z     vdW  Elec       q    Type
REMARK                         _______ _______ _______ _____ _____    ______ ____
ROOT
ATOM      1  C   UNL     1      33.291 -13.639 -23.320  0.00  0.00    +0.090 C 
ATOM      2  C   UNL     1      34.630 -15.609 -22.818  0.00  0.00    +0.055 C 
ATOM      3  C   UNL     1      34.059 -14.400 -22.421  0.00  0.00    +0.023 C 
ATOM      4  C   UNL     1      33.112 -14.124 -24.627  0.00  0.00    +0.018 C 
ATOM      5  C   UNL     1      34.442 -16.076 -24.119  0.00  0.00    +0.005 C 
ATOM      6  C   UNL     1      33.683 -15.333 -25.023  0.00  0.00    +0.002 C 
ENDROOT
BRANCH   1   8
ATOM      7  O   UNL     1      33.904  -8.483 -23.498  0.00  0.00    -0.207 OA
ATOM      8  N   UNL     1      32.721 -12.435 -22.925  0.00  0.00    -0.137 N 
ATOM      9  N   UNL     1      32.084 -12.232 -21.741  0.00  0.00    -0.215 N 
ATOM     10  N   UNL     1      33.262 -11.251 -23.421  0.00  0.00    -0.143 NA
ATOM     11  N   UNL     1      31.804 -10.144 -20.472  0.00  0.00    -0.309 NA
ATOM     12  N   UNL     1      32.803  -8.191 -21.478  0.00  0.00    -0.251 NA
ATOM     13  N   UNL     1      31.681  -8.018 -19.464  0.00  0.00    -0.283 N 
ATOM     14  C   UNL     1      32.183 -10.918 -21.420  0.00  0.00    +0.243 C 
ATOM     15  C   UNL     1      32.949 -10.351 -22.541  0.00  0.00    +0.241 C 
ATOM     16  C   UNL     1      33.264  -8.917 -22.551  0.00  0.00    +0.239 C 
ATOM     17  C   UNL     1      32.123  -8.785 -20.517  0.00  0.00    +0.208 C 
ATOM     18  H   UNL     1      31.628 -12.922 -21.206  0.00  0.00    +0.175 HD
ATOM     19  H   UNL     1      31.171  -8.434 -18.731  0.00  0.00    +0.156 HD
ATOM     20  H   UNL     1      31.876  -7.053 -19.441  0.00  0.00    +0.156 HD
ENDBRANCH   1   8
BRANCH   2  23
ATOM     21  O   UNL     1      35.438 -16.083 -20.669  0.00  0.00    -0.270 OA
ATOM     22  N   UNL     1      36.124 -17.481 -22.387  0.00  0.00    -0.297 N 
ATOM     23  C   UNL     1      35.420 -16.385 -21.875  0.00  0.00    +0.246 C 
ATOM     24  H   UNL     1      36.065 -17.662 -23.352  0.00  0.00    +0.150 HD
BRANCH  22  25
ATOM     25  C   UNL     1      36.933 -18.360 -21.573  0.00  0.00    +0.117 C 
BRANCH  25  28
ATOM     26 CL   UNL     1      36.651 -21.903 -17.778  0.00  0.00    -0.082 Cl
ATOM     27 CL   UNL     1      32.251 -20.343 -20.486  0.00  0.00    -0.082 Cl
ATOM     28  C   UNL     1      36.094 -19.294 -20.749  0.00  0.00    -0.001 C 
ATOM     29  C   UNL     1      34.725 -19.371 -20.977  0.00  0.00    +0.009 C 
ATOM     30  C   UNL     1      36.696 -20.070 -19.766  0.00  0.00    +0.009 C 
ATOM     31  C   UNL     1      35.917 -20.938 -18.999  0.00  0.00    +0.058 C 
ATOM     32  C   UNL     1      33.946 -20.239 -20.211  0.00  0.00    +0.058 C 
ATOM     33  C   UNL     1      34.542 -21.022 -19.221  0.00  0.00    +0.023 C 
ENDBRANCH  25  28
ENDBRANCH  22  25
ENDBRANCH   2  23
TORSDOF 4
ENDMDL
MODEL 6
REMARK VINA RESULT:     -11.8      2.685      3.330
REMARK  Name = 448407
REMARK  4 active torsions:
REMARK  status: ('A' for Active; 'I' for Inactive)
REMARK    1  A    between atoms: C_1  and  N_8
REMARK    2  A    between atoms: C_2  and  C_23
REMARK    3  A    between atoms: N_22  and  C_25
REMARK    4  A    between atoms: C_25  and  C_28
REMARK                            x       y       z     vdW  Elec       q    Type
REMARK                         _______ _______ _______ _____ _____    ______ ____
ROOT
ATOM      1  C   UNL     1      34.936 -21.329 -19.014  0.00  0.00    +0.090 C 
ATOM      2  C   UNL     1      35.004 -19.831 -20.932  0.00  0.00    +0.055 C 
ATOM      3  C   UNL     1      34.314 -20.737 -20.127  0.00  0.00    +0.023 C 
ATOM      4  C   UNL     1      36.270 -20.987 -18.730  0.00  0.00    +0.018 C 
ATOM      5  C   UNL     1      36.327 -19.502 -20.636  0.00  0.00    +0.005 C 
ATOM      6  C   UNL     1      36.959 -20.080 -19.535  0.00  0.00    +0.002 C 
ENDROOT
BRANCH   1   8
ATOM      7  O   UNL     1      30.303 -22.312 -16.880  0.00  0.00    -0.207 OA
ATOM      8  N   UNL     1      34.248 -22.232 -18.212  0.00  0.00    -0.137 N 
ATOM      9  N   UNL     1      34.782 -22.881 -17.143  0.00  0.00    -0.215 N 
ATOM     10  N   UNL     1      32.869 -22.083 -18.081  0.00  0.00    -0.143 NA
ATOM     11  N   UNL     1      33.651 -23.760 -15.144  0.00  0.00    -0.309 NA
ATOM     12  N   UNL     1      31.263 -23.416 -15.082  0.00  0.00    -0.251 NA
ATOM     13  N   UNL     1      32.329 -24.505 -13.342  0.00  0.00    -0.283 N 
ATOM     14  C   UNL     1      33.780 -23.179 -16.279  0.00  0.00    +0.243 C 
ATOM     15  C   UNL     1      32.584 -22.640 -16.944  0.00  0.00    +0.241 C 
ATOM     16  C   UNL     1      31.272 -22.775 -16.298  0.00  0.00    +0.239 C 
ATOM     17  C   UNL     1      32.387 -23.869 -14.561  0.00  0.00    +0.208 C 
ATOM     18  H   UNL     1      35.734 -23.097 -17.017  0.00  0.00    +0.175 HD
ATOM     19  H   UNL     1      33.152 -24.853 -12.928  0.00  0.00    +0.156 HD
ATOM     20  H   UNL     1      31.464 -24.611 -12.883  0.00  0.00    +0.156 HD
ENDBRANCH   1   8
BRANCH   2  23
ATOM     21  O   UNL     1      33.147 -19.466 -22.316  0.00  0.00    -0.270 OA
ATOM     22  N   UNL     1      35.111 -18.361 -22.869  0.00  0.00    -0.297 N 
ATOM     23  C   UNL     1      34.345 -19.226 -22.078  0.00  0.00    +0.246 C 
ATOM     24  H   UNL     1      36.052 -18.218 -22.623  0.00  0.00    +0.150 HD
BRANCH  22  25
ATOM     25  C   UNL     1      34.592 -17.668 -24.025  0.00  0.00    +0.117 C 
BRANCH  25  28
ATOM     26 CL   UNL     1      34.879 -13.669 -20.714  0.00  0.00    -0.082 Cl
ATOM     27 CL   UNL     1      32.895 -13.044 -25.693  0.00  0.00    -0.082 Cl
ATOM     28  C   UNL     1      34.353 -16.211 -23.748  0.00  0.00    -0.001 C 
ATOM     29  C   UNL     1      33.801 -15.404 -24.736  0.00  0.00    +0.009 C 
ATOM     30  C   UNL     1      34.688 -15.685 -22.506  0.00  0.00    +0.009 C 
ATOM     31  C   UNL     1      34.468 -14.332 -22.248  0.00  0.00    +0.058 C 
ATOM     32  C   UNL     1      33.580 -14.052 -24.478  0.00  0.00    +0.058 C 
ATOM     33  C   UNL     1      33.913 -13.514 -23.234  0.00  0.00    +0.023 C 
ENDBRANCH  25  28
ENDBRANCH  22  25
ENDBRANCH   2  23
TORSDOF 4
ENDMDL
MODEL 7
REMARK VINA RESULT:     -11.7      6.004     11.526
REMARK  Name = 448407
REMARK  4 active torsions:
REMARK  status: ('A' for Active; 'I' for Inactive)
REMARK    1  A    between atoms: C_1  and  N_8
REMARK    2  A    between atoms: C_2  and  C_23
REMARK    3  A    between atoms: N_22  and  C_25
REMARK    4  A    between atoms: C_25  and  C_28
REMARK                            x       y       z     vdW  Elec       q    Type
REMARK                         _______ _______ _______ _____ _____    ______ ____
ROOT
ATOM      1  C   UNL     1      33.854 -13.330 -23.177  0.00  0.00    +0.090 C 
ATOM      2  C   UNL     1      34.756 -15.541 -22.704  0.00  0.00    +0.055 C 
ATOM      3  C   UNL     1      34.557 -14.211 -22.336  0.00  0.00    +0.023 C 
ATOM      4  C   UNL     1      33.356 -13.821 -24.396  0.00  0.00    +0.018 C 
ATOM      5  C   UNL     1      34.255 -16.012 -23.917  0.00  0.00    +0.005 C 
ATOM      6  C   UNL     1      33.554 -15.151 -24.763  0.00  0.00    +0.002 C 
ENDROOT
BRANCH   1   8
ATOM      7  O   UNL     1      30.848 -10.209 -20.311  0.00  0.00    -0.207 OA
ATOM      8  N   UNL     1      33.655 -12.004 -22.810  0.00  0.00    -0.137 N 
ATOM      9  N   UNL     1      33.826 -10.938 -23.636  0.00  0.00    -0.215 N 
ATOM     10  N   UNL     1      32.730 -11.727 -21.806  0.00  0.00    -0.143 NA
ATOM     11  N   UNL     1      32.752  -8.727 -23.552  0.00  0.00    -0.309 NA
ATOM     12  N   UNL     1      31.178  -8.420 -21.749  0.00  0.00    -0.251 NA
ATOM     13  N   UNL     1      31.586  -6.703 -23.244  0.00  0.00    -0.283 N 
ATOM     14  C   UNL     1      33.025  -9.931 -23.207  0.00  0.00    +0.243 C 
ATOM     15  C   UNL     1      32.354 -10.507 -22.032  0.00  0.00    +0.241 C 
ATOM     16  C   UNL     1      31.387  -9.695 -21.281  0.00  0.00    +0.239 C 
ATOM     17  C   UNL     1      31.826  -7.988 -22.812  0.00  0.00    +0.208 C 
ATOM     18  H   UNL     1      34.428 -10.903 -24.414  0.00  0.00    +0.175 HD
ATOM     19  H   UNL     1      32.055  -6.353 -24.036  0.00  0.00    +0.156 HD
ATOM     20  H   UNL     1      30.943  -6.135 -22.762  0.00  0.00    +0.156 HD
ENDBRANCH   1   8
BRANCH   2  23
ATOM     21  O   UNL     1      35.467 -16.264 -20.590  0.00  0.00    -0.270 OA
ATOM     22  N   UNL     1      36.171 -17.501 -22.422  0.00  0.00    -0.297 N 
ATOM     23  C   UNL     1      35.484 -16.439 -21.822  0.00  0.00    +0.246 C 
ATOM     24  H   UNL     1      36.143 -17.579 -23.402  0.00  0.00    +0.150 HD
BRANCH  22  25
ATOM     25  C   UNL     1      36.920 -18.488 -21.678  0.00  0.00    +0.117 C 
BRANCH  25  28
ATOM     26 CL   UNL     1      36.420 -21.901 -17.787  0.00  0.00    -0.082 Cl
ATOM     27 CL   UNL     1      32.136 -20.217 -20.603  0.00  0.00    -0.082 Cl
ATOM     28  C   UNL     1      36.027 -19.357 -20.839  0.00  0.00    -0.001 C 
ATOM     29  C   UNL     1      34.659 -19.377 -21.085  0.00  0.00    +0.009 C 
ATOM     30  C   UNL     1      36.578 -20.131 -19.825  0.00  0.00    +0.009 C 
ATOM     31  C   UNL     1      35.749 -20.938 -19.045  0.00  0.00    +0.058 C 
ATOM     32  C   UNL     1      33.830 -20.184 -20.306  0.00  0.00    +0.058 C 
ATOM     33  C   UNL     1      34.375 -20.964 -19.285  0.00  0.00    +0.023 C 
ENDBRANCH  25  28
ENDBRANCH  22  25
ENDBRANCH   2  23
TORSDOF 4
ENDMDL
MODEL 8
REMARK VINA RESULT:     -11.1      4.661     10.407
REMARK  Name = 448407
REMARK  4 active torsions:
REMARK  status: ('A' for Active; 'I' for Inactive)
REMARK    1  A    between atoms: C_1  and  N_8
REMARK    2  A    between atoms: C_2  and  C_23
REMARK    3  A    between atoms: N_22  and  C_25
REMARK    4  A    between atoms: C_25  and  C_28
REMARK                            x       y       z     vdW  Elec       q    Type
REMARK                         _______ _______ _______ _____ _____    ______ ____
ROOT
ATOM      1  C   UNL     1      35.117 -18.505 -20.794  0.00  0.00    +0.090 C 
ATOM      2  C   UNL     1      34.798 -20.628 -19.646  0.00  0.00    +0.055 C 
ATOM      3  C   UNL     1      34.271 -19.501 -20.276  0.00  0.00    +0.023 C 
ATOM      4  C   UNL     1      36.507 -18.672 -20.664  0.00  0.00    +0.018 C 
ATOM      5  C   UNL     1      36.180 -20.778 -19.526  0.00  0.00    +0.005 C 
ATOM      6  C   UNL     1      37.034 -19.799 -20.036  0.00  0.00    +0.002 C 
ENDROOT
BRANCH   1   8
ATOM      7  O   UNL     1      34.574 -16.187 -25.411  0.00  0.00    -0.207 OA
ATOM      8  N   UNL     1      34.591 -17.382 -21.422  0.00  0.00    -0.137 N 
ATOM      9  N   UNL     1      34.580 -16.131 -20.889  0.00  0.00    -0.215 N 
ATOM     10  N   UNL     1      34.589 -17.342 -22.814  0.00  0.00    -0.143 NA
ATOM     11  N   UNL     1      34.556 -13.958 -22.041  0.00  0.00    -0.309 NA
ATOM     12  N   UNL     1      34.553 -14.077 -24.452  0.00  0.00    -0.251 NA
ATOM     13  N   UNL     1      34.534 -12.024 -23.386  0.00  0.00    -0.283 N 
ATOM     14  C   UNL     1      34.570 -15.233 -21.905  0.00  0.00    +0.243 C 
ATOM     15  C   UNL     1      34.575 -16.079 -23.108  0.00  0.00    +0.241 C 
ATOM     16  C   UNL     1      34.567 -15.451 -24.436  0.00  0.00    +0.239 C 
ATOM     17  C   UNL     1      34.549 -13.399 -23.321  0.00  0.00    +0.208 C 
ATOM     18  H   UNL     1      34.580 -15.914 -19.929  0.00  0.00    +0.175 HD
ATOM     19  H   UNL     1      34.531 -11.491 -22.558  0.00  0.00    +0.156 HD
ATOM     20  H   UNL     1      34.529 -11.573 -24.261  0.00  0.00    +0.156 HD
ENDBRANCH   1   8
BRANCH   2  23
ATOM     21  O   UNL     1      32.776 -21.813 -19.604  0.00  0.00    -0.270 OA
ATOM     22  N   UNL     1      34.397 -22.436 -18.068  0.00  0.00    -0.297 N 
ATOM     23  C   UNL     1      33.909 -21.649 -19.117  0.00  0.00    +0.246 C 
ATOM     24  H   UNL     1      35.303 -22.252 -17.730  0.00  0.00    +0.150 HD
BRANCH  22  25
ATOM     25  C   UNL     1      33.642 -23.504 -17.453  0.00  0.00    +0.117 C 
BRANCH  25  28
ATOM     26 CL   UNL     1      36.562 -23.261 -13.157  0.00  0.00    -0.082 Cl
ATOM     27 CL   UNL     1      31.177 -23.458 -12.874  0.00  0.00    -0.082 Cl
ATOM     28  C   UNL     1      33.719 -23.455 -15.953  0.00  0.00    -0.001 C 
ATOM     29  C   UNL     1      32.548 -23.476 -15.204  0.00  0.00    +0.009 C 
ATOM     30  C   UNL     1      34.959 -23.389 -15.331  0.00  0.00    +0.009 C 
ATOM     31  C   UNL     1      35.031 -23.344 -13.938  0.00  0.00    +0.058 C 
ATOM     32  C   UNL     1      32.619 -23.431 -13.812  0.00  0.00    +0.058 C 
ATOM     33  C   UNL     1      33.861 -23.364 -13.178  0.00  0.00    +0.023 C 
ENDBRANCH  25  28
ENDBRANCH  22  25
ENDBRANCH   2  23
TORSDOF 4
ENDMDL
MODEL 9
REMARK VINA RESULT:     -10.8      4.775     10.435
REMARK  Name = 448407
REMARK  4 active torsions:
REMARK  status: ('A' for Active; 'I' for Inactive)
REMARK    1  A    between atoms: C_1  and  N_8
REMARK    2  A    between atoms: C_2  and  C_23
REMARK    3  A    between atoms: N_22  and  C_25
REMARK    4  A    between atoms: C_25  and  C_28
REMARK                            x       y       z     vdW  Elec       q    Type
REMARK                         _______ _______ _______ _____ _____    ______ ____
ROOT
ATOM      1  C   UNL     1      34.856 -16.331 -22.297  0.00  0.00    +0.090 C 
ATOM      2  C   UNL     1      35.897 -18.423 -21.616  0.00  0.00    +0.055 C 
ATOM      3  C   UNL     1      35.742 -17.044 -21.471  0.00  0.00    +0.023 C 
ATOM      4  C   UNL     1      34.130 -17.038 -23.271  0.00  0.00    +0.018 C 
ATOM      5  C   UNL     1      35.169 -19.109 -22.587  0.00  0.00    +0.005 C 
ATOM      6  C   UNL     1      34.285 -18.416 -23.414  0.00  0.00    +0.002 C 
ENDROOT
BRANCH   1   8
ATOM      7  O   UNL     1      31.998 -12.688 -19.939  0.00  0.00    -0.207 OA
ATOM      8  N   UNL     1      34.700 -14.957 -22.152  0.00  0.00    -0.137 N 
ATOM      9  N   UNL     1      34.882 -14.048 -23.147  0.00  0.00    -0.215 N 
ATOM     10  N   UNL     1      33.806 -14.489 -21.193  0.00  0.00    -0.143 NA
ATOM     11  N   UNL     1      33.870 -11.823 -23.414  0.00  0.00    -0.309 NA
ATOM     12  N   UNL     1      32.345 -11.174 -21.660  0.00  0.00    -0.251 NA
ATOM     13  N   UNL     1      32.765  -9.742 -23.427  0.00  0.00    -0.283 N 
ATOM     14  C   UNL     1      34.118 -12.960 -22.878  0.00  0.00    +0.243 C 
ATOM     15  C   UNL     1      33.458 -13.312 -21.612  0.00  0.00    +0.241 C 
ATOM     16  C   UNL     1      32.530 -12.359 -20.990  0.00  0.00    +0.239 C 
ATOM     17  C   UNL     1      32.981 -10.943 -22.792  0.00  0.00    +0.208 C 
ATOM     18  H   UNL     1      35.467 -14.161 -23.930  0.00  0.00    +0.175 HD
ATOM     19  H   UNL     1      33.227  -9.542 -24.274  0.00  0.00    +0.156 HD
ATOM     20  H   UNL     1      32.149  -9.082 -23.035  0.00  0.00    +0.156 HD
ENDBRANCH   1   8
BRANCH   2  23
ATOM     21  O   UNL     1      38.010 -18.803 -20.673  0.00  0.00    -0.270 OA
ATOM     22  N   UNL     1      36.290 -20.212 -20.012  0.00  0.00    -0.297 N 
ATOM     23  C   UNL     1      36.817 -19.146 -20.752  0.00  0.00    +0.246 C 
ATOM     24  H   UNL     1      35.337 -20.429 -20.124  0.00  0.00    +0.150 HD
BRANCH  22  25
ATOM     25  C   UNL     1      37.071 -21.010 -19.095  0.00  0.00    +0.117 C 
BRANCH  25  28
ATOM     26 CL   UNL     1      32.406 -22.719 -17.560  0.00  0.00    -0.082 Cl
ATOM     27 CL   UNL     1      36.695 -22.976 -14.296  0.00  0.00    -0.082 Cl
ATOM     28  C   UNL     1      36.219 -21.630 -18.025  0.00  0.00    -0.001 C 
ATOM     29  C   UNL     1      36.790 -21.973 -16.804  0.00  0.00    +0.009 C 
ATOM     30  C   UNL     1      34.869 -21.856 -18.266  0.00  0.00    +0.009 C 
ATOM     31  C   UNL     1      34.078 -22.433 -17.272  0.00  0.00    +0.058 C 
ATOM     32  C   UNL     1      35.999 -22.549 -15.810  0.00  0.00    +0.058 C 
ATOM     33  C   UNL     1      34.643 -22.780 -16.044  0.00  0.00    +0.023 C 
ENDBRANCH  25  28
ENDBRANCH  22  25
ENDBRANCH   2  23
TORSDOF 4
ENDMDL
