MODEL 1
REMARK VINA RESULT:     -11.2      0.000      0.000
REMARK  Name = 10182969
REMARK  5 active torsions:
REMARK  status: ('A' for Active; 'I' for Inactive)
REMARK    1  A    between atoms: N_2  and  C_11
REMARK    2  A    between atoms: N_3  and  C_24
REMARK    3  A    between atoms: C_10  and  C_34
REMARK    4  A    between atoms: C_12  and  N_18
REMARK    5  A    between atoms: C_29  and  O_30
REMARK                            x       y       z     vdW  Elec       q    Type
REMARK                         _______ _______ _______ _____ _____    ______ ____
ROOT
ATOM      1  O   UNL     1      31.994 -22.053 -17.224  0.00  0.00    -0.268 OA
ATOM      2  N   UNL     1      34.332 -22.152 -17.524  0.00  0.00    -0.254 N 
ATOM      3  N   UNL     1      32.311 -23.672 -14.795  0.00  0.00    -0.225 N 
ATOM      4  N   UNL     1      32.807 -24.330 -13.730  0.00  0.00    -0.161 NA
ATOM      5  C   UNL     1      35.754 -23.101 -15.646  0.00  0.00    +0.052 C 
ATOM      6  C   UNL     1      35.565 -22.908 -17.161  0.00  0.00    +0.103 C 
ATOM      7  C   UNL     1      34.471 -23.504 -15.046  0.00  0.00    +0.026 A 
ATOM      8  C   UNL     1      33.271 -23.163 -15.621  0.00  0.00    +0.134 A 
ATOM      9  C   UNL     1      33.106 -22.406 -16.840  0.00  0.00    +0.270 C 
ATOM     10  C   UNL     1      34.131 -24.221 -13.887  0.00  0.00    +0.152 A 
ENDROOT
BRANCH   2  11
ATOM     11  C   UNL     1      34.371 -21.314 -18.697  0.00  0.00    +0.054 C 
ATOM     12  C   UNL     1      34.447 -19.694 -20.960  0.00  0.00    +0.054 C 
ATOM     13  C   UNL     1      35.597 -20.958 -19.250  0.00  0.00    +0.016 C 
ATOM     14  C   UNL     1      33.183 -20.868 -19.267  0.00  0.00    +0.016 C 
ATOM     15  C   UNL     1      35.636 -20.146 -20.384  0.00  0.00    +0.016 C 
ATOM     16  C   UNL     1      33.221 -20.056 -20.400  0.00  0.00    +0.016 C 
BRANCH  12  18
ATOM     17  O   UNL     1      35.411 -16.984 -21.056  0.00  0.00    -0.275 OA
ATOM     18  N   UNL     1      34.486 -18.853 -22.135  0.00  0.00    -0.259 N 
ATOM     19  C   UNL     1      33.719 -19.296 -23.311  0.00  0.00    +0.098 C 
ATOM     20  C   UNL     1      34.204 -18.715 -24.629  0.00  0.00    +0.022 C 
ATOM     21  C   UNL     1      34.316 -17.213 -24.498  0.00  0.00    +0.011 C 
ATOM     22  C   UNL     1      35.326 -16.893 -23.417  0.00  0.00    +0.086 C 
ATOM     23  C   UNL     1      35.059 -17.570 -22.083  0.00  0.00    +0.229 C 
ENDBRANCH  12  18
ENDBRANCH   2  11
BRANCH   3  24
ATOM     24  C   UNL     1      30.928 -23.584 -14.958  0.00  0.00    +0.083 C 
ATOM     25  C   UNL     1      30.241 -24.626 -15.568  0.00  0.00    +0.022 C 
ATOM     26  C   UNL     1      30.255 -22.454 -14.510  0.00  0.00    +0.022 C 
ATOM     27  C   UNL     1      28.859 -24.537 -15.732  0.00  0.00    +0.038 C 
ATOM     28  C   UNL     1      28.873 -22.366 -14.674  0.00  0.00    +0.038 C 
ATOM     29  C   UNL     1      28.175 -23.408 -15.286  0.00  0.00    +0.139 C 
BRANCH  29  30
ATOM     30  O   UNL     1      26.826 -23.321 -15.445  0.00  0.00    -0.471 OA
ATOM     31  C   UNL     1      26.289 -22.036 -15.755  0.00  0.00    +0.252 C 
ENDBRANCH  29  30
ENDBRANCH   3  24
BRANCH  10  34
ATOM     32  O   UNL     1      34.919 -24.598 -11.691  0.00  0.00    -0.269 OA
ATOM     33  N   UNL     1      36.011 -25.662 -13.385  0.00  0.00    -0.324 N 
ATOM     34  C   UNL     1      35.013 -24.804 -12.918  0.00  0.00    +0.262 C 
ATOM     35  H   UNL     1      36.636 -26.080 -12.750  0.00  0.00    +0.145 HD
ATOM     36  H   UNL     1      36.089 -25.848 -14.348  0.00  0.00    +0.145 HD
ENDBRANCH  10  34
TORSDOF 5
ENDMDL
MODEL 2
REMARK VINA RESULT:     -10.6      1.041      1.566
REMARK  Name = 10182969
REMARK  5 active torsions:
REMARK  status: ('A' for Active; 'I' for Inactive)
REMARK    1  A    between atoms: N_2  and  C_11
REMARK    2  A    between atoms: N_3  and  C_24
REMARK    3  A    between atoms: C_10  and  C_34
REMARK    4  A    between atoms: C_12  and  N_18
REMARK    5  A    between atoms: C_29  and  O_30
REMARK                            x       y       z     vdW  Elec       q    Type
REMARK                         _______ _______ _______ _____ _____    ______ ____
ROOT
ATOM      1  O   UNL     1      32.222 -21.925 -17.450  0.00  0.00    -0.268 OA
ATOM      2  N   UNL     1      34.560 -21.977 -17.762  0.00  0.00    -0.254 N 
ATOM      3  N   UNL     1      32.573 -23.635 -15.089  0.00  0.00    -0.225 N 
ATOM      4  N   UNL     1      33.083 -24.328 -14.053  0.00  0.00    -0.161 NA
ATOM      5  C   UNL     1      36.003 -22.979 -15.928  0.00  0.00    +0.052 C 
ATOM      6  C   UNL     1      35.806 -22.728 -17.433  0.00  0.00    +0.103 C 
ATOM      7  C   UNL     1      34.729 -23.424 -15.340  0.00  0.00    +0.026 A 
ATOM      8  C   UNL     1      33.522 -23.079 -15.897  0.00  0.00    +0.134 A 
ATOM      9  C   UNL     1      33.340 -22.276 -17.084  0.00  0.00    +0.270 C 
ATOM     10  C   UNL     1      34.404 -24.193 -14.210  0.00  0.00    +0.152 A 
ENDROOT
BRANCH   2  11
ATOM     11  C   UNL     1      34.581 -21.092 -18.900  0.00  0.00    +0.054 C 
ATOM     12  C   UNL     1      34.624 -19.382 -21.096  0.00  0.00    +0.054 C 
ATOM     13  C   UNL     1      35.799 -20.644 -19.403  0.00  0.00    +0.016 C 
ATOM     14  C   UNL     1      33.385 -20.692 -19.487  0.00  0.00    +0.016 C 
ATOM     15  C   UNL     1      35.821 -19.787 -20.504  0.00  0.00    +0.016 C 
ATOM     16  C   UNL     1      33.406 -19.834 -20.587  0.00  0.00    +0.016 C 
BRANCH  12  18
ATOM     17  O   UNL     1      34.467 -20.186 -23.855  0.00  0.00    -0.275 OA
ATOM     18  N   UNL     1      34.646 -18.494 -22.236  0.00  0.00    -0.259 N 
ATOM     19  C   UNL     1      35.064 -17.101 -22.004  0.00  0.00    +0.098 C 
ATOM     20  C   UNL     1      34.567 -16.116 -23.049  0.00  0.00    +0.022 C 
ATOM     21  C   UNL     1      34.908 -16.639 -24.426  0.00  0.00    +0.011 C 
ATOM     22  C   UNL     1      34.210 -17.966 -24.629  0.00  0.00    +0.086 C 
ATOM     23  C   UNL     1      34.476 -18.992 -23.541  0.00  0.00    +0.229 C 
ENDBRANCH  12  18
ENDBRANCH   2  11
BRANCH   3  24
ATOM     24  C   UNL     1      31.188 -23.562 -15.244  0.00  0.00    +0.083 C 
ATOM     25  C   UNL     1      30.499 -22.465 -14.742  0.00  0.00    +0.022 C 
ATOM     26  C   UNL     1      30.515 -24.587 -15.896  0.00  0.00    +0.022 C 
ATOM     27  C   UNL     1      29.115 -22.393 -14.894  0.00  0.00    +0.038 C 
ATOM     28  C   UNL     1      29.131 -24.514 -16.050  0.00  0.00    +0.038 C 
ATOM     29  C   UNL     1      28.430 -23.416 -15.548  0.00  0.00    +0.139 C 
BRANCH  29  30
ATOM     30  O   UNL     1      27.079 -23.346 -15.698  0.00  0.00    -0.471 OA
ATOM     31  C   UNL     1      26.498 -22.043 -15.752  0.00  0.00    +0.252 C 
ENDBRANCH  29  30
ENDBRANCH   3  24
BRANCH  10  34
ATOM     32  O   UNL     1      36.317 -25.442 -13.602  0.00  0.00    -0.269 OA
ATOM     33  N   UNL     1      35.017 -24.639 -11.910  0.00  0.00    -0.324 N 
ATOM     34  C   UNL     1      35.299 -24.801 -13.268  0.00  0.00    +0.262 C 
ATOM     35  H   UNL     1      35.608 -25.042 -11.234  0.00  0.00    +0.145 HD
ATOM     36  H   UNL     1      34.228 -24.122 -11.630  0.00  0.00    +0.145 HD
ENDBRANCH  10  34
TORSDOF 5
ENDMDL
MODEL 3
REMARK VINA RESULT:     -10.4      1.029      1.609
REMARK  Name = 10182969
REMARK  5 active torsions:
REMARK  status: ('A' for Active; 'I' for Inactive)
REMARK    1  A    between atoms: N_2  and  C_11
REMARK    2  A    between atoms: N_3  and  C_24
REMARK    3  A    between atoms: C_10  and  C_34
REMARK    4  A    between atoms: C_12  and  N_18
REMARK    5  A    between atoms: C_29  and  O_30
REMARK                            x       y       z     vdW  Elec       q    Type
REMARK                         _______ _______ _______ _____ _____    ______ ____
ROOT
ATOM      1  O   UNL     1      32.871 -22.049 -17.136  0.00  0.00    -0.268 OA
ATOM      2  N   UNL     1      35.175 -21.895 -17.622  0.00  0.00    -0.254 N 
ATOM      3  N   UNL     1      33.556 -23.580 -14.727  0.00  0.00    -0.225 N 
ATOM      4  N   UNL     1      34.205 -24.160 -13.698  0.00  0.00    -0.161 NA
ATOM      5  C   UNL     1      36.837 -22.647 -15.854  0.00  0.00    +0.052 C 
ATOM      6  C   UNL     1      36.510 -22.503 -17.351  0.00  0.00    +0.103 C 
ATOM      7  C   UNL     1      35.658 -23.178 -15.150  0.00  0.00    +0.026 A 
ATOM      8  C   UNL     1      34.386 -22.982 -15.631  0.00  0.00    +0.134 A 
ATOM      9  C   UNL     1      34.042 -22.270 -16.839  0.00  0.00    +0.270 C 
ATOM     10  C   UNL     1      35.491 -23.909 -13.962  0.00  0.00    +0.152 A 
ENDROOT
BRANCH   2  11
ATOM     11  C   UNL     1      35.028 -21.079 -18.801  0.00  0.00    +0.054 C 
ATOM     12  C   UNL     1      34.745 -19.504 -21.079  0.00  0.00    +0.054 C 
ATOM     13  C   UNL     1      33.761 -20.846 -19.327  0.00  0.00    +0.016 C 
ATOM     14  C   UNL     1      36.155 -20.529 -19.405  0.00  0.00    +0.016 C 
ATOM     15  C   UNL     1      33.618 -20.057 -20.469  0.00  0.00    +0.016 C 
ATOM     16  C   UNL     1      36.013 -19.741 -20.547  0.00  0.00    +0.016 C 
BRANCH  12  18
ATOM     17  O   UNL     1      35.451 -16.722 -21.297  0.00  0.00    -0.275 OA
ATOM     18  N   UNL     1      34.598 -18.686 -22.262  0.00  0.00    -0.259 N 
ATOM     19  C   UNL     1      33.767 -19.218 -23.356  0.00  0.00    +0.098 C 
ATOM     20  C   UNL     1      34.074 -18.622 -24.720  0.00  0.00    +0.022 C 
ATOM     21  C   UNL     1      34.064 -17.114 -24.617  0.00  0.00    +0.011 C 
ATOM     22  C   UNL     1      35.137 -16.686 -23.641  0.00  0.00    +0.086 C 
ATOM     23  C   UNL     1      35.057 -17.357 -22.280  0.00  0.00    +0.229 C 
ENDBRANCH  12  18
ENDBRANCH   2  11
BRANCH   3  24
ATOM     24  C   UNL     1      32.164 -23.648 -14.779  0.00  0.00    +0.083 C 
ATOM     25  C   UNL     1      31.405 -22.606 -14.262  0.00  0.00    +0.022 C 
ATOM     26  C   UNL     1      31.553 -24.759 -15.347  0.00  0.00    +0.022 C 
ATOM     27  C   UNL     1      30.013 -22.675 -14.313  0.00  0.00    +0.038 C 
ATOM     28  C   UNL     1      30.160 -24.828 -15.399  0.00  0.00    +0.038 C 
ATOM     29  C   UNL     1      29.391 -23.785 -14.881  0.00  0.00    +0.139 C 
BRANCH  29  30
ATOM     30  O   UNL     1      28.032 -23.853 -14.932  0.00  0.00    -0.471 OA
ATOM     31  C   UNL     1      27.340 -22.691 -15.388  0.00  0.00    +0.252 C 
ENDBRANCH  29  30
ENDBRANCH   3  24
BRANCH  10  34
ATOM     32  O   UNL     1      37.547 -23.731 -12.809  0.00  0.00    -0.269 OA
ATOM     33  N   UNL     1      36.296 -25.597 -12.423  0.00  0.00    -0.324 N 
ATOM     34  C   UNL     1      36.507 -24.373 -13.061  0.00  0.00    +0.262 C 
ATOM     35  H   UNL     1      36.970 -25.948 -11.798  0.00  0.00    +0.145 HD
ATOM     36  H   UNL     1      35.473 -26.108 -12.599  0.00  0.00    +0.145 HD
ENDBRANCH  10  34
TORSDOF 5
ENDMDL
MODEL 4
REMARK VINA RESULT:     -10.4      2.062      5.117
REMARK  Name = 10182969
REMARK  5 active torsions:
REMARK  status: ('A' for Active; 'I' for Inactive)
REMARK    1  A    between atoms: N_2  and  C_11
REMARK    2  A    between atoms: N_3  and  C_24
REMARK    3  A    between atoms: C_10  and  C_34
REMARK    4  A    between atoms: C_12  and  N_18
REMARK    5  A    between atoms: C_29  and  O_30
REMARK                            x       y       z     vdW  Elec       q    Type
REMARK                         _______ _______ _______ _____ _____    ______ ____
ROOT
ATOM      1  O   UNL     1      35.040 -22.771 -16.608  0.00  0.00    -0.268 OA
ATOM      2  N   UNL     1      32.857 -22.176 -17.275  0.00  0.00    -0.254 N 
ATOM      3  N   UNL     1      33.867 -24.357 -14.435  0.00  0.00    -0.225 N 
ATOM      4  N   UNL     1      33.023 -25.030 -13.629  0.00  0.00    -0.161 NA
ATOM      5  C   UNL     1      30.895 -23.376 -16.197  0.00  0.00    +0.052 C 
ATOM      6  C   UNL     1      31.440 -22.079 -16.820  0.00  0.00    +0.103 C 
ATOM      7  C   UNL     1      31.900 -23.931 -15.275  0.00  0.00    +0.026 A 
ATOM      8  C   UNL     1      33.240 -23.674 -15.436  0.00  0.00    +0.134 A 
ATOM      9  C   UNL     1      33.823 -22.858 -16.475  0.00  0.00    +0.270 C 
ATOM     10  C   UNL     1      31.820 -24.767 -14.150  0.00  0.00    +0.152 A 
ENDROOT
BRANCH   2  11
ATOM     11  C   UNL     1      33.253 -21.409 -18.429  0.00  0.00    +0.054 C 
ATOM     12  C   UNL     1      34.019 -19.924 -20.656  0.00  0.00    +0.054 C 
ATOM     13  C   UNL     1      34.591 -21.376 -18.810  0.00  0.00    +0.016 C 
ATOM     14  C   UNL     1      32.295 -20.706 -19.153  0.00  0.00    +0.016 C 
ATOM     15  C   UNL     1      34.975 -20.632 -19.927  0.00  0.00    +0.016 C 
ATOM     16  C   UNL     1      32.678 -19.961 -20.269  0.00  0.00    +0.016 C 
BRANCH  12  18
ATOM     17  O   UNL     1      35.579 -17.506 -20.610  0.00  0.00    -0.275 OA
ATOM     18  N   UNL     1      34.415 -19.154 -21.813  0.00  0.00    -0.259 N 
ATOM     19  C   UNL     1      33.743 -19.451 -23.089  0.00  0.00    +0.098 C 
ATOM     20  C   UNL     1      34.531 -19.039 -24.322  0.00  0.00    +0.022 C 
ATOM     21  C   UNL     1      34.963 -17.597 -24.176  0.00  0.00    +0.011 C 
ATOM     22  C   UNL     1      35.854 -17.477 -22.959  0.00  0.00    +0.086 C 
ATOM     23  C   UNL     1      35.252 -18.031 -21.678  0.00  0.00    +0.229 C 
ENDBRANCH  12  18
ENDBRANCH   2  11
BRANCH   3  24
ATOM     24  C   UNL     1      35.237 -24.407 -14.180  0.00  0.00    +0.083 C 
ATOM     25  C   UNL     1      35.841 -23.376 -13.471  0.00  0.00    +0.022 C 
ATOM     26  C   UNL     1      35.982 -25.486 -14.639  0.00  0.00    +0.022 C 
ATOM     27  C   UNL     1      37.212 -23.425 -13.218  0.00  0.00    +0.038 C 
ATOM     28  C   UNL     1      37.353 -25.535 -14.385  0.00  0.00    +0.038 C 
ATOM     29  C   UNL     1      37.968 -24.503 -13.674  0.00  0.00    +0.139 C 
BRANCH  29  30
ATOM     30  O   UNL     1      39.305 -24.551 -13.426  0.00  0.00    -0.471 OA
ATOM     31  C   UNL     1      40.095 -25.379 -14.279  0.00  0.00    +0.252 C 
ENDBRANCH  29  30
ENDBRANCH   3  24
BRANCH  10  34
ATOM     32  O   UNL     1      29.903 -26.150 -14.134  0.00  0.00    -0.269 OA
ATOM     33  N   UNL     1      30.342 -24.959 -12.241  0.00  0.00    -0.324 N 
ATOM     34  C   UNL     1      30.645 -25.333 -13.552  0.00  0.00    +0.262 C 
ATOM     35  H   UNL     1      29.544 -25.326 -11.798  0.00  0.00    +0.145 HD
ATOM     36  H   UNL     1      30.926 -24.328 -11.762  0.00  0.00    +0.145 HD
ENDBRANCH  10  34
TORSDOF 5
ENDMDL
MODEL 5
REMARK VINA RESULT:      -9.8     10.595     17.386
REMARK  Name = 10182969
REMARK  5 active torsions:
REMARK  status: ('A' for Active; 'I' for Inactive)
REMARK    1  A    between atoms: N_2  and  C_11
REMARK    2  A    between atoms: N_3  and  C_24
REMARK    3  A    between atoms: C_10  and  C_34
REMARK    4  A    between atoms: C_12  and  N_18
REMARK    5  A    between atoms: C_29  and  O_30
REMARK                            x       y       z     vdW  Elec       q    Type
REMARK                         _______ _______ _______ _____ _____    ______ ____
ROOT
ATOM      1  O   UNL     1      33.942  -7.572 -24.565  0.00  0.00    -0.268 OA
ATOM      2  N   UNL     1      32.597  -8.333 -22.782  0.00  0.00    -0.254 N 
ATOM      3  N   UNL     1      33.087  -4.833 -23.944  0.00  0.00    -0.225 N 
ATOM      4  N   UNL     1      32.574  -3.736 -23.354  0.00  0.00    -0.161 NA
ATOM      5  C   UNL     1      31.589  -6.614 -21.208  0.00  0.00    +0.052 C 
ATOM      6  C   UNL     1      31.447  -7.981 -21.901  0.00  0.00    +0.103 C 
ATOM      7  C   UNL     1      32.065  -5.622 -22.186  0.00  0.00    +0.026 A 
ATOM      8  C   UNL     1      32.803  -5.994 -23.284  0.00  0.00    +0.134 A 
ATOM      9  C   UNL     1      33.190  -7.343 -23.622  0.00  0.00    +0.270 C 
ATOM     10  C   UNL     1      31.951  -4.225 -22.277  0.00  0.00    +0.152 A 
ENDROOT
BRANCH   2  11
ATOM     11  C   UNL     1      32.959  -9.724 -22.900  0.00  0.00    +0.054 C 
ATOM     12  C   UNL     1      33.657 -12.409 -23.131  0.00  0.00    +0.054 C 
ATOM     13  C   UNL     1      33.910 -10.112 -23.840  0.00  0.00    +0.016 C 
ATOM     14  C   UNL     1      32.356 -10.667 -22.075  0.00  0.00    +0.016 C 
ATOM     15  C   UNL     1      34.260 -11.458 -23.956  0.00  0.00    +0.016 C 
ATOM     16  C   UNL     1      32.705 -12.013 -22.191  0.00  0.00    +0.016 C 
BRANCH  12  18
ATOM     17  O   UNL     1      33.004 -14.133 -25.342  0.00  0.00    -0.275 OA
ATOM     18  N   UNL     1      34.019 -13.803 -23.250  0.00  0.00    -0.259 N 
ATOM     19  C   UNL     1      34.508 -14.483 -22.038  0.00  0.00    +0.098 C 
ATOM     20  C   UNL     1      35.357 -15.714 -22.311  0.00  0.00    +0.022 C 
ATOM     21  C   UNL     1      34.621 -16.622 -23.271  0.00  0.00    +0.011 C 
ATOM     22  C   UNL     1      34.399 -15.879 -24.570  0.00  0.00    +0.086 C 
ATOM     23  C   UNL     1      33.719 -14.528 -24.418  0.00  0.00    +0.229 C 
ENDBRANCH  12  18
ENDBRANCH   2  11
BRANCH   3  24
ATOM     24  C   UNL     1      33.817  -4.694 -25.124  0.00  0.00    +0.083 C 
ATOM     25  C   UNL     1      35.200  -4.819 -25.095  0.00  0.00    +0.022 C 
ATOM     26  C   UNL     1      33.152  -4.430 -26.315  0.00  0.00    +0.022 C 
ATOM     27  C   UNL     1      35.930  -4.678 -26.275  0.00  0.00    +0.038 C 
ATOM     28  C   UNL     1      33.882  -4.290 -27.495  0.00  0.00    +0.038 C 
ATOM     29  C   UNL     1      35.272  -4.413 -27.475  0.00  0.00    +0.139 C 
BRANCH  29  30
ATOM     30  O   UNL     1      35.984  -4.277 -28.627  0.00  0.00    -0.471 OA
ATOM     31  C   UNL     1      35.248  -4.003 -29.818  0.00  0.00    +0.252 C 
ENDBRANCH  29  30
ENDBRANCH   3  24
BRANCH  10  34
ATOM     32  O   UNL     1      31.877  -2.538 -20.623  0.00  0.00    -0.269 OA
ATOM     33  N   UNL     1      29.883  -3.351 -21.371  0.00  0.00    -0.324 N 
ATOM     34  C   UNL     1      31.279  -3.333 -21.377  0.00  0.00    +0.262 C 
ATOM     35  H   UNL     1      29.387  -2.754 -20.766  0.00  0.00    +0.145 HD
ATOM     36  H   UNL     1      29.396  -3.961 -21.970  0.00  0.00    +0.145 HD
ENDBRANCH  10  34
TORSDOF 5
ENDMDL
MODEL 6
REMARK VINA RESULT:      -9.5     10.623     17.421
REMARK  Name = 10182969
REMARK  5 active torsions:
REMARK  status: ('A' for Active; 'I' for Inactive)
REMARK    1  A    between atoms: N_2  and  C_11
REMARK    2  A    between atoms: N_3  and  C_24
REMARK    3  A    between atoms: C_10  and  C_34
REMARK    4  A    between atoms: C_12  and  N_18
REMARK    5  A    between atoms: C_29  and  O_30
REMARK                            x       y       z     vdW  Elec       q    Type
REMARK                         _______ _______ _______ _____ _____    ______ ____
ROOT
ATOM      1  O   UNL     1      33.927  -7.500 -24.583  0.00  0.00    -0.268 OA
ATOM      2  N   UNL     1      32.602  -8.263 -22.787  0.00  0.00    -0.254 N 
ATOM      3  N   UNL     1      33.051  -4.765 -23.972  0.00  0.00    -0.225 N 
ATOM      4  N   UNL     1      32.531  -3.669 -23.386  0.00  0.00    -0.161 NA
ATOM      5  C   UNL     1      31.588  -6.544 -21.216  0.00  0.00    +0.052 C 
ATOM      6  C   UNL     1      31.454  -7.916 -21.899  0.00  0.00    +0.103 C 
ATOM      7  C   UNL     1      32.048  -5.553 -22.203  0.00  0.00    +0.026 A 
ATOM      8  C   UNL     1      32.782  -5.924 -23.304  0.00  0.00    +0.134 A 
ATOM      9  C   UNL     1      33.179  -7.272 -23.637  0.00  0.00    +0.270 C 
ATOM     10  C   UNL     1      31.921  -4.158 -22.301  0.00  0.00    +0.152 A 
ENDROOT
BRANCH   2  11
ATOM     11  C   UNL     1      32.976  -9.651 -22.899  0.00  0.00    +0.054 C 
ATOM     12  C   UNL     1      33.700 -12.330 -23.115  0.00  0.00    +0.054 C 
ATOM     13  C   UNL     1      32.345 -10.603 -22.105  0.00  0.00    +0.016 C 
ATOM     14  C   UNL     1      33.965 -10.028 -23.802  0.00  0.00    +0.016 C 
ATOM     15  C   UNL     1      32.707 -11.946 -22.213  0.00  0.00    +0.016 C 
ATOM     16  C   UNL     1      34.329 -11.371 -23.909  0.00  0.00    +0.016 C 
BRANCH  12  18
ATOM     17  O   UNL     1      35.199 -13.829 -21.169  0.00  0.00    -0.275 OA
ATOM     18  N   UNL     1      34.076 -13.722 -23.228  0.00  0.00    -0.259 N 
ATOM     19  C   UNL     1      33.940 -14.356 -24.550  0.00  0.00    +0.098 C 
ATOM     20  C   UNL     1      33.818 -15.870 -24.508  0.00  0.00    +0.022 C 
ATOM     21  C   UNL     1      34.941 -16.435 -23.667  0.00  0.00    +0.011 C 
ATOM     22  C   UNL     1      34.816 -15.892 -22.261  0.00  0.00    +0.086 C 
ATOM     23  C   UNL     1      34.737 -14.377 -22.174  0.00  0.00    +0.229 C 
ENDBRANCH  12  18
ENDBRANCH   2  11
BRANCH   3  24
ATOM     24  C   UNL     1      33.771  -4.626 -25.159  0.00  0.00    +0.083 C 
ATOM     25  C   UNL     1      33.096  -4.376 -26.346  0.00  0.00    +0.022 C 
ATOM     26  C   UNL     1      35.156  -4.742 -25.138  0.00  0.00    +0.022 C 
ATOM     27  C   UNL     1      33.816  -4.239 -27.533  0.00  0.00    +0.038 C 
ATOM     28  C   UNL     1      35.876  -4.603 -26.325  0.00  0.00    +0.038 C 
ATOM     29  C   UNL     1      35.205  -4.352 -27.522  0.00  0.00    +0.139 C 
BRANCH  29  30
ATOM     30  O   UNL     1      35.909  -4.218 -28.680  0.00  0.00    -0.471 OA
ATOM     31  C   UNL     1      35.159  -4.005 -29.875  0.00  0.00    +0.252 C 
ENDBRANCH  29  30
ENDBRANCH   3  24
BRANCH  10  34
ATOM     32  O   UNL     1      31.842  -2.462 -20.657  0.00  0.00    -0.269 OA
ATOM     33  N   UNL     1      29.850  -3.298 -21.386  0.00  0.00    -0.324 N 
ATOM     34  C   UNL     1      31.246  -3.267 -21.402  0.00  0.00    +0.262 C 
ATOM     35  H   UNL     1      29.353  -2.701 -20.781  0.00  0.00    +0.145 HD
ATOM     36  H   UNL     1      29.365  -3.916 -21.978  0.00  0.00    +0.145 HD
ENDBRANCH  10  34
TORSDOF 5
ENDMDL
