MODEL 1
REMARK VINA RESULT:     -11.9      0.000      0.000
REMARK  Name = 6852141
REMARK  6 active torsions:
REMARK  status: ('A' for Active; 'I' for Inactive)
REMARK    1  A    between atoms: C_3  and  N_18
REMARK    2  A    between atoms: C_7  and  C_31
REMARK    3  A    between atoms: C_9  and  C_13
REMARK    4  A    between atoms: C_19  and  C_21
REMARK    5  A    between atoms: C_24  and  O_28
REMARK    6  A    between atoms: C_31  and  O_32
REMARK                            x       y       z     vdW  Elec       q    Type
REMARK                         _______ _______ _______ _____ _____    ______ ____
ROOT
ATOM      1  C   UNL     1      32.402 -23.474 -15.057  0.00  0.00    +0.014 C 
ATOM      2  C   UNL     1      32.336 -24.318 -13.923  0.00  0.00    +0.001 C 
ATOM      3  C   UNL     1      33.658 -23.134 -15.587  0.00  0.00    +0.051 C 
ATOM      4  C   UNL     1      31.212 -22.995 -15.627  0.00  0.00    +0.004 C 
ATOM      5  C   UNL     1      33.526 -24.798 -13.352  0.00  0.00    +0.007 C 
ATOM      6  C   UNL     1      34.830 -23.621 -15.008  0.00  0.00    +0.021 C 
ATOM      7  C   UNL     1      34.764 -24.451 -13.893  0.00  0.00    +0.077 C 
ATOM      8  C   UNL     1      31.080 -24.657 -13.392  0.00  0.00    +0.000 C 
ATOM      9  C   UNL     1      29.974 -23.342 -15.086  0.00  0.00    +0.031 C 
ATOM     10  C   UNL     1      29.908 -24.173 -13.972  0.00  0.00    +0.003 C 
ENDROOT
BRANCH   9  13
ATOM     11  N   UNL     1      28.360 -23.225 -16.970  0.00  0.00    -0.343 N 
ATOM     12  N   UNL     1      27.987 -21.990 -15.022  0.00  0.00    -0.285 NA
ATOM     13  C   UNL     1      28.750 -22.838 -15.690  0.00  0.00    +0.117 C 
ATOM     14  H   UNL     1      27.528 -22.872 -17.360  0.00  0.00    +0.144 HD
ATOM     15  H   UNL     1      28.917 -23.853 -17.485  0.00  0.00    +0.144 HD
ATOM     16  H   UNL     1      27.159 -21.648 -15.428  0.00  0.00    +0.188 HD
ENDBRANCH   9  13
BRANCH   3  18
ATOM     17  O   UNL     1      33.839 -23.818 -18.500  0.00  0.00    -0.270 OA
ATOM     18  N   UNL     1      33.786 -22.302 -16.706  0.00  0.00    -0.280 N 
ATOM     19  C   UNL     1      33.866 -22.679 -18.050  0.00  0.00    +0.249 C 
ATOM     20  H   UNL     1      33.825 -21.336 -16.524  0.00  0.00    +0.155 HD
BRANCH  19  21
ATOM     21  C   UNL     1      34.029 -21.558 -19.012  0.00  0.00    +0.053 C 
ATOM     22  C   UNL     1      35.282 -21.043 -19.273  0.00  0.00    +0.016 C 
ATOM     23  C   UNL     1      32.892 -21.065 -19.622  0.00  0.00    +0.004 C 
ATOM     24  C   UNL     1      35.404 -19.991 -20.181  0.00  0.00    +0.130 C 
ATOM     25  C   UNL     1      36.504 -21.588 -18.604  0.00  0.00    +0.034 C 
ATOM     26  C   UNL     1      33.014 -20.014 -20.530  0.00  0.00    +0.003 C 
ATOM     27  C   UNL     1      34.270 -19.477 -20.809  0.00  0.00    +0.036 C 
BRANCH  24  28
ATOM     28  O   UNL     1      36.624 -19.454 -20.468  0.00  0.00    -0.506 OA
ATOM     29  H   UNL     1      37.116 -19.023 -19.797  0.00  0.00    +0.292 HD
ENDBRANCH  24  28
ENDBRANCH  19  21
ENDBRANCH   3  18
BRANCH   7  31
ATOM     30  O   UNL     1      36.162 -25.101 -12.072  0.00  0.00    -0.245 OA
ATOM     31  C   UNL     1      35.988 -24.956 -13.290  0.00  0.00    +0.341 C 
BRANCH  31  32
ATOM     32  O   UNL     1      36.930 -25.254 -14.237  0.00  0.00    -0.441 OA
ATOM     33  C   UNL     1      37.164 -26.641 -14.502  0.00  0.00    +0.256 C 
ENDBRANCH  31  32
ENDBRANCH   7  31
TORSDOF 6
ENDMDL
MODEL 2
REMARK VINA RESULT:     -11.8      0.867      1.414
REMARK  Name = 6852141
REMARK  6 active torsions:
REMARK  status: ('A' for Active; 'I' for Inactive)
REMARK    1  A    between atoms: C_3  and  N_18
REMARK    2  A    between atoms: C_7  and  C_31
REMARK    3  A    between atoms: C_9  and  C_13
REMARK    4  A    between atoms: C_19  and  C_21
REMARK    5  A    between atoms: C_24  and  O_28
REMARK    6  A    between atoms: C_31  and  O_32
REMARK                            x       y       z     vdW  Elec       q    Type
REMARK                         _______ _______ _______ _____ _____    ______ ____
ROOT
ATOM      1  C   UNL     1      31.853 -23.540 -14.980  0.00  0.00    +0.014 C 
ATOM      2  C   UNL     1      31.699 -24.338 -13.822  0.00  0.00    +0.001 C 
ATOM      3  C   UNL     1      33.142 -23.145 -15.376  0.00  0.00    +0.051 C 
ATOM      4  C   UNL     1      30.714 -23.159 -15.707  0.00  0.00    +0.004 C 
ATOM      5  C   UNL     1      32.838 -24.719 -13.093  0.00  0.00    +0.007 C 
ATOM      6  C   UNL     1      34.262 -23.534 -14.641  0.00  0.00    +0.021 C 
ATOM      7  C   UNL     1      34.110 -24.319 -13.502  0.00  0.00    +0.077 C 
ATOM      8  C   UNL     1      30.410 -24.731 -13.425  0.00  0.00    +0.000 C 
ATOM      9  C   UNL     1      29.442 -23.559 -15.299  0.00  0.00    +0.031 C 
ATOM     10  C   UNL     1      29.290 -24.345 -14.161  0.00  0.00    +0.003 C 
ENDROOT
BRANCH   9  13
ATOM     11  N   UNL     1      27.261 -22.388 -15.493  0.00  0.00    -0.343 N 
ATOM     12  N   UNL     1      28.154 -23.524 -17.329  0.00  0.00    -0.285 NA
ATOM     13  C   UNL     1      28.273 -23.156 -16.065  0.00  0.00    +0.117 C 
ATOM     14  H   UNL     1      26.478 -22.126 -16.029  0.00  0.00    +0.144 HD
ATOM     15  H   UNL     1      27.329 -22.107 -14.551  0.00  0.00    +0.144 HD
ATOM     16  H   UNL     1      27.364 -23.253 -17.849  0.00  0.00    +0.188 HD
ENDBRANCH   9  13
BRANCH   3  18
ATOM     17  O   UNL     1      33.798 -23.936 -18.192  0.00  0.00    -0.270 OA
ATOM     18  N   UNL     1      33.355 -22.355 -16.512  0.00  0.00    -0.280 N 
ATOM     19  C   UNL     1      33.661 -22.781 -17.808  0.00  0.00    +0.249 C 
ATOM     20  H   UNL     1      33.283 -21.382 -16.381  0.00  0.00    +0.155 HD
BRANCH  19  21
ATOM     21  C   UNL     1      33.860 -21.692 -18.800  0.00  0.00    +0.053 C 
ATOM     22  C   UNL     1      35.128 -21.214 -19.061  0.00  0.00    +0.016 C 
ATOM     23  C   UNL     1      32.742 -21.192 -19.437  0.00  0.00    +0.004 C 
ATOM     24  C   UNL     1      35.286 -20.193 -19.998  0.00  0.00    +0.130 C 
ATOM     25  C   UNL     1      36.329 -21.769 -18.362  0.00  0.00    +0.034 C 
ATOM     26  C   UNL     1      32.900 -20.170 -20.374  0.00  0.00    +0.003 C 
ATOM     27  C   UNL     1      34.172 -19.671 -20.654  0.00  0.00    +0.036 C 
BRANCH  24  28
ATOM     28  O   UNL     1      36.521 -19.693 -20.286  0.00  0.00    -0.506 OA
ATOM     29  H   UNL     1      36.806 -18.892 -19.890  0.00  0.00    +0.292 HD
ENDBRANCH  24  28
ENDBRANCH  19  21
ENDBRANCH   3  18
BRANCH   7  31
ATOM     30  O   UNL     1      36.394 -24.952 -13.227  0.00  0.00    -0.245 OA
ATOM     31  C   UNL     1      35.280 -24.722 -12.736  0.00  0.00    +0.341 C 
BRANCH  31  32
ATOM     32  O   UNL     1      34.999 -24.818 -11.400  0.00  0.00    -0.441 OA
ATOM     33  C   UNL     1      35.856 -24.099 -10.506  0.00  0.00    +0.256 C 
ENDBRANCH  31  32
ENDBRANCH   7  31
TORSDOF 6
ENDMDL
MODEL 3
REMARK VINA RESULT:     -11.7      2.439      5.328
REMARK  Name = 6852141
REMARK  6 active torsions:
REMARK  status: ('A' for Active; 'I' for Inactive)
REMARK    1  A    between atoms: C_3  and  N_18
REMARK    2  A    between atoms: C_7  and  C_31
REMARK    3  A    between atoms: C_9  and  C_13
REMARK    4  A    between atoms: C_19  and  C_21
REMARK    5  A    between atoms: C_24  and  O_28
REMARK    6  A    between atoms: C_31  and  O_32
REMARK                            x       y       z     vdW  Elec       q    Type
REMARK                         _______ _______ _______ _____ _____    ______ ____
ROOT
ATOM      1  C   UNL     1      32.185 -23.367 -15.239  0.00  0.00    +0.014 C 
ATOM      2  C   UNL     1      31.166 -23.996 -14.485  0.00  0.00    +0.001 C 
ATOM      3  C   UNL     1      31.844 -22.675 -16.413  0.00  0.00    +0.051 C 
ATOM      4  C   UNL     1      33.515 -23.448 -14.797  0.00  0.00    +0.004 C 
ATOM      5  C   UNL     1      29.835 -23.915 -14.926  0.00  0.00    +0.007 C 
ATOM      6  C   UNL     1      30.516 -22.605 -16.836  0.00  0.00    +0.021 C 
ATOM      7  C   UNL     1      29.514 -23.224 -16.095  0.00  0.00    +0.077 C 
ATOM      8  C   UNL     1      31.508 -24.688 -13.312  0.00  0.00    +0.000 C 
ATOM      9  C   UNL     1      33.837 -24.139 -13.629  0.00  0.00    +0.031 C 
ATOM     10  C   UNL     1      32.835 -24.758 -12.887  0.00  0.00    +0.003 C 
ENDROOT
BRANCH   9  13
ATOM     11  N   UNL     1      35.973 -25.375 -13.347  0.00  0.00    -0.343 N 
ATOM     12  N   UNL     1      35.784 -23.165 -12.611  0.00  0.00    -0.285 NA
ATOM     13  C   UNL     1      35.220 -24.213 -13.185  0.00  0.00    +0.117 C 
ATOM     14  H   UNL     1      36.907 -25.403 -13.040  0.00  0.00    +0.144 HD
ATOM     15  H   UNL     1      35.568 -26.167 -13.770  0.00  0.00    +0.144 HD
ATOM     16  H   UNL     1      36.720 -23.212 -12.310  0.00  0.00    +0.188 HD
ENDBRANCH   9  13
BRANCH   3  18
ATOM     17  O   UNL     1      33.577 -23.750 -18.610  0.00  0.00    -0.270 OA
ATOM     18  N   UNL     1      32.809 -22.035 -17.200  0.00  0.00    -0.280 N 
ATOM     19  C   UNL     1      33.591 -22.590 -18.217  0.00  0.00    +0.249 C 
ATOM     20  H   UNL     1      32.953 -21.079 -17.014  0.00  0.00    +0.155 HD
BRANCH  19  21
ATOM     21  C   UNL     1      34.555 -21.655 -18.854  0.00  0.00    +0.053 C 
ATOM     22  C   UNL     1      34.108 -20.680 -19.722  0.00  0.00    +0.016 C 
ATOM     23  C   UNL     1      35.893 -21.802 -18.543  0.00  0.00    +0.004 C 
ATOM     24  C   UNL     1      35.035 -19.817 -20.305  0.00  0.00    +0.130 C 
ATOM     25  C   UNL     1      32.655 -20.534 -20.047  0.00  0.00    +0.034 C 
ATOM     26  C   UNL     1      36.821 -20.938 -19.127  0.00  0.00    +0.003 C 
ATOM     27  C   UNL     1      36.391 -19.946 -20.007  0.00  0.00    +0.036 C 
BRANCH  24  28
ATOM     28  O   UNL     1      34.635 -18.839 -21.167  0.00  0.00    -0.506 OA
ATOM     29  H   UNL     1      35.255 -18.212 -21.485  0.00  0.00    +0.292 HD
ENDBRANCH  24  28
ENDBRANCH  19  21
ENDBRANCH   3  18
BRANCH   7  31
ATOM     30  O   UNL     1      27.489 -24.105 -16.996  0.00  0.00    -0.245 OA
ATOM     31  C   UNL     1      28.130 -23.149 -16.539  0.00  0.00    +0.341 C 
BRANCH  31  32
ATOM     32  O   UNL     1      27.621 -21.888 -16.388  0.00  0.00    -0.441 OA
ATOM     33  C   UNL     1      26.306 -21.656 -16.904  0.00  0.00    +0.256 C 
ENDBRANCH  31  32
ENDBRANCH   7  31
TORSDOF 6
ENDMDL
MODEL 4
REMARK VINA RESULT:     -11.6      2.347      4.917
REMARK  Name = 6852141
REMARK  6 active torsions:
REMARK  status: ('A' for Active; 'I' for Inactive)
REMARK    1  A    between atoms: C_3  and  N_18
REMARK    2  A    between atoms: C_7  and  C_31
REMARK    3  A    between atoms: C_9  and  C_13
REMARK    4  A    between atoms: C_19  and  C_21
REMARK    5  A    between atoms: C_24  and  O_28
REMARK    6  A    between atoms: C_31  and  O_32
REMARK                            x       y       z     vdW  Elec       q    Type
REMARK                         _______ _______ _______ _____ _____    ______ ____
ROOT
ATOM      1  C   UNL     1      33.301 -23.374 -15.008  0.00  0.00    +0.014 C 
ATOM      2  C   UNL     1      32.771 -24.174 -13.969  0.00  0.00    +0.001 C 
ATOM      3  C   UNL     1      32.442 -22.893 -16.011  0.00  0.00    +0.051 C 
ATOM      4  C   UNL     1      34.673 -23.077 -15.015  0.00  0.00    +0.004 C 
ATOM      5  C   UNL     1      31.398 -24.471 -13.961  0.00  0.00    +0.007 C 
ATOM      6  C   UNL     1      31.081 -23.197 -15.987  0.00  0.00    +0.021 C 
ATOM      7  C   UNL     1      30.560 -23.985 -14.964  0.00  0.00    +0.077 C 
ATOM      8  C   UNL     1      33.630 -24.656 -12.967  0.00  0.00    +0.000 C 
ATOM      9  C   UNL     1      35.512 -23.563 -14.012  0.00  0.00    +0.031 C 
ATOM     10  C   UNL     1      34.991 -24.350 -12.989  0.00  0.00    +0.003 C 
ENDROOT
BRANCH   9  13
ATOM     11  N   UNL     1      37.643 -23.189 -15.231  0.00  0.00    -0.343 N 
ATOM     12  N   UNL     1      37.570 -23.008 -12.902  0.00  0.00    -0.285 NA
ATOM     13  C   UNL     1      36.931 -23.246 -14.034  0.00  0.00    +0.117 C 
ATOM     14  H   UNL     1      38.602 -22.973 -15.223  0.00  0.00    +0.144 HD
ATOM     15  H   UNL     1      37.184 -23.367 -16.084  0.00  0.00    +0.144 HD
ATOM     16  H   UNL     1      38.530 -22.793 -12.915  0.00  0.00    +0.188 HD
ENDBRANCH   9  13
BRANCH   3  18
ATOM     17  O   UNL     1      33.792 -23.668 -18.572  0.00  0.00    -0.270 OA
ATOM     18  N   UNL     1      32.909 -22.098 -17.065  0.00  0.00    -0.280 N 
ATOM     19  C   UNL     1      33.535 -22.517 -18.242  0.00  0.00    +0.249 C 
ATOM     20  H   UNL     1      32.782 -21.127 -16.963  0.00  0.00    +0.155 HD
BRANCH  19  21
ATOM     21  C   UNL     1      33.945 -21.424 -19.163  0.00  0.00    +0.053 C 
ATOM     22  C   UNL     1      35.266 -21.031 -19.229  0.00  0.00    +0.016 C 
ATOM     23  C   UNL     1      32.965 -20.833 -19.934  0.00  0.00    +0.004 C 
ATOM     24  C   UNL     1      35.623 -20.003 -20.102  0.00  0.00    +0.130 C 
ATOM     25  C   UNL     1      36.317 -21.684 -18.386  0.00  0.00    +0.034 C 
ATOM     26  C   UNL     1      33.321 -19.805 -20.807  0.00  0.00    +0.003 C 
ATOM     27  C   UNL     1      34.650 -19.391 -20.891  0.00  0.00    +0.036 C 
BRANCH  24  28
ATOM     28  O   UNL     1      36.917 -19.586 -20.199  0.00  0.00    -0.506 OA
ATOM     29  H   UNL     1      37.326 -19.157 -19.472  0.00  0.00    +0.292 HD
ENDBRANCH  24  28
ENDBRANCH  19  21
ENDBRANCH   3  18
BRANCH   7  31
ATOM     30  O   UNL     1      28.609 -25.086 -14.144  0.00  0.00    -0.245 OA
ATOM     31  C   UNL     1      29.140 -24.302 -14.943  0.00  0.00    +0.341 C 
BRANCH  31  32
ATOM     32  O   UNL     1      28.458 -23.624 -15.916  0.00  0.00    -0.441 OA
ATOM     33  C   UNL     1      27.509 -22.646 -15.480  0.00  0.00    +0.256 C 
ENDBRANCH  31  32
ENDBRANCH   7  31
TORSDOF 6
ENDMDL
MODEL 5
REMARK VINA RESULT:     -10.8      2.591      6.226
REMARK  Name = 6852141
REMARK  6 active torsions:
REMARK  status: ('A' for Active; 'I' for Inactive)
REMARK    1  A    between atoms: C_3  and  N_18
REMARK    2  A    between atoms: C_7  and  C_31
REMARK    3  A    between atoms: C_9  and  C_13
REMARK    4  A    between atoms: C_19  and  C_21
REMARK    5  A    between atoms: C_24  and  O_28
REMARK    6  A    between atoms: C_31  and  O_32
REMARK                            x       y       z     vdW  Elec       q    Type
REMARK                         _______ _______ _______ _____ _____    ______ ____
ROOT
ATOM      1  C   UNL     1      34.919 -22.204 -17.227  0.00  0.00    +0.014 C 
ATOM      2  C   UNL     1      36.309 -21.948 -17.290  0.00  0.00    +0.001 C 
ATOM      3  C   UNL     1      34.408 -22.966 -16.163  0.00  0.00    +0.051 C 
ATOM      4  C   UNL     1      34.080 -21.693 -18.231  0.00  0.00    +0.004 C 
ATOM      5  C   UNL     1      37.148 -22.459 -16.287  0.00  0.00    +0.007 C 
ATOM      6  C   UNL     1      35.257 -23.466 -15.175  0.00  0.00    +0.021 C 
ATOM      7  C   UNL     1      36.624 -23.214 -15.237  0.00  0.00    +0.077 C 
ATOM      8  C   UNL     1      36.820 -21.187 -18.355  0.00  0.00    +0.000 C 
ATOM      9  C   UNL     1      34.605 -20.938 -19.280  0.00  0.00    +0.031 C 
ATOM     10  C   UNL     1      35.972 -20.686 -19.342  0.00  0.00    +0.003 C 
ENDROOT
BRANCH   9  13
ATOM     11  N   UNL     1      32.339 -20.562 -20.224  0.00  0.00    -0.343 N 
ATOM     12  N   UNL     1      34.230 -19.788 -21.358  0.00  0.00    -0.285 NA
ATOM     13  C   UNL     1      33.722 -20.415 -20.311  0.00  0.00    +0.117 C 
ATOM     14  H   UNL     1      31.759 -20.200 -20.932  0.00  0.00    +0.144 HD
ATOM     15  H   UNL     1      31.941 -21.029 -19.453  0.00  0.00    +0.144 HD
ATOM     16  H   UNL     1      33.634 -19.433 -22.056  0.00  0.00    +0.188 HD
ENDBRANCH   9  13
BRANCH   3  18
ATOM     17  O   UNL     1      32.492 -22.415 -13.925  0.00  0.00    -0.270 OA
ATOM     18  N   UNL     1      33.042 -23.253 -16.050  0.00  0.00    -0.280 N 
ATOM     19  C   UNL     1      32.194 -22.971 -14.975  0.00  0.00    +0.249 C 
ATOM     20  H   UNL     1      32.631 -23.710 -16.819  0.00  0.00    +0.155 HD
BRANCH  19  21
ATOM     21  C   UNL     1      30.790 -23.431 -15.141  0.00  0.00    +0.053 C 
ATOM     22  C   UNL     1      30.291 -24.440 -14.344  0.00  0.00    +0.016 C 
ATOM     23  C   UNL     1      30.023 -22.814 -16.109  0.00  0.00    +0.004 C 
ATOM     24  C   UNL     1      28.969 -24.851 -14.522  0.00  0.00    +0.130 C 
ATOM     25  C   UNL     1      31.135 -25.098 -13.298  0.00  0.00    +0.034 C 
ATOM     26  C   UNL     1      28.701 -23.225 -16.287  0.00  0.00    +0.003 C 
ATOM     27  C   UNL     1      28.176 -24.242 -15.493  0.00  0.00    +0.036 C 
BRANCH  24  28
ATOM     28  O   UNL     1      28.437 -25.843 -13.754  0.00  0.00    -0.506 OA
ATOM     29  H   UNL     1      28.701 -25.937 -12.860  0.00  0.00    +0.292 HD
ENDBRANCH  24  28
ENDBRANCH  19  21
ENDBRANCH   3  18
BRANCH   7  31
ATOM     30  O   UNL     1      37.833 -23.119 -13.183  0.00  0.00    -0.245 OA
ATOM     31  C   UNL     1      37.507 -23.737 -14.205  0.00  0.00    +0.341 C 
BRANCH  31  32
ATOM     32  O   UNL     1      37.935 -25.002 -14.504  0.00  0.00    -0.441 OA
ATOM     33  C   UNL     1      39.226 -25.380 -14.013  0.00  0.00    +0.256 C 
ENDBRANCH  31  32
ENDBRANCH   7  31
TORSDOF 6
ENDMDL
MODEL 6
REMARK VINA RESULT:     -10.2      2.629      5.196
REMARK  Name = 6852141
REMARK  6 active torsions:
REMARK  status: ('A' for Active; 'I' for Inactive)
REMARK    1  A    between atoms: C_3  and  N_18
REMARK    2  A    between atoms: C_7  and  C_31
REMARK    3  A    between atoms: C_9  and  C_13
REMARK    4  A    between atoms: C_19  and  C_21
REMARK    5  A    between atoms: C_24  and  O_28
REMARK    6  A    between atoms: C_31  and  O_32
REMARK                            x       y       z     vdW  Elec       q    Type
REMARK                         _______ _______ _______ _____ _____    ______ ____
ROOT
ATOM      1  C   UNL     1      34.382 -23.523 -15.118  0.00  0.00    +0.014 C 
ATOM      2  C   UNL     1      33.745 -24.313 -14.132  0.00  0.00    +0.001 C 
ATOM      3  C   UNL     1      33.597 -22.803 -16.034  0.00  0.00    +0.051 C 
ATOM      4  C   UNL     1      35.785 -23.477 -15.160  0.00  0.00    +0.004 C 
ATOM      5  C   UNL     1      32.342 -24.359 -14.089  0.00  0.00    +0.007 C 
ATOM      6  C   UNL     1      32.205 -22.860 -15.976  0.00  0.00    +0.021 C 
ATOM      7  C   UNL     1      31.578 -23.637 -15.006  0.00  0.00    +0.077 C 
ATOM      8  C   UNL     1      34.530 -25.034 -13.217  0.00  0.00    +0.000 C 
ATOM      9  C   UNL     1      36.549 -24.199 -14.243  0.00  0.00    +0.031 C 
ATOM     10  C   UNL     1      35.922 -24.975 -13.273  0.00  0.00    +0.003 C 
ENDROOT
BRANCH   9  13
ATOM     11  N   UNL     1      38.790 -24.756 -13.331  0.00  0.00    -0.343 N 
ATOM     12  N   UNL     1      38.595 -23.487 -15.283  0.00  0.00    -0.285 NA
ATOM     13  C   UNL     1      38.001 -24.139 -14.300  0.00  0.00    +0.117 C 
ATOM     14  H   UNL     1      39.771 -24.703 -13.389  0.00  0.00    +0.144 HD
ATOM     15  H   UNL     1      38.366 -25.245 -12.588  0.00  0.00    +0.144 HD
ATOM     16  H   UNL     1      39.578 -23.445 -15.324  0.00  0.00    +0.188 HD
ENDBRANCH   9  13
BRANCH   3  18
ATOM     17  O   UNL     1      33.951 -23.323 -18.964  0.00  0.00    -0.270 OA
ATOM     18  N   UNL     1      34.172 -22.006 -17.032  0.00  0.00    -0.280 N 
ATOM     19  C   UNL     1      34.310 -22.302 -18.391  0.00  0.00    +0.249 C 
ATOM     20  H   UNL     1      34.520 -21.133 -16.741  0.00  0.00    +0.155 HD
BRANCH  19  21
ATOM     21  C   UNL     1      34.995 -21.258 -19.198  0.00  0.00    +0.053 C 
ATOM     22  C   UNL     1      34.260 -20.402 -19.993  0.00  0.00    +0.016 C 
ATOM     23  C   UNL     1      36.371 -21.186 -19.119  0.00  0.00    +0.004 C 
ATOM     24  C   UNL     1      34.930 -19.432 -20.740  0.00  0.00    +0.130 C 
ATOM     25  C   UNL     1      32.769 -20.494 -20.067  0.00  0.00    +0.034 C 
ATOM     26  C   UNL     1      37.041 -20.216 -19.866  0.00  0.00    +0.003 C 
ATOM     27  C   UNL     1      36.319 -19.340 -20.676  0.00  0.00    +0.036 C 
BRANCH  24  28
ATOM     28  O   UNL     1      34.242 -18.566 -21.536  0.00  0.00    -0.506 OA
ATOM     29  H   UNL     1      34.665 -17.798 -21.867  0.00  0.00    +0.292 HD
ENDBRANCH  24  28
ENDBRANCH  19  21
ENDBRANCH   3  18
BRANCH   7  31
ATOM     30  O   UNL     1      29.392 -22.719 -14.744  0.00  0.00    -0.245 OA
ATOM     31  C   UNL     1      30.125 -23.696 -14.949  0.00  0.00    +0.341 C 
BRANCH  31  32
ATOM     32  O   UNL     1      29.665 -24.968 -15.151  0.00  0.00    -0.441 OA
ATOM     33  C   UNL     1      28.950 -25.577 -14.070  0.00  0.00    +0.256 C 
ENDBRANCH  31  32
ENDBRANCH   7  31
TORSDOF 6
ENDMDL
MODEL 7
REMARK VINA RESULT:     -10.1      2.786      6.137
REMARK  Name = 6852141
REMARK  6 active torsions:
REMARK  status: ('A' for Active; 'I' for Inactive)
REMARK    1  A    between atoms: C_3  and  N_18
REMARK    2  A    between atoms: C_7  and  C_31
REMARK    3  A    between atoms: C_9  and  C_13
REMARK    4  A    between atoms: C_19  and  C_21
REMARK    5  A    between atoms: C_24  and  O_28
REMARK    6  A    between atoms: C_31  and  O_32
REMARK                            x       y       z     vdW  Elec       q    Type
REMARK                         _______ _______ _______ _____ _____    ______ ____
ROOT
ATOM      1  C   UNL     1      35.148 -22.810 -16.190  0.00  0.00    +0.014 C 
ATOM      2  C   UNL     1      36.520 -22.466 -16.184  0.00  0.00    +0.001 C 
ATOM      3  C   UNL     1      34.625 -23.569 -15.130  0.00  0.00    +0.051 C 
ATOM      4  C   UNL     1      34.338 -22.387 -17.257  0.00  0.00    +0.004 C 
ATOM      5  C   UNL     1      37.330 -22.889 -15.118  0.00  0.00    +0.007 C 
ATOM      6  C   UNL     1      35.444 -23.980 -14.078  0.00  0.00    +0.021 C 
ATOM      7  C   UNL     1      36.794 -23.642 -14.072  0.00  0.00    +0.077 C 
ATOM      8  C   UNL     1      37.043 -21.708 -17.245  0.00  0.00    +0.000 C 
ATOM      9  C   UNL     1      34.874 -21.634 -18.302  0.00  0.00    +0.031 C 
ATOM     10  C   UNL     1      36.224 -21.295 -18.296  0.00  0.00    +0.003 C 
ENDROOT
BRANCH   9  13
ATOM     11  N   UNL     1      34.473 -20.292 -20.352  0.00  0.00    -0.343 N 
ATOM     12  N   UNL     1      32.791 -21.674 -19.501  0.00  0.00    -0.285 NA
ATOM     13  C   UNL     1      34.022 -21.203 -19.398  0.00  0.00    +0.117 C 
ATOM     14  H   UNL     1      33.879 -20.014 -21.086  0.00  0.00    +0.144 HD
ATOM     15  H   UNL     1      35.386 -19.927 -20.291  0.00  0.00    +0.144 HD
ATOM     16  H   UNL     1      32.213 -21.383 -20.242  0.00  0.00    +0.188 HD
ENDBRANCH   9  13
BRANCH   3  18
ATOM     17  O   UNL     1      32.339 -22.377 -13.601  0.00  0.00    -0.270 OA
ATOM     18  N   UNL     1      33.276 -23.941 -15.083  0.00  0.00    -0.280 N 
ATOM     19  C   UNL     1      32.248 -23.344 -14.347  0.00  0.00    +0.249 C 
ATOM     20  H   UNL     1      33.022 -24.716 -15.633  0.00  0.00    +0.155 HD
BRANCH  19  21
ATOM     21  C   UNL     1      30.916 -23.991 -14.483  0.00  0.00    +0.053 C 
ATOM     22  C   UNL     1      30.057 -23.606 -15.491  0.00  0.00    +0.016 C 
ATOM     23  C   UNL     1      30.584 -24.975 -13.573  0.00  0.00    +0.004 C 
ATOM     24  C   UNL     1      28.813 -24.230 -15.594  0.00  0.00    +0.130 C 
ATOM     25  C   UNL     1      30.432 -22.538 -16.470  0.00  0.00    +0.034 C 
ATOM     26  C   UNL     1      29.341 -25.599 -13.676  0.00  0.00    +0.003 C 
ATOM     27  C   UNL     1      28.457 -25.226 -14.687  0.00  0.00    +0.036 C 
BRANCH  24  28
ATOM     28  O   UNL     1      27.935 -23.880 -16.577  0.00  0.00    -0.506 OA
ATOM     29  H   UNL     1      28.190 -23.264 -17.235  0.00  0.00    +0.292 HD
ENDBRANCH  24  28
ENDBRANCH  19  21
ENDBRANCH   3  18
BRANCH   7  31
ATOM     30  O   UNL     1      38.827 -24.425 -13.101  0.00  0.00    -0.245 OA
ATOM     31  C   UNL     1      37.647 -24.073 -12.975  0.00  0.00    +0.341 C 
BRANCH  31  32
ATOM     32  O   UNL     1      36.982 -24.041 -11.779  0.00  0.00    -0.441 OA
ATOM     33  C   UNL     1      37.085 -22.836 -11.013  0.00  0.00    +0.256 C 
ENDBRANCH  31  32
ENDBRANCH   7  31
TORSDOF 6
ENDMDL
MODEL 8
REMARK VINA RESULT:     -10.1      2.033      6.554
REMARK  Name = 6852141
REMARK  6 active torsions:
REMARK  status: ('A' for Active; 'I' for Inactive)
REMARK    1  A    between atoms: C_3  and  N_18
REMARK    2  A    between atoms: C_7  and  C_31
REMARK    3  A    between atoms: C_9  and  C_13
REMARK    4  A    between atoms: C_19  and  C_21
REMARK    5  A    between atoms: C_24  and  O_28
REMARK    6  A    between atoms: C_31  and  O_32
REMARK                            x       y       z     vdW  Elec       q    Type
REMARK                         _______ _______ _______ _____ _____    ______ ____
ROOT
ATOM      1  C   UNL     1      32.984 -23.167 -16.064  0.00  0.00    +0.014 C 
ATOM      2  C   UNL     1      32.121 -22.507 -16.970  0.00  0.00    +0.001 C 
ATOM      3  C   UNL     1      34.369 -23.148 -16.297  0.00  0.00    +0.051 C 
ATOM      4  C   UNL     1      32.438 -23.827 -14.952  0.00  0.00    +0.004 C 
ATOM      5  C   UNL     1      32.667 -21.846 -18.083  0.00  0.00    +0.007 C 
ATOM      6  C   UNL     1      34.895 -22.486 -17.408  0.00  0.00    +0.021 C 
ATOM      7  C   UNL     1      34.045 -21.837 -18.299  0.00  0.00    +0.077 C 
ATOM      8  C   UNL     1      30.736 -22.527 -16.737  0.00  0.00    +0.000 C 
ATOM      9  C   UNL     1      31.060 -23.836 -14.735  0.00  0.00    +0.031 C 
ATOM     10  C   UNL     1      30.211 -23.186 -15.626  0.00  0.00    +0.003 C 
ENDROOT
BRANCH   9  13
ATOM     11  N   UNL     1      29.404 -25.364 -13.691  0.00  0.00    -0.343 N 
ATOM     12  N   UNL     1      31.060 -24.353 -12.388  0.00  0.00    -0.285 NA
ATOM     13  C   UNL     1      30.510 -24.524 -13.578  0.00  0.00    +0.117 C 
ATOM     14  H   UNL     1      29.048 -25.819 -12.895  0.00  0.00    +0.144 HD
ATOM     15  H   UNL     1      28.978 -25.501 -14.569  0.00  0.00    +0.144 HD
ATOM     16  H   UNL     1      30.689 -24.818 -11.603  0.00  0.00    +0.188 HD
ENDBRANCH   9  13
BRANCH   3  18
ATOM     17  O   UNL     1      36.842 -22.103 -14.965  0.00  0.00    -0.270 OA
ATOM     18  N   UNL     1      35.272 -23.785 -15.436  0.00  0.00    -0.280 N 
ATOM     19  C   UNL     1      36.416 -23.245 -14.841  0.00  0.00    +0.249 C 
ATOM     20  H   UNL     1      35.078 -24.727 -15.226  0.00  0.00    +0.155 HD
BRANCH  19  21
ATOM     21  C   UNL     1      37.193 -24.187 -13.994  0.00  0.00    +0.053 C 
ATOM     22  C   UNL     1      36.613 -24.761 -12.882  0.00  0.00    +0.016 C 
ATOM     23  C   UNL     1      38.496 -24.456 -14.363  0.00  0.00    +0.004 C 
ATOM     24  C   UNL     1      37.366 -25.642 -12.106  0.00  0.00    +0.130 C 
ATOM     25  C   UNL     1      35.199 -24.459 -12.497  0.00  0.00    +0.034 C 
ATOM     26  C   UNL     1      39.249 -25.337 -13.587  0.00  0.00    +0.003 C 
ATOM     27  C   UNL     1      38.684 -25.929 -12.459  0.00  0.00    +0.036 C 
BRANCH  24  28
ATOM     28  O   UNL     1      36.831 -26.232 -11.000  0.00  0.00    -0.506 OA
ATOM     29  H   UNL     1      36.920 -27.156 -10.872  0.00  0.00    +0.292 HD
ENDBRANCH  24  28
ENDBRANCH  19  21
ENDBRANCH   3  18
BRANCH   7  31
ATOM     30  O   UNL     1      35.758 -21.281 -19.863  0.00  0.00    -0.245 OA
ATOM     31  C   UNL     1      34.596 -21.149 -19.456  0.00  0.00    +0.341 C 
BRANCH  31  32
ATOM     32  O   UNL     1      33.668 -20.334 -20.045  0.00  0.00    -0.441 OA
ATOM     33  C   UNL     1      34.112 -19.540 -21.151  0.00  0.00    +0.256 C 
ENDBRANCH  31  32
ENDBRANCH   7  31
TORSDOF 6
ENDMDL
MODEL 9
REMARK VINA RESULT:      -9.9      2.633      7.018
REMARK  Name = 6852141
REMARK  6 active torsions:
REMARK  status: ('A' for Active; 'I' for Inactive)
REMARK    1  A    between atoms: C_3  and  N_18
REMARK    2  A    between atoms: C_7  and  C_31
REMARK    3  A    between atoms: C_9  and  C_13
REMARK    4  A    between atoms: C_19  and  C_21
REMARK    5  A    between atoms: C_24  and  O_28
REMARK    6  A    between atoms: C_31  and  O_32
REMARK                            x       y       z     vdW  Elec       q    Type
REMARK                         _______ _______ _______ _____ _____    ______ ____
ROOT
ATOM      1  C   UNL     1      35.237 -23.105 -15.690  0.00  0.00    +0.014 C 
ATOM      2  C   UNL     1      36.550 -22.663 -15.980  0.00  0.00    +0.001 C 
ATOM      3  C   UNL     1      34.195 -22.788 -16.577  0.00  0.00    +0.051 C 
ATOM      4  C   UNL     1      35.005 -23.850 -14.523  0.00  0.00    +0.004 C 
ATOM      5  C   UNL     1      36.783 -21.918 -17.147  0.00  0.00    +0.007 C 
ATOM      6  C   UNL     1      34.444 -22.047 -17.733  0.00  0.00    +0.021 C 
ATOM      7  C   UNL     1      35.736 -21.613 -18.017  0.00  0.00    +0.077 C 
ATOM      8  C   UNL     1      37.592 -22.980 -15.093  0.00  0.00    +0.000 C 
ATOM      9  C   UNL     1      36.052 -24.156 -13.654  0.00  0.00    +0.031 C 
ATOM     10  C   UNL     1      37.343 -23.722 -13.938  0.00  0.00    +0.003 C 
ENDROOT
BRANCH   9  13
ATOM     11  N   UNL     1      36.709 -25.872 -11.984  0.00  0.00    -0.343 N 
ATOM     12  N   UNL     1      34.671 -24.747 -11.777  0.00  0.00    -0.285 NA
ATOM     13  C   UNL     1      35.794 -24.929 -12.450  0.00  0.00    +0.117 C 
ATOM     14  H   UNL     1      36.515 -26.385 -11.167  0.00  0.00    +0.144 HD
ATOM     15  H   UNL     1      37.550 -26.025 -12.473  0.00  0.00    +0.144 HD
ATOM     16  H   UNL     1      34.495 -25.269 -10.962  0.00  0.00    +0.188 HD
ENDBRANCH   9  13
BRANCH   3  18
ATOM     17  O   UNL     1      32.320 -22.096 -14.342  0.00  0.00    -0.270 OA
ATOM     18  N   UNL     1      32.876 -23.196 -16.342  0.00  0.00    -0.280 N 
ATOM     19  C   UNL     1      32.045 -22.839 -15.277  0.00  0.00    +0.249 C 
ATOM     20  H   UNL     1      32.488 -23.808 -17.008  0.00  0.00    +0.155 HD
BRANCH  19  21
ATOM     21  C   UNL     1      30.696 -23.465 -15.289  0.00  0.00    +0.053 C 
ATOM     22  C   UNL     1      30.425 -24.548 -14.480  0.00  0.00    +0.016 C 
ATOM     23  C   UNL     1      29.745 -22.923 -16.131  0.00  0.00    +0.004 C 
ATOM     24  C   UNL     1      29.151 -25.115 -14.512  0.00  0.00    +0.130 C 
ATOM     25  C   UNL     1      31.467 -25.123 -13.572  0.00  0.00    +0.034 C 
ATOM     26  C   UNL     1      28.471 -23.489 -16.164  0.00  0.00    +0.003 C 
ATOM     27  C   UNL     1      28.175 -24.584 -15.354  0.00  0.00    +0.036 C 
BRANCH  24  28
ATOM     28  O   UNL     1      28.841 -26.185 -13.727  0.00  0.00    -0.506 OA
ATOM     29  H   UNL     1      28.583 -26.053 -12.836  0.00  0.00    +0.292 HD
ENDBRANCH  24  28
ENDBRANCH  19  21
ENDBRANCH   3  18
BRANCH   7  31
ATOM     30  O   UNL     1      37.010 -20.158 -19.414  0.00  0.00    -0.245 OA
ATOM     31  C   UNL     1      35.993 -20.839 -19.222  0.00  0.00    +0.341 C 
BRANCH  31  32
ATOM     32  O   UNL     1      34.970 -20.957 -20.124  0.00  0.00    -0.441 OA
ATOM     33  C   UNL     1      34.466 -19.744 -20.692  0.00  0.00    +0.256 C 
ENDBRANCH  31  32
ENDBRANCH   7  31
TORSDOF 6
ENDMDL
