MODEL 1
REMARK VINA RESULT:     -11.6      0.000      0.000
REMARK  Name = 15942672
REMARK  5 active torsions:
REMARK  status: ('A' for Active; 'I' for Inactive)
REMARK    1  A    between atoms: N_2  and  C_7
REMARK    2  A    between atoms: N_3  and  C_17
REMARK    3  A    between atoms: C_8  and  C_16
REMARK    4  A    between atoms: C_18  and  O_23
REMARK    5  A    between atoms: O_23  and  C_25
REMARK                            x       y       z     vdW  Elec       q    Type
REMARK                         _______ _______ _______ _____ _____    ______ ____
ROOT
ATOM      1  O   UNL     1      34.671 -13.593 -21.400  0.00  0.00    -0.252 OA
ATOM      2  N   UNL     1      34.132 -12.921 -23.579  0.00  0.00    -0.268 N 
ATOM      3  N   UNL     1      34.603 -15.141 -23.151  0.00  0.00    -0.268 N 
ATOM      4  C   UNL     1      34.489 -13.863 -22.583  0.00  0.00    +0.308 C 
ATOM      5  H   UNL     1      34.020 -13.283 -24.488  0.00  0.00    +0.156 HD
ATOM      6  H   UNL     1      34.426 -15.202 -24.117  0.00  0.00    +0.156 HD
ENDROOT
BRANCH   2   7
ATOM      7  C   UNL     1      33.919 -11.549 -23.443  0.00  0.00    +0.052 C 
ATOM      8  C   UNL     1      32.632  -9.710 -22.550  0.00  0.00    +0.073 C 
ATOM      9  C   UNL     1      32.845 -11.082 -22.686  0.00  0.00    +0.019 C 
ATOM     10  C   UNL     1      34.780 -10.645 -24.064  0.00  0.00    +0.015 C 
ATOM     11  C   UNL     1      33.494  -8.805 -23.172  0.00  0.00    +0.004 C 
ATOM     12  C   UNL     1      34.567  -9.273 -23.929  0.00  0.00    +0.001 C 
BRANCH   8  16
ATOM     13  F   UNL     1      31.856  -8.649 -20.551  0.00  0.00    -0.166 F 
ATOM     14  F   UNL     1      30.749  -8.246 -22.372  0.00  0.00    -0.166 F 
ATOM     15  F   UNL     1      30.598 -10.195 -21.419  0.00  0.00    -0.166 F 
ATOM     16  C   UNL     1      31.485  -9.208 -21.740  0.00  0.00    +0.419 C 
ENDBRANCH   8  16
ENDBRANCH   2   7
BRANCH   3  17
ATOM     17  C   UNL     1      34.939 -16.355 -22.506  0.00  0.00    +0.052 C 
ATOM     18  C   UNL     1      35.599 -18.730 -21.241  0.00  0.00    +0.145 C 
ATOM     19  C   UNL     1      34.981 -17.526 -23.243  0.00  0.00    +0.018 C 
ATOM     20  C   UNL     1      35.220 -16.346 -21.149  0.00  0.00    +0.018 C 
ATOM     21  C   UNL     1      35.313 -18.722 -22.606  0.00  0.00    +0.039 C 
ATOM     22  C   UNL     1      35.553 -17.541 -20.512  0.00  0.00    +0.039 C 
BRANCH  18  23
ATOM     23  O   UNL     1      35.925 -19.896 -20.621  0.00  0.00    -0.453 OA
BRANCH  23  25
ATOM     24  N   UNL     1      32.910 -21.913 -18.593  0.00  0.00    -0.242 NA
ATOM     25  C   UNL     1      34.921 -20.568 -19.944  0.00  0.00    +0.148 C 
ATOM     26  C   UNL     1      35.252 -21.618 -19.114  0.00  0.00    +0.058 C 
ATOM     27  C   UNL     1      33.611 -20.172 -20.116  0.00  0.00    +0.058 C 
ATOM     28  C   UNL     1      34.210 -22.257 -18.461  0.00  0.00    +0.102 C 
ATOM     29  C   UNL     1      32.644 -20.877 -19.419  0.00  0.00    +0.102 C 
ENDBRANCH  23  25
ENDBRANCH  18  23
ENDBRANCH   3  17
TORSDOF 5
ENDMDL
MODEL 2
REMARK VINA RESULT:     -11.6      7.198     12.015
REMARK  Name = 15942672
REMARK  5 active torsions:
REMARK  status: ('A' for Active; 'I' for Inactive)
REMARK    1  A    between atoms: N_2  and  C_7
REMARK    2  A    between atoms: N_3  and  C_17
REMARK    3  A    between atoms: C_8  and  C_16
REMARK    4  A    between atoms: C_18  and  O_23
REMARK    5  A    between atoms: O_23  and  C_25
REMARK                            x       y       z     vdW  Elec       q    Type
REMARK                         _______ _______ _______ _____ _____    ______ ____
ROOT
ATOM      1  O   UNL     1      35.418 -22.245 -18.515  0.00  0.00    -0.252 OA
ATOM      2  N   UNL     1      36.873 -21.599 -16.795  0.00  0.00    -0.268 N 
ATOM      3  N   UNL     1      36.659 -20.268 -18.672  0.00  0.00    -0.268 N 
ATOM      4  C   UNL     1      36.230 -21.451 -18.048  0.00  0.00    +0.308 C 
ATOM      5  H   UNL     1      37.502 -20.881 -16.552  0.00  0.00    +0.156 HD
ATOM      6  H   UNL     1      37.316 -19.732 -18.173  0.00  0.00    +0.156 HD
ENDROOT
BRANCH   2   7
ATOM      7  C   UNL     1      36.734 -22.625 -15.861  0.00  0.00    +0.052 C 
ATOM      8  C   UNL     1      37.724 -24.321 -14.454  0.00  0.00    +0.073 C 
ATOM      9  C   UNL     1      37.863 -23.294 -15.388  0.00  0.00    +0.019 C 
ATOM     10  C   UNL     1      35.467 -22.983 -15.401  0.00  0.00    +0.015 C 
ATOM     11  C   UNL     1      36.456 -24.678 -13.993  0.00  0.00    +0.004 C 
ATOM     12  C   UNL     1      35.328 -24.009 -14.467  0.00  0.00    +0.001 C 
BRANCH   8  16
ATOM     13  F   UNL     1      38.806 -26.396 -13.956  0.00  0.00    -0.166 F 
ATOM     14  F   UNL     1      40.062 -24.777 -14.664  0.00  0.00    -0.166 F 
ATOM     15  F   UNL     1      39.231 -24.706 -12.656  0.00  0.00    -0.166 F 
ATOM     16  C   UNL     1      38.930 -25.037 -13.946  0.00  0.00    +0.419 C 
ENDBRANCH   8  16
ENDBRANCH   2   7
BRANCH   3  17
ATOM     17  C   UNL     1      36.263 -19.752 -19.928  0.00  0.00    +0.052 C 
ATOM     18  C   UNL     1      35.486 -18.741 -22.388  0.00  0.00    +0.145 C 
ATOM     19  C   UNL     1      37.176 -19.040 -20.686  0.00  0.00    +0.018 C 
ATOM     20  C   UNL     1      34.969 -19.970 -20.373  0.00  0.00    +0.018 C 
ATOM     21  C   UNL     1      36.784 -18.531 -21.925  0.00  0.00    +0.039 C 
ATOM     22  C   UNL     1      34.578 -19.462 -21.611  0.00  0.00    +0.039 C 
BRANCH  18  23
ATOM     23  O   UNL     1      35.105 -18.247 -23.597  0.00  0.00    -0.453 OA
BRANCH  23  25
ATOM     24  N   UNL     1      33.921 -14.268 -23.771  0.00  0.00    -0.242 NA
ATOM     25  C   UNL     1      34.712 -16.920 -23.655  0.00  0.00    +0.148 C 
ATOM     26  C   UNL     1      35.069 -16.066 -22.633  0.00  0.00    +0.058 C 
ATOM     27  C   UNL     1      33.971 -16.484 -24.732  0.00  0.00    +0.058 C 
ATOM     28  C   UNL     1      34.649 -14.749 -22.739  0.00  0.00    +0.102 C 
ATOM     29  C   UNL     1      33.600 -15.150 -24.743  0.00  0.00    +0.102 C 
ENDBRANCH  23  25
ENDBRANCH  18  23
ENDBRANCH   3  17
TORSDOF 5
ENDMDL
MODEL 3
REMARK VINA RESULT:     -11.5      5.652     10.583
REMARK  Name = 15942672
REMARK  5 active torsions:
REMARK  status: ('A' for Active; 'I' for Inactive)
REMARK    1  A    between atoms: N_2  and  C_7
REMARK    2  A    between atoms: N_3  and  C_17
REMARK    3  A    between atoms: C_8  and  C_16
REMARK    4  A    between atoms: C_18  and  O_23
REMARK    5  A    between atoms: O_23  and  C_25
REMARK                            x       y       z     vdW  Elec       q    Type
REMARK                         _______ _______ _______ _____ _____    ______ ____
ROOT
ATOM      1  O   UNL     1      33.445 -19.668 -20.381  0.00  0.00    -0.252 OA
ATOM      2  N   UNL     1      35.380 -20.900 -19.906  0.00  0.00    -0.268 N 
ATOM      3  N   UNL     1      35.336 -19.505 -21.747  0.00  0.00    -0.268 N 
ATOM      4  C   UNL     1      34.598 -19.987 -20.654  0.00  0.00    +0.308 C 
ATOM      5  H   UNL     1      36.291 -21.060 -20.247  0.00  0.00    +0.156 HD
ATOM      6  H   UNL     1      36.252 -19.853 -21.837  0.00  0.00    +0.156 HD
ENDROOT
BRANCH   2   7
ATOM      7  C   UNL     1      35.032 -21.605 -18.754  0.00  0.00    +0.052 C 
ATOM      8  C   UNL     1      35.590 -22.410 -16.546  0.00  0.00    +0.073 C 
ATOM      9  C   UNL     1      35.938 -21.706 -17.698  0.00  0.00    +0.019 C 
ATOM     10  C   UNL     1      33.779 -22.208 -18.658  0.00  0.00    +0.015 C 
ATOM     11  C   UNL     1      34.336 -23.014 -16.449  0.00  0.00    +0.004 C 
ATOM     12  C   UNL     1      33.431 -22.912 -17.505  0.00  0.00    +0.001 C 
BRANCH   8  16
ATOM     13  F   UNL     1      37.235 -23.703 -15.386  0.00  0.00    -0.166 F 
ATOM     14  F   UNL     1      37.525 -21.555 -15.430  0.00  0.00    -0.166 F 
ATOM     15  F   UNL     1      35.953 -22.412 -14.196  0.00  0.00    -0.166 F 
ATOM     16  C   UNL     1      36.558 -22.519 -15.416  0.00  0.00    +0.419 C 
ENDBRANCH   8  16
ENDBRANCH   2   7
BRANCH   3  17
ATOM     17  C   UNL     1      34.926 -18.579 -22.736  0.00  0.00    +0.052 C 
ATOM     18  C   UNL     1      34.124 -16.768 -24.672  0.00  0.00    +0.145 C 
ATOM     19  C   UNL     1      33.990 -18.967 -23.680  0.00  0.00    +0.018 C 
ATOM     20  C   UNL     1      35.470 -17.305 -22.739  0.00  0.00    +0.018 C 
ATOM     21  C   UNL     1      33.587 -18.054 -24.655  0.00  0.00    +0.039 C 
ATOM     22  C   UNL     1      35.066 -16.392 -23.713  0.00  0.00    +0.039 C 
BRANCH  18  23
ATOM     23  O   UNL     1      33.729 -15.876 -25.621  0.00  0.00    -0.453 OA
BRANCH  23  25
ATOM     24  N   UNL     1      33.352 -11.895 -24.492  0.00  0.00    -0.242 NA
ATOM     25  C   UNL     1      33.602 -14.550 -25.246  0.00  0.00    +0.148 C 
ATOM     26  C   UNL     1      33.784 -13.561 -26.190  0.00  0.00    +0.058 C 
ATOM     27  C   UNL     1      33.298 -14.247 -23.936  0.00  0.00    +0.058 C 
ATOM     28  C   UNL     1      33.648 -12.250 -25.762  0.00  0.00    +0.102 C 
ATOM     29  C   UNL     1      33.185 -12.905 -23.610  0.00  0.00    +0.102 C 
ENDBRANCH  23  25
ENDBRANCH  18  23
ENDBRANCH   3  17
TORSDOF 5
ENDMDL
MODEL 4
REMARK VINA RESULT:     -11.4      4.497      7.668
REMARK  Name = 15942672
REMARK  5 active torsions:
REMARK  status: ('A' for Active; 'I' for Inactive)
REMARK    1  A    between atoms: N_2  and  C_7
REMARK    2  A    between atoms: N_3  and  C_17
REMARK    3  A    between atoms: C_8  and  C_16
REMARK    4  A    between atoms: C_18  and  O_23
REMARK    5  A    between atoms: O_23  and  C_25
REMARK                            x       y       z     vdW  Elec       q    Type
REMARK                         _______ _______ _______ _____ _____    ______ ____
ROOT
ATOM      1  O   UNL     1      33.977 -20.324 -19.762  0.00  0.00    -0.252 OA
ATOM      2  N   UNL     1      35.862 -19.641 -20.973  0.00  0.00    -0.268 N 
ATOM      3  N   UNL     1      36.131 -20.885 -19.046  0.00  0.00    -0.268 N 
ATOM      4  C   UNL     1      35.195 -20.290 -19.906  0.00  0.00    +0.308 C 
ATOM      5  H   UNL     1      36.845 -19.696 -20.958  0.00  0.00    +0.156 HD
ATOM      6  H   UNL     1      37.077 -20.772 -19.292  0.00  0.00    +0.156 HD
ENDROOT
BRANCH   2   7
ATOM      7  C   UNL     1      35.312 -18.931 -22.041  0.00  0.00    +0.052 C 
ATOM      8  C   UNL     1      34.721 -16.828 -23.072  0.00  0.00    +0.073 C 
ATOM      9  C   UNL     1      35.271 -17.537 -22.004  0.00  0.00    +0.019 C 
ATOM     10  C   UNL     1      34.803 -19.616 -23.144  0.00  0.00    +0.015 C 
ATOM     11  C   UNL     1      34.212 -17.513 -24.176  0.00  0.00    +0.004 C 
ATOM     12  C   UNL     1      34.253 -18.906 -24.211  0.00  0.00    +0.001 C 
BRANCH   8  16
ATOM     13  F   UNL     1      33.481 -14.814 -23.434  0.00  0.00    -0.166 F 
ATOM     14  F   UNL     1      34.899 -14.815 -21.793  0.00  0.00    -0.166 F 
ATOM     15  F   UNL     1      35.616 -14.765 -23.845  0.00  0.00    -0.166 F 
ATOM     16  C   UNL     1      34.677 -15.338 -23.035  0.00  0.00    +0.419 C 
ENDBRANCH   8  16
ENDBRANCH   2   7
BRANCH   3  17
ATOM     17  C   UNL     1      35.883 -21.627 -17.866  0.00  0.00    +0.052 C 
ATOM     18  C   UNL     1      35.397 -23.080 -15.558  0.00  0.00    +0.145 C 
ATOM     19  C   UNL     1      36.849 -21.667 -16.876  0.00  0.00    +0.018 C 
ATOM     20  C   UNL     1      34.679 -22.298 -17.728  0.00  0.00    +0.018 C 
ATOM     21  C   UNL     1      36.604 -22.400 -15.713  0.00  0.00    +0.039 C 
ATOM     22  C   UNL     1      34.433 -23.029 -16.566  0.00  0.00    +0.039 C 
BRANCH  18  23
ATOM     23  O   UNL     1      35.157 -23.792 -14.424  0.00  0.00    -0.453 OA
BRANCH  23  25
ATOM     24  N   UNL     1      37.951 -26.664 -13.323  0.00  0.00    -0.242 NA
ATOM     25  C   UNL     1      36.087 -24.749 -14.056  0.00  0.00    +0.148 C 
ATOM     26  C   UNL     1      36.907 -24.511 -12.973  0.00  0.00    +0.058 C 
ATOM     27  C   UNL     1      36.173 -25.918 -14.781  0.00  0.00    +0.058 C 
ATOM     28  C   UNL     1      37.822 -25.500 -12.647  0.00  0.00    +0.102 C 
ATOM     29  C   UNL     1      37.121 -26.843 -14.374  0.00  0.00    +0.102 C 
ENDBRANCH  23  25
ENDBRANCH  18  23
ENDBRANCH   3  17
TORSDOF 5
ENDMDL
MODEL 5
REMARK VINA RESULT:     -11.1      4.583      9.973
REMARK  Name = 15942672
REMARK  5 active torsions:
REMARK  status: ('A' for Active; 'I' for Inactive)
REMARK    1  A    between atoms: N_2  and  C_7
REMARK    2  A    between atoms: N_3  and  C_17
REMARK    3  A    between atoms: C_8  and  C_16
REMARK    4  A    between atoms: C_18  and  O_23
REMARK    5  A    between atoms: O_23  and  C_25
REMARK                            x       y       z     vdW  Elec       q    Type
REMARK                         _______ _______ _______ _____ _____    ______ ____
ROOT
ATOM      1  O   UNL     1      35.012 -16.100 -20.852  0.00  0.00    -0.252 OA
ATOM      2  N   UNL     1      35.151 -18.119 -22.033  0.00  0.00    -0.268 N 
ATOM      3  N   UNL     1      34.563 -16.181 -23.145  0.00  0.00    -0.268 N 
ATOM      4  C   UNL     1      34.917 -16.728 -21.902  0.00  0.00    +0.308 C 
ATOM      5  H   UNL     1      35.036 -18.487 -22.939  0.00  0.00    +0.156 HD
ATOM      6  H   UNL     1      34.528 -16.812 -23.900  0.00  0.00    +0.156 HD
ENDROOT
BRANCH   2   7
ATOM      7  C   UNL     1      35.521 -19.036 -21.049  0.00  0.00    +0.052 C 
ATOM      8  C   UNL     1      34.929 -20.784 -19.490  0.00  0.00    +0.073 C 
ATOM      9  C   UNL     1      34.559 -19.867 -20.473  0.00  0.00    +0.019 C 
ATOM     10  C   UNL     1      36.851 -19.122 -20.641  0.00  0.00    +0.015 C 
ATOM     11  C   UNL     1      36.261 -20.870 -19.082  0.00  0.00    +0.004 C 
ATOM     12  C   UNL     1      37.221 -20.039 -19.657  0.00  0.00    +0.001 C 
BRANCH   8  16
ATOM     13  F   UNL     1      32.657 -21.117 -18.820  0.00  0.00    -0.166 F 
ATOM     14  F   UNL     1      33.736 -22.856 -19.536  0.00  0.00    -0.166 F 
ATOM     15  F   UNL     1      34.207 -22.014 -17.587  0.00  0.00    -0.166 F 
ATOM     16  C   UNL     1      33.902 -21.673 -18.874  0.00  0.00    +0.419 C 
ENDBRANCH   8  16
ENDBRANCH   2   7
BRANCH   3  17
ATOM     17  C   UNL     1      34.250 -14.835 -23.449  0.00  0.00    +0.052 C 
ATOM     18  C   UNL     1      33.636 -12.200 -24.043  0.00  0.00    +0.145 C 
ATOM     19  C   UNL     1      34.630 -13.836 -22.569  0.00  0.00    +0.018 C 
ATOM     20  C   UNL     1      33.570 -14.545 -24.620  0.00  0.00    +0.018 C 
ATOM     21  C   UNL     1      34.320 -12.509 -22.868  0.00  0.00    +0.039 C 
ATOM     22  C   UNL     1      33.261 -13.219 -24.920  0.00  0.00    +0.039 C 
BRANCH  18  23
ATOM     23  O   UNL     1      33.336 -10.906 -24.337  0.00  0.00    -0.453 OA
BRANCH  23  25
ATOM     24  N   UNL     1      32.775  -8.281 -21.165  0.00  0.00    -0.242 NA
ATOM     25  C   UNL     1      33.150 -10.032 -23.279  0.00  0.00    +0.148 C 
ATOM     26  C   UNL     1      32.227 -10.343 -22.302  0.00  0.00    +0.058 C 
ATOM     27  C   UNL     1      33.890  -8.871 -23.226  0.00  0.00    +0.058 C 
ATOM     28  C   UNL     1      32.077  -9.435 -21.266  0.00  0.00    +0.102 C 
ATOM     29  C   UNL     1      33.665  -8.029 -22.150  0.00  0.00    +0.102 C 
ENDBRANCH  23  25
ENDBRANCH  18  23
ENDBRANCH   3  17
TORSDOF 5
ENDMDL
MODEL 6
REMARK VINA RESULT:     -11.1      4.404     10.575
REMARK  Name = 15942672
REMARK  5 active torsions:
REMARK  status: ('A' for Active; 'I' for Inactive)
REMARK    1  A    between atoms: N_2  and  C_7
REMARK    2  A    between atoms: N_3  and  C_17
REMARK    3  A    between atoms: C_8  and  C_16
REMARK    4  A    between atoms: C_18  and  O_23
REMARK    5  A    between atoms: O_23  and  C_25
REMARK                            x       y       z     vdW  Elec       q    Type
REMARK                         _______ _______ _______ _____ _____    ______ ____
ROOT
ATOM      1  O   UNL     1      34.323 -14.182 -22.013  0.00  0.00    -0.252 OA
ATOM      2  N   UNL     1      34.126 -15.265 -24.081  0.00  0.00    -0.268 N 
ATOM      3  N   UNL     1      33.771 -12.987 -23.946  0.00  0.00    -0.268 N 
ATOM      4  C   UNL     1      34.096 -14.142 -23.218  0.00  0.00    +0.308 C 
ATOM      5  H   UNL     1      33.922 -15.081 -25.027  0.00  0.00    +0.156 HD
ATOM      6  H   UNL     1      33.615 -13.112 -24.909  0.00  0.00    +0.156 HD
ENDROOT
BRANCH   2   7
ATOM      7  C   UNL     1      34.404 -16.596 -23.768  0.00  0.00    +0.052 C 
ATOM      8  C   UNL     1      35.509 -18.231 -22.374  0.00  0.00    +0.073 C 
ATOM      9  C   UNL     1      35.230 -16.900 -22.687  0.00  0.00    +0.019 C 
ATOM     10  C   UNL     1      33.856 -17.622 -24.538  0.00  0.00    +0.015 C 
ATOM     11  C   UNL     1      34.960 -19.257 -23.144  0.00  0.00    +0.004 C 
ATOM     12  C   UNL     1      34.134 -18.952 -24.226  0.00  0.00    +0.001 C 
BRANCH   8  16
ATOM     13  F   UNL     1      36.190 -19.810 -20.712  0.00  0.00    -0.166 F 
ATOM     14  F   UNL     1      37.723 -18.502 -21.513  0.00  0.00    -0.166 F 
ATOM     15  F   UNL     1      36.214 -17.706 -20.165  0.00  0.00    -0.166 F 
ATOM     16  C   UNL     1      36.391 -18.558 -21.217  0.00  0.00    +0.419 C 
ENDBRANCH   8  16
ENDBRANCH   2   7
BRANCH   3  17
ATOM     17  C   UNL     1      33.638 -11.663 -23.465  0.00  0.00    +0.052 C 
ATOM     18  C   UNL     1      33.378  -9.070 -22.525  0.00  0.00    +0.145 C 
ATOM     19  C   UNL     1      32.694 -11.387 -22.490  0.00  0.00    +0.018 C 
ATOM     20  C   UNL     1      34.455 -10.669 -23.980  0.00  0.00    +0.018 C 
ATOM     21  C   UNL     1      32.563 -10.081 -22.017  0.00  0.00    +0.039 C 
ATOM     22  C   UNL     1      34.325  -9.364 -23.506  0.00  0.00    +0.039 C 
BRANCH  18  23
ATOM     23  O   UNL     1      33.252  -7.796 -22.061  0.00  0.00    -0.453 OA
BRANCH  23  25
ATOM     24  N   UNL     1      32.044  -4.869 -24.752  0.00  0.00    -0.242 NA
ATOM     25  C   UNL     1      32.850  -6.822 -22.959  0.00  0.00    +0.148 C 
ATOM     26  C   UNL     1      33.758  -5.867 -23.369  0.00  0.00    +0.058 C 
ATOM     27  C   UNL     1      31.552  -6.826 -23.422  0.00  0.00    +0.058 C 
ATOM     28  C   UNL     1      33.305  -4.913 -24.266  0.00  0.00    +0.102 C 
ATOM     29  C   UNL     1      31.198  -5.829 -24.316  0.00  0.00    +0.102 C 
ENDBRANCH  23  25
ENDBRANCH  18  23
ENDBRANCH   3  17
TORSDOF 5
ENDMDL
MODEL 7
REMARK VINA RESULT:     -11.0      5.277     10.319
REMARK  Name = 15942672
REMARK  5 active torsions:
REMARK  status: ('A' for Active; 'I' for Inactive)
REMARK    1  A    between atoms: N_2  and  C_7
REMARK    2  A    between atoms: N_3  and  C_17
REMARK    3  A    between atoms: C_8  and  C_16
REMARK    4  A    between atoms: C_18  and  O_23
REMARK    5  A    between atoms: O_23  and  C_25
REMARK                            x       y       z     vdW  Elec       q    Type
REMARK                         _______ _______ _______ _____ _____    ______ ____
ROOT
ATOM      1  O   UNL     1      34.267 -18.946 -20.173  0.00  0.00    -0.252 OA
ATOM      2  N   UNL     1      35.710 -20.785 -20.332  0.00  0.00    -0.268 N 
ATOM      3  N   UNL     1      35.337 -19.460 -22.187  0.00  0.00    -0.268 N 
ATOM      4  C   UNL     1      35.023 -19.652 -20.833  0.00  0.00    +0.308 C 
ATOM      5  H   UNL     1      36.283 -21.256 -20.980  0.00  0.00    +0.156 HD
ATOM      6  H   UNL     1      35.961 -20.110 -22.582  0.00  0.00    +0.156 HD
ENDROOT
BRANCH   2   7
ATOM      7  C   UNL     1      35.680 -21.323 -19.046  0.00  0.00    +0.052 C 
ATOM      8  C   UNL     1      34.497 -22.495 -17.295  0.00  0.00    +0.073 C 
ATOM      9  C   UNL     1      34.527 -21.956 -18.582  0.00  0.00    +0.019 C 
ATOM     10  C   UNL     1      36.802 -21.228 -18.224  0.00  0.00    +0.015 C 
ATOM     11  C   UNL     1      35.620 -22.399 -16.473  0.00  0.00    +0.004 C 
ATOM     12  C   UNL     1      36.772 -21.766 -16.937  0.00  0.00    +0.001 C 
BRANCH   8  16
ATOM     13  F   UNL     1      32.116 -22.486 -17.064  0.00  0.00    -0.166 F 
ATOM     14  F   UNL     1      33.071 -24.414 -17.333  0.00  0.00    -0.166 F 
ATOM     15  F   UNL     1      33.277 -23.356 -15.445  0.00  0.00    -0.166 F 
ATOM     16  C   UNL     1      33.265 -23.173 -16.798  0.00  0.00    +0.419 C 
ENDBRANCH   8  16
ENDBRANCH   2   7
BRANCH   3  17
ATOM     17  C   UNL     1      34.867 -18.447 -23.056  0.00  0.00    +0.052 C 
ATOM     18  C   UNL     1      33.944 -16.464 -24.757  0.00  0.00    +0.145 C 
ATOM     19  C   UNL     1      35.406 -17.175 -22.969  0.00  0.00    +0.018 C 
ATOM     20  C   UNL     1      33.876 -18.749 -23.976  0.00  0.00    +0.018 C 
ATOM     21  C   UNL     1      34.941 -16.176 -23.826  0.00  0.00    +0.039 C 
ATOM     22  C   UNL     1      33.412 -17.752 -24.833  0.00  0.00    +0.039 C 
BRANCH  18  23
ATOM     23  O   UNL     1      33.493 -15.492 -25.595  0.00  0.00    -0.453 OA
BRANCH  23  25
ATOM     24  N   UNL     1      33.408 -11.591 -24.163  0.00  0.00    -0.242 NA
ATOM     25  C   UNL     1      33.466 -14.192 -25.117  0.00  0.00    +0.148 C 
ATOM     26  C   UNL     1      33.247 -13.972 -23.773  0.00  0.00    +0.058 C 
ATOM     27  C   UNL     1      33.657 -13.148 -25.996  0.00  0.00    +0.058 C 
ATOM     28  C   UNL     1      33.228 -12.654 -23.347  0.00  0.00    +0.102 C 
ATOM     29  C   UNL     1      33.618 -11.867 -25.469  0.00  0.00    +0.102 C 
ENDBRANCH  23  25
ENDBRANCH  18  23
ENDBRANCH   3  17
TORSDOF 5
ENDMDL
MODEL 8
REMARK VINA RESULT:     -11.0      6.159     11.321
REMARK  Name = 15942672
REMARK  5 active torsions:
REMARK  status: ('A' for Active; 'I' for Inactive)
REMARK    1  A    between atoms: N_2  and  C_7
REMARK    2  A    between atoms: N_3  and  C_17
REMARK    3  A    between atoms: C_8  and  C_16
REMARK    4  A    between atoms: C_18  and  O_23
REMARK    5  A    between atoms: O_23  and  C_25
REMARK                            x       y       z     vdW  Elec       q    Type
REMARK                         _______ _______ _______ _____ _____    ______ ____
ROOT
ATOM      1  O   UNL     1      35.311 -21.998 -18.398  0.00  0.00    -0.252 OA
ATOM      2  N   UNL     1      36.988 -21.474 -16.847  0.00  0.00    -0.268 N 
ATOM      3  N   UNL     1      36.774 -20.211 -18.770  0.00  0.00    -0.268 N 
ATOM      4  C   UNL     1      36.257 -21.298 -18.048  0.00  0.00    +0.308 C 
ATOM      5  H   UNL     1      37.723 -20.835 -16.699  0.00  0.00    +0.156 HD
ATOM      6  H   UNL     1      37.537 -19.745 -18.360  0.00  0.00    +0.156 HD
ENDROOT
BRANCH   2   7
ATOM      7  C   UNL     1      36.806 -22.431 -15.849  0.00  0.00    +0.052 C 
ATOM      8  C   UNL     1      35.364 -23.571 -14.282  0.00  0.00    +0.073 C 
ATOM      9  C   UNL     1      35.546 -22.614 -15.280  0.00  0.00    +0.019 C 
ATOM     10  C   UNL     1      37.884 -23.204 -15.420  0.00  0.00    +0.015 C 
ATOM     11  C   UNL     1      36.443 -24.345 -13.853  0.00  0.00    +0.004 C 
ATOM     12  C   UNL     1      37.702 -24.161 -14.422  0.00  0.00    +0.001 C 
BRANCH   8  16
ATOM     13  F   UNL     1      33.478 -24.998 -13.922  0.00  0.00    -0.166 F 
ATOM     14  F   UNL     1      34.008 -23.644 -12.313  0.00  0.00    -0.166 F 
ATOM     15  F   UNL     1      33.098 -22.868 -14.129  0.00  0.00    -0.166 F 
ATOM     16  C   UNL     1      34.017 -23.769 -13.673  0.00  0.00    +0.419 C 
ENDBRANCH   8  16
ENDBRANCH   2   7
BRANCH   3  17
ATOM     17  C   UNL     1      36.333 -19.703 -20.015  0.00  0.00    +0.052 C 
ATOM     18  C   UNL     1      35.471 -18.709 -22.453  0.00  0.00    +0.145 C 
ATOM     19  C   UNL     1      35.034 -19.948 -20.425  0.00  0.00    +0.018 C 
ATOM     20  C   UNL     1      37.211 -18.972 -20.798  0.00  0.00    +0.018 C 
ATOM     21  C   UNL     1      34.600 -19.447 -21.653  0.00  0.00    +0.039 C 
ATOM     22  C   UNL     1      36.778 -18.471 -22.025  0.00  0.00    +0.039 C 
BRANCH  18  23
ATOM     23  O   UNL     1      35.048 -18.218 -23.649  0.00  0.00    -0.453 OA
BRANCH  23  25
ATOM     24  N   UNL     1      33.880 -14.233 -23.798  0.00  0.00    -0.242 NA
ATOM     25  C   UNL     1      34.657 -16.891 -23.699  0.00  0.00    +0.148 C 
ATOM     26  C   UNL     1      33.931 -16.442 -24.782  0.00  0.00    +0.058 C 
ATOM     27  C   UNL     1      35.004 -16.048 -22.665  0.00  0.00    +0.058 C 
ATOM     28  C   UNL     1      33.566 -15.105 -24.783  0.00  0.00    +0.102 C 
ATOM     29  C   UNL     1      34.592 -14.729 -22.763  0.00  0.00    +0.102 C 
ENDBRANCH  23  25
ENDBRANCH  18  23
ENDBRANCH   3  17
TORSDOF 5
ENDMDL
MODEL 9
REMARK VINA RESULT:     -10.9      1.579      2.513
REMARK  Name = 15942672
REMARK  5 active torsions:
REMARK  status: ('A' for Active; 'I' for Inactive)
REMARK    1  A    between atoms: N_2  and  C_7
REMARK    2  A    between atoms: N_3  and  C_17
REMARK    3  A    between atoms: C_8  and  C_16
REMARK    4  A    between atoms: C_18  and  O_23
REMARK    5  A    between atoms: O_23  and  C_25
REMARK                            x       y       z     vdW  Elec       q    Type
REMARK                         _______ _______ _______ _____ _____    ______ ____
ROOT
ATOM      1  O   UNL     1      33.345 -13.349 -20.884  0.00  0.00    -0.252 OA
ATOM      2  N   UNL     1      33.626 -12.041 -22.807  0.00  0.00    -0.268 N 
ATOM      3  N   UNL     1      34.487 -14.183 -22.747  0.00  0.00    -0.268 N 
ATOM      4  C   UNL     1      33.776 -13.212 -22.025  0.00  0.00    +0.308 C 
ATOM      5  H   UNL     1      34.025 -12.075 -23.707  0.00  0.00    +0.156 HD
ATOM      6  H   UNL     1      34.769 -13.927 -23.654  0.00  0.00    +0.156 HD
ENDROOT
BRANCH   2   7
ATOM      7  C   UNL     1      32.989 -10.846 -22.472  0.00  0.00    +0.052 C 
ATOM      8  C   UNL     1      32.858  -8.437 -22.603  0.00  0.00    +0.073 C 
ATOM      9  C   UNL     1      33.495  -9.632 -22.937  0.00  0.00    +0.019 C 
ATOM     10  C   UNL     1      31.846 -10.865 -21.673  0.00  0.00    +0.015 C 
ATOM     11  C   UNL     1      31.715  -8.456 -21.803  0.00  0.00    +0.004 C 
ATOM     12  C   UNL     1      31.209  -9.670 -21.338  0.00  0.00    +0.001 C 
BRANCH   8  16
ATOM     13  F   UNL     1      32.432  -6.212 -23.370  0.00  0.00    -0.166 F 
ATOM     14  F   UNL     1      34.243  -6.526 -22.220  0.00  0.00    -0.166 F 
ATOM     15  F   UNL     1      34.108  -7.274 -24.257  0.00  0.00    -0.166 F 
ATOM     16  C   UNL     1      33.397  -7.138 -23.100  0.00  0.00    +0.419 C 
ENDBRANCH   8  16
ENDBRANCH   2   7
BRANCH   3  17
ATOM     17  C   UNL     1      34.849 -15.487 -22.331  0.00  0.00    +0.052 C 
ATOM     18  C   UNL     1      35.558 -18.038 -21.519  0.00  0.00    +0.145 C 
ATOM     19  C   UNL     1      35.022 -15.744 -20.982  0.00  0.00    +0.018 C 
ATOM     20  C   UNL     1      35.023 -16.478 -23.283  0.00  0.00    +0.018 C 
ATOM     21  C   UNL     1      35.379 -17.030 -20.573  0.00  0.00    +0.039 C 
ATOM     22  C   UNL     1      35.379 -17.763 -22.875  0.00  0.00    +0.039 C 
BRANCH  18  23
ATOM     23  O   UNL     1      35.904 -19.293 -21.120  0.00  0.00    -0.453 OA
BRANCH  23  25
ATOM     24  N   UNL     1      33.102 -21.476 -18.964  0.00  0.00    -0.242 NA
ATOM     25  C   UNL     1      34.970 -20.021 -20.403  0.00  0.00    +0.148 C 
ATOM     26  C   UNL     1      33.627 -19.788 -20.614  0.00  0.00    +0.058 C 
ATOM     27  C   UNL     1      35.403 -20.961 -19.493  0.00  0.00    +0.058 C 
ATOM     28  C   UNL     1      32.733 -20.542 -19.869  0.00  0.00    +0.102 C 
ATOM     29  C   UNL     1      34.430 -21.661 -18.799  0.00  0.00    +0.102 C 
ENDBRANCH  23  25
ENDBRANCH  18  23
ENDBRANCH   3  17
TORSDOF 5
ENDMDL
