MODEL 1
REMARK VINA RESULT:     -11.2      0.000      0.000
REMARK  Name = 4369497
REMARK  6 active torsions:
REMARK  status: ('A' for Active; 'I' for Inactive)
REMARK    1  A    between atoms: N_2  and  C_9
REMARK    2  A    between atoms: C_5  and  C_21
REMARK    3  A    between atoms: C_8  and  S_14
REMARK    4  A    between atoms: C_12  and  O_19
REMARK    5  A    between atoms: S_14  and  C_17
REMARK    6  A    between atoms: C_22  and  C_28
REMARK                            x       y       z     vdW  Elec       q    Type
REMARK                         _______ _______ _______ _____ _____    ______ ____
ROOT
ATOM      1  O   UNL     1      33.343 -11.337 -22.226  0.00  0.00    -0.424 OA
ATOM      2  N   UNL     1      34.170 -13.355 -22.946  0.00  0.00    -0.265 N 
ATOM      3  N   UNL     1      32.239 -13.182 -21.523  0.00  0.00    -0.193 NA
ATOM      4  C   UNL     1      33.236 -12.695 -22.226  0.00  0.00    +0.293 C 
ATOM      5  C   UNL     1      32.305 -10.947 -21.444  0.00  0.00    +0.168 C 
ATOM      6  C   UNL     1      31.636 -12.058 -21.017  0.00  0.00    +0.141 C 
ATOM      7  H   UNL     1      34.891 -12.790 -23.309  0.00  0.00    +0.157 HD
ENDROOT
BRANCH   2   9
ATOM      8  C   UNL     1      35.022 -16.948 -22.670  0.00  0.00    +0.107 C 
ATOM      9  C   UNL     1      34.276 -14.738 -23.266  0.00  0.00    +0.087 C 
ATOM     10  C   UNL     1      34.910 -15.591 -22.369  0.00  0.00    +0.036 C 
ATOM     11  C   UNL     1      34.499 -17.442 -23.866  0.00  0.00    +0.022 C 
ATOM     12  C   UNL     1      33.753 -15.222 -24.458  0.00  0.00    +0.152 C 
ATOM     13  C   UNL     1      33.865 -16.580 -24.759  0.00  0.00    +0.040 C 
BRANCH   8  14
ATOM     14  S   UNL     1      35.816 -18.028 -21.553  0.00  0.00    +0.009 S 
ATOM     15  O   UNL     1      37.169 -18.260 -22.039  0.00  0.00    -0.169 OA
ATOM     16  O   UNL     1      35.608 -17.541 -20.196  0.00  0.00    -0.169 OA
BRANCH  14  17
ATOM     17  C   UNL     1      34.915 -19.555 -21.698  0.00  0.00    +0.156 C 
ATOM     18  C   UNL     1      34.068 -19.818 -20.474  0.00  0.00    +0.028 C 
ENDBRANCH  14  17
ENDBRANCH   8  14
BRANCH  12  19
ATOM     19  O   UNL     1      33.131 -14.396 -25.345  0.00  0.00    -0.470 OA
ATOM     20  C   UNL     1      33.956 -13.733 -26.302  0.00  0.00    +0.253 C 
ENDBRANCH  12  19
ENDBRANCH   2   9
BRANCH   5  21
ATOM     21  C   UNL     1      32.157  -9.524 -21.253  0.00  0.00    +0.036 C 
ATOM     22  C   UNL     1      32.318  -7.269 -22.107  0.00  0.00    +0.018 C 
ATOM     23  C   UNL     1      32.459  -8.645 -22.293  0.00  0.00    +0.005 C 
ATOM     24  C   UNL     1      31.715  -9.028 -20.027  0.00  0.00    +0.003 C 
ATOM     25  C   UNL     1      31.875  -6.773 -20.881  0.00  0.00    +0.001 C 
ATOM     26  C   UNL     1      31.573  -7.652 -19.841  0.00  0.00    +0.000 C 
BRANCH  22  28
ATOM     27  N   UNL     1      31.559  -5.869 -23.846  0.00  0.00    -0.244 NA
ATOM     28  C   UNL     1      32.631  -6.357 -23.186  0.00  0.00    +0.081 C 
ATOM     29  C   UNL     1      33.944  -6.035 -23.485  0.00  0.00    +0.019 C 
ATOM     30  C   UNL     1      34.172  -5.152 -24.534  0.00  0.00    +0.003 C 
ATOM     31  C   UNL     1      31.820  -5.013 -24.860  0.00  0.00    +0.099 C 
ATOM     32  C   UNL     1      33.095  -4.627 -25.240  0.00  0.00    +0.021 C 
ENDBRANCH  22  28
ENDBRANCH   5  21
TORSDOF 6
ENDMDL
MODEL 2
REMARK VINA RESULT:     -11.0      5.393     10.105
REMARK  Name = 4369497
REMARK  6 active torsions:
REMARK  status: ('A' for Active; 'I' for Inactive)
REMARK    1  A    between atoms: N_2  and  C_9
REMARK    2  A    between atoms: C_5  and  C_21
REMARK    3  A    between atoms: C_8  and  S_14
REMARK    4  A    between atoms: C_12  and  O_19
REMARK    5  A    between atoms: S_14  and  C_17
REMARK    6  A    between atoms: C_22  and  C_28
REMARK                            x       y       z     vdW  Elec       q    Type
REMARK                         _______ _______ _______ _____ _____    ______ ____
ROOT
ATOM      1  O   UNL     1      33.873 -20.522 -20.248  0.00  0.00    -0.424 OA
ATOM      2  N   UNL     1      33.391 -21.850 -18.437  0.00  0.00    -0.265 N 
ATOM      3  N   UNL     1      35.599 -20.998 -18.866  0.00  0.00    -0.193 NA
ATOM      4  C   UNL     1      34.321 -21.151 -19.127  0.00  0.00    +0.293 C 
ATOM      5  C   UNL     1      34.989 -19.916 -20.728  0.00  0.00    +0.168 C 
ATOM      6  C   UNL     1      36.034 -20.202 -19.896  0.00  0.00    +0.141 C 
ATOM      7  H   UNL     1      32.512 -21.915 -18.875  0.00  0.00    +0.157 HD
ENDROOT
BRANCH   2   9
ATOM      8  C   UNL     1      34.839 -23.466 -15.438  0.00  0.00    +0.107 C 
ATOM      9  C   UNL     1      33.481 -22.504 -17.176  0.00  0.00    +0.087 C 
ATOM     10  C   UNL     1      34.736 -22.824 -16.672  0.00  0.00    +0.036 C 
ATOM     11  C   UNL     1      33.687 -23.783 -14.719  0.00  0.00    +0.022 C 
ATOM     12  C   UNL     1      32.329 -22.817 -16.467  0.00  0.00    +0.152 C 
ATOM     13  C   UNL     1      32.432 -23.459 -15.233  0.00  0.00    +0.040 C 
BRANCH   8  14
ATOM     14  S   UNL     1      36.410 -23.874 -14.793  0.00  0.00    +0.009 S 
ATOM     15  O   UNL     1      36.579 -25.316 -14.903  0.00  0.00    -0.169 OA
ATOM     16  O   UNL     1      37.404 -22.983 -15.373  0.00  0.00    -0.169 OA
BRANCH  14  17
ATOM     17  C   UNL     1      36.296 -23.468 -13.064  0.00  0.00    +0.156 C 
ATOM     18  C   UNL     1      36.348 -24.707 -12.199  0.00  0.00    +0.028 C 
ENDBRANCH  14  17
ENDBRANCH   8  14
BRANCH  12  19
ATOM     19  O   UNL     1      31.093 -22.509 -16.953  0.00  0.00    -0.470 OA
ATOM     20  C   UNL     1      29.981 -22.744 -16.091  0.00  0.00    +0.253 C 
ENDBRANCH  12  19
ENDBRANCH   2   9
BRANCH   5  21
ATOM     21  C   UNL     1      34.822 -19.153 -21.941  0.00  0.00    +0.036 C 
ATOM     22  C   UNL     1      34.541 -17.027 -23.055  0.00  0.00    +0.018 C 
ATOM     23  C   UNL     1      34.705 -17.764 -21.882  0.00  0.00    +0.005 C 
ATOM     24  C   UNL     1      34.776 -19.805 -23.173  0.00  0.00    +0.003 C 
ATOM     25  C   UNL     1      34.495 -17.679 -24.287  0.00  0.00    +0.001 C 
ATOM     26  C   UNL     1      34.613 -19.068 -24.346  0.00  0.00    +0.000 C 
BRANCH  22  28
ATOM     27  N   UNL     1      33.953 -15.008 -24.122  0.00  0.00    -0.244 NA
ATOM     28  C   UNL     1      34.419 -15.587 -22.994  0.00  0.00    +0.081 C 
ATOM     29  C   UNL     1      34.765 -14.893 -21.847  0.00  0.00    +0.019 C 
ATOM     30  C   UNL     1      34.622 -13.510 -21.859  0.00  0.00    +0.003 C 
ATOM     31  C   UNL     1      33.828 -13.662 -24.096  0.00  0.00    +0.099 C 
ATOM     32  C   UNL     1      34.146 -12.875 -23.001  0.00  0.00    +0.021 C 
ENDBRANCH  22  28
ENDBRANCH   5  21
TORSDOF 6
ENDMDL
MODEL 3
REMARK VINA RESULT:     -10.9      3.170      5.946
REMARK  Name = 4369497
REMARK  6 active torsions:
REMARK  status: ('A' for Active; 'I' for Inactive)
REMARK    1  A    between atoms: N_2  and  C_9
REMARK    2  A    between atoms: C_5  and  C_21
REMARK    3  A    between atoms: C_8  and  S_14
REMARK    4  A    between atoms: C_12  and  O_19
REMARK    5  A    between atoms: S_14  and  C_17
REMARK    6  A    between atoms: C_22  and  C_28
REMARK                            x       y       z     vdW  Elec       q    Type
REMARK                         _______ _______ _______ _____ _____    ______ ____
ROOT
ATOM      1  O   UNL     1      34.592 -16.590 -22.332  0.00  0.00    -0.424 OA
ATOM      2  N   UNL     1      35.202 -18.591 -21.383  0.00  0.00    -0.265 N 
ATOM      3  N   UNL     1      35.250 -16.513 -20.170  0.00  0.00    -0.193 NA
ATOM      4  C   UNL     1      35.037 -17.256 -21.232  0.00  0.00    +0.293 C 
ATOM      5  C   UNL     1      34.521 -15.303 -21.906  0.00  0.00    +0.168 C 
ATOM      6  C   UNL     1      34.919 -15.253 -20.600  0.00  0.00    +0.141 C 
ATOM      7  H   UNL     1      35.082 -18.922 -22.302  0.00  0.00    +0.157 HD
ENDROOT
BRANCH   2   9
ATOM      8  C   UNL     1      34.812 -21.439 -19.050  0.00  0.00    +0.107 C 
ATOM      9  C   UNL     1      35.518 -19.592 -20.422  0.00  0.00    +0.087 C 
ATOM     10  C   UNL     1      34.516 -20.454 -19.992  0.00  0.00    +0.036 C 
ATOM     11  C   UNL     1      36.107 -21.554 -18.545  0.00  0.00    +0.022 C 
ATOM     12  C   UNL     1      36.810 -19.699 -19.924  0.00  0.00    +0.152 C 
ATOM     13  C   UNL     1      37.106 -20.684 -18.982  0.00  0.00    +0.040 C 
BRANCH   8  14
ATOM     14  S   UNL     1      33.562 -22.528 -18.503  0.00  0.00    +0.009 S 
ATOM     15  O   UNL     1      32.300 -21.801 -18.508  0.00  0.00    -0.169 OA
ATOM     16  O   UNL     1      33.677 -23.783 -19.232  0.00  0.00    -0.169 OA
BRANCH  14  17
ATOM     17  C   UNL     1      33.987 -22.872 -16.809  0.00  0.00    +0.156 C 
ATOM     18  C   UNL     1      32.772 -23.269 -16.002  0.00  0.00    +0.028 C 
ENDBRANCH  14  17
ENDBRANCH   8  14
BRANCH  12  19
ATOM     19  O   UNL     1      37.800 -18.858 -20.336  0.00  0.00    -0.470 OA
ATOM     20  C   UNL     1      37.914 -18.632 -21.740  0.00  0.00    +0.253 C 
ENDBRANCH  12  19
ENDBRANCH   2   9
BRANCH   5  21
ATOM     21  C   UNL     1      34.069 -14.338 -22.878  0.00  0.00    +0.036 C 
ATOM     22  C   UNL     1      33.490 -12.065 -23.459  0.00  0.00    +0.018 C 
ATOM     23  C   UNL     1      33.930 -12.997 -22.519  0.00  0.00    +0.005 C 
ATOM     24  C   UNL     1      33.767 -14.747 -24.177  0.00  0.00    +0.003 C 
ATOM     25  C   UNL     1      33.189 -12.474 -24.758  0.00  0.00    +0.001 C 
ATOM     26  C   UNL     1      33.328 -13.815 -25.117  0.00  0.00    +0.000 C 
BRANCH  22  28
ATOM     27  N   UNL     1      32.408 -10.433 -22.146  0.00  0.00    -0.244 NA
ATOM     28  C   UNL     1      33.346 -10.675 -23.087  0.00  0.00    +0.081 C 
ATOM     29  C   UNL     1      34.131  -9.697 -23.676  0.00  0.00    +0.019 C 
ATOM     30  C   UNL     1      33.939  -8.381 -23.270  0.00  0.00    +0.003 C 
ATOM     31  C   UNL     1      32.249  -9.141 -21.777  0.00  0.00    +0.099 C 
ATOM     32  C   UNL     1      32.982  -8.089 -22.304  0.00  0.00    +0.021 C 
ENDBRANCH  22  28
ENDBRANCH   5  21
TORSDOF 6
ENDMDL
MODEL 4
REMARK VINA RESULT:     -10.8      3.294     10.332
REMARK  Name = 4369497
REMARK  6 active torsions:
REMARK  status: ('A' for Active; 'I' for Inactive)
REMARK    1  A    between atoms: N_2  and  C_9
REMARK    2  A    between atoms: C_5  and  C_21
REMARK    3  A    between atoms: C_8  and  S_14
REMARK    4  A    between atoms: C_12  and  O_19
REMARK    5  A    between atoms: S_14  and  C_17
REMARK    6  A    between atoms: C_22  and  C_28
REMARK                            x       y       z     vdW  Elec       q    Type
REMARK                         _______ _______ _______ _____ _____    ______ ____
ROOT
ATOM      1  O   UNL     1      34.075 -14.694 -22.972  0.00  0.00    -0.424 OA
ATOM      2  N   UNL     1      33.596 -12.465 -23.258  0.00  0.00    -0.265 N 
ATOM      3  N   UNL     1      34.612 -13.325 -21.254  0.00  0.00    -0.193 NA
ATOM      4  C   UNL     1      34.101 -13.433 -22.459  0.00  0.00    +0.293 C 
ATOM      5  C   UNL     1      34.627 -15.440 -21.982  0.00  0.00    +0.168 C 
ATOM      6  C   UNL     1      34.953 -14.616 -20.942  0.00  0.00    +0.141 C 
ATOM      7  H   UNL     1      33.168 -12.790 -24.082  0.00  0.00    +0.157 HD
ENDROOT
BRANCH   2   9
ATOM      8  C   UNL     1      32.900  -9.116 -21.842  0.00  0.00    +0.107 C 
ATOM      9  C   UNL     1      33.589 -11.052 -23.096  0.00  0.00    +0.087 C 
ATOM     10  C   UNL     1      32.916 -10.501 -22.012  0.00  0.00    +0.036 C 
ATOM     11  C   UNL     1      33.555  -8.294 -22.759  0.00  0.00    +0.022 C 
ATOM     12  C   UNL     1      34.243 -10.240 -24.014  0.00  0.00    +0.152 C 
ATOM     13  C   UNL     1      34.226  -8.855 -23.844  0.00  0.00    +0.040 C 
BRANCH   8  14
ATOM     14  S   UNL     1      32.059  -8.412 -20.483  0.00  0.00    +0.009 S 
ATOM     15  O   UNL     1      33.054  -8.022 -19.494  0.00  0.00    -0.169 OA
ATOM     16  O   UNL     1      31.105  -7.430 -20.976  0.00  0.00    -0.169 OA
BRANCH  14  17
ATOM     17  C   UNL     1      31.114  -9.758 -19.804  0.00  0.00    +0.156 C 
ATOM     18  C   UNL     1      31.837 -10.418 -18.652  0.00  0.00    +0.028 C 
ENDBRANCH  14  17
ENDBRANCH   8  14
BRANCH  12  19
ATOM     19  O   UNL     1      34.904 -10.768 -25.082  0.00  0.00    -0.470 OA
ATOM     20  C   UNL     1      35.837  -9.922 -25.751  0.00  0.00    +0.253 C 
ENDBRANCH  12  19
ENDBRANCH   2   9
BRANCH   5  21
ATOM     21  C   UNL     1      34.736 -16.856 -22.243  0.00  0.00    +0.036 C 
ATOM     22  C   UNL     1      34.976 -19.121 -21.436  0.00  0.00    +0.018 C 
ATOM     23  C   UNL     1      34.868 -17.753 -21.183  0.00  0.00    +0.005 C 
ATOM     24  C   UNL     1      34.712 -17.326 -23.556  0.00  0.00    +0.003 C 
ATOM     25  C   UNL     1      34.951 -19.590 -22.748  0.00  0.00    +0.001 C 
ATOM     26  C   UNL     1      34.819 -18.694 -23.808  0.00  0.00    +0.000 C 
BRANCH  22  28
ATOM     27  N   UNL     1      36.369 -20.185 -19.859  0.00  0.00    -0.244 NA
ATOM     28  C   UNL     1      35.113 -20.051 -20.337  0.00  0.00    +0.081 C 
ATOM     29  C   UNL     1      34.014 -20.733 -19.842  0.00  0.00    +0.019 C 
ATOM     30  C   UNL     1      34.218 -21.612 -18.784  0.00  0.00    +0.003 C 
ATOM     31  C   UNL     1      36.529 -21.049 -18.831  0.00  0.00    +0.099 C 
ATOM     32  C   UNL     1      35.497 -21.779 -18.264  0.00  0.00    +0.021 C 
ENDBRANCH  22  28
ENDBRANCH   5  21
TORSDOF 6
ENDMDL
MODEL 5
REMARK VINA RESULT:     -10.8      7.756     12.081
REMARK  Name = 4369497
REMARK  6 active torsions:
REMARK  status: ('A' for Active; 'I' for Inactive)
REMARK    1  A    between atoms: N_2  and  C_9
REMARK    2  A    between atoms: C_5  and  C_21
REMARK    3  A    between atoms: C_8  and  S_14
REMARK    4  A    between atoms: C_12  and  O_19
REMARK    5  A    between atoms: S_14  and  C_17
REMARK    6  A    between atoms: C_22  and  C_28
REMARK                            x       y       z     vdW  Elec       q    Type
REMARK                         _______ _______ _______ _____ _____    ______ ____
ROOT
ATOM      1  O   UNL     1      36.171 -21.049 -17.976  0.00  0.00    -0.424 OA
ATOM      2  N   UNL     1      35.965 -22.240 -16.023  0.00  0.00    -0.265 N 
ATOM      3  N   UNL     1      34.637 -22.710 -17.973  0.00  0.00    -0.193 NA
ATOM      4  C   UNL     1      35.553 -22.055 -17.298  0.00  0.00    +0.293 C 
ATOM      5  C   UNL     1      35.576 -21.088 -19.195  0.00  0.00    +0.168 C 
ATOM      6  C   UNL     1      34.649 -22.090 -19.197  0.00  0.00    +0.141 C 
ATOM      7  H   UNL     1      36.593 -21.561 -15.687  0.00  0.00    +0.157 HD
ENDROOT
BRANCH   2   9
ATOM      8  C   UNL     1      36.337 -25.095 -13.695  0.00  0.00    +0.107 C 
ATOM      9  C   UNL     1      35.636 -23.264 -15.091  0.00  0.00    +0.087 C 
ATOM     10  C   UNL     1      36.646 -24.087 -14.608  0.00  0.00    +0.036 C 
ATOM     11  C   UNL     1      35.020 -25.272 -13.272  0.00  0.00    +0.022 C 
ATOM     12  C   UNL     1      34.321 -23.434 -14.674  0.00  0.00    +0.152 C 
ATOM     13  C   UNL     1      34.012 -24.441 -13.761  0.00  0.00    +0.040 C 
BRANCH   8  14
ATOM     14  S   UNL     1      37.598 -26.136 -13.082  0.00  0.00    +0.009 S 
ATOM     15  O   UNL     1      37.240 -26.521 -11.724  0.00  0.00    -0.169 OA
ATOM     16  O   UNL     1      37.886 -27.163 -14.074  0.00  0.00    -0.169 OA
BRANCH  14  17
ATOM     17  C   UNL     1      39.032 -25.086 -12.992  0.00  0.00    +0.156 C 
ATOM     18  C   UNL     1      40.177 -25.640 -13.810  0.00  0.00    +0.028 C 
ENDBRANCH  14  17
ENDBRANCH   8  14
BRANCH  12  19
ATOM     19  O   UNL     1      33.322 -22.633 -15.142  0.00  0.00    -0.470 OA
ATOM     20  C   UNL     1      32.106 -23.272 -15.524  0.00  0.00    +0.253 C 
ENDBRANCH  12  19
ENDBRANCH   2   9
BRANCH   5  21
ATOM     21  C   UNL     1      36.035 -20.113 -20.155  0.00  0.00    +0.036 C 
ATOM     22  C   UNL     1      35.628 -18.733 -22.096  0.00  0.00    +0.018 C 
ATOM     23  C   UNL     1      35.182 -19.674 -21.167  0.00  0.00    +0.005 C 
ATOM     24  C   UNL     1      37.335 -19.613 -20.072  0.00  0.00    +0.003 C 
ATOM     25  C   UNL     1      36.926 -18.233 -22.013  0.00  0.00    +0.001 C 
ATOM     26  C   UNL     1      37.780 -18.672 -21.001  0.00  0.00    +0.000 C 
BRANCH  22  28
ATOM     27  N   UNL     1      34.860 -16.968 -23.458  0.00  0.00    -0.244 NA
ATOM     28  C   UNL     1      34.743 -18.277 -23.145  0.00  0.00    +0.081 C 
ATOM     29  C   UNL     1      33.858 -19.149 -23.757  0.00  0.00    +0.019 C 
ATOM     30  C   UNL     1      33.037 -18.642 -24.758  0.00  0.00    +0.003 C 
ATOM     31  C   UNL     1      34.045 -16.512 -24.436  0.00  0.00    +0.099 C 
ATOM     32  C   UNL     1      33.126 -17.300 -25.110  0.00  0.00    +0.021 C 
ENDBRANCH  22  28
ENDBRANCH   5  21
TORSDOF 6
ENDMDL
MODEL 6
REMARK VINA RESULT:     -10.5      7.640     12.014
REMARK  Name = 4369497
REMARK  6 active torsions:
REMARK  status: ('A' for Active; 'I' for Inactive)
REMARK    1  A    between atoms: N_2  and  C_9
REMARK    2  A    between atoms: C_5  and  C_21
REMARK    3  A    between atoms: C_8  and  S_14
REMARK    4  A    between atoms: C_12  and  O_19
REMARK    5  A    between atoms: S_14  and  C_17
REMARK    6  A    between atoms: C_22  and  C_28
REMARK                            x       y       z     vdW  Elec       q    Type
REMARK                         _______ _______ _______ _____ _____    ______ ____
ROOT
ATOM      1  O   UNL     1      36.067 -21.010 -18.002  0.00  0.00    -0.424 OA
ATOM      2  N   UNL     1      35.821 -22.182 -16.042  0.00  0.00    -0.265 N 
ATOM      3  N   UNL     1      34.347 -22.477 -17.921  0.00  0.00    -0.193 NA
ATOM      4  C   UNL     1      35.369 -21.940 -17.294  0.00  0.00    +0.293 C 
ATOM      5  C   UNL     1      35.409 -20.969 -19.189  0.00  0.00    +0.168 C 
ATOM      6  C   UNL     1      34.369 -21.854 -19.143  0.00  0.00    +0.141 C 
ATOM      7  H   UNL     1      36.542 -21.585 -15.739  0.00  0.00    +0.157 HD
ENDROOT
BRANCH   2   9
ATOM      8  C   UNL     1      33.685 -24.165 -13.759  0.00  0.00    +0.107 C 
ATOM      9  C   UNL     1      35.420 -23.165 -15.095  0.00  0.00    +0.087 C 
ATOM     10  C   UNL     1      34.091 -23.207 -14.687  0.00  0.00    +0.036 C 
ATOM     11  C   UNL     1      34.610 -25.073 -13.245  0.00  0.00    +0.022 C 
ATOM     12  C   UNL     1      36.347 -24.066 -14.587  0.00  0.00    +0.152 C 
ATOM     13  C   UNL     1      35.941 -25.024 -13.658  0.00  0.00    +0.040 C 
BRANCH   8  14
ATOM     14  S   UNL     1      32.019 -24.227 -13.239  0.00  0.00    +0.009 S 
ATOM     15  O   UNL     1      31.770 -25.554 -12.693  0.00  0.00    -0.169 OA
ATOM     16  O   UNL     1      31.731 -23.048 -12.435  0.00  0.00    -0.169 OA
BRANCH  14  17
ATOM     17  C   UNL     1      31.082 -24.070 -14.743  0.00  0.00    +0.156 C 
ATOM     18  C   UNL     1      29.834 -24.924 -14.710  0.00  0.00    +0.028 C 
ENDBRANCH  14  17
ENDBRANCH   8  14
BRANCH  12  19
ATOM     19  O   UNL     1      37.652 -24.034 -14.978  0.00  0.00    -0.470 OA
ATOM     20  C   UNL     1      38.592 -24.726 -14.157  0.00  0.00    +0.253 C 
ENDBRANCH  12  19
ENDBRANCH   2   9
BRANCH   5  21
ATOM     21  C   UNL     1      35.931 -20.050 -20.171  0.00  0.00    +0.036 C 
ATOM     22  C   UNL     1      35.611 -18.681 -22.136  0.00  0.00    +0.018 C 
ATOM     23  C   UNL     1      35.104 -19.568 -21.185  0.00  0.00    +0.005 C 
ATOM     24  C   UNL     1      37.265 -19.646 -20.106  0.00  0.00    +0.003 C 
ATOM     25  C   UNL     1      36.944 -18.277 -22.071  0.00  0.00    +0.001 C 
ATOM     26  C   UNL     1      37.771 -18.758 -21.056  0.00  0.00    +0.000 C 
BRANCH  22  28
ATOM     27  N   UNL     1      34.914 -16.871 -23.477  0.00  0.00    -0.244 NA
ATOM     28  C   UNL     1      34.754 -18.181 -23.188  0.00  0.00    +0.081 C 
ATOM     29  C   UNL     1      33.852 -19.015 -23.827  0.00  0.00    +0.019 C 
ATOM     30  C   UNL     1      33.059 -18.468 -24.829  0.00  0.00    +0.003 C 
ATOM     31  C   UNL     1      34.126 -16.374 -24.457  0.00  0.00    +0.099 C 
ATOM     32  C   UNL     1      33.193 -17.123 -25.156  0.00  0.00    +0.021 C 
ENDBRANCH  22  28
ENDBRANCH   5  21
TORSDOF 6
ENDMDL
MODEL 7
REMARK VINA RESULT:     -10.2      3.526     10.307
REMARK  Name = 4369497
REMARK  6 active torsions:
REMARK  status: ('A' for Active; 'I' for Inactive)
REMARK    1  A    between atoms: N_2  and  C_9
REMARK    2  A    between atoms: C_5  and  C_21
REMARK    3  A    between atoms: C_8  and  S_14
REMARK    4  A    between atoms: C_12  and  O_19
REMARK    5  A    between atoms: S_14  and  C_17
REMARK    6  A    between atoms: C_22  and  C_28
REMARK                            x       y       z     vdW  Elec       q    Type
REMARK                         _______ _______ _______ _____ _____    ______ ____
ROOT
ATOM      1  O   UNL     1      32.989 -11.913 -22.794  0.00  0.00    -0.424 OA
ATOM      2  N   UNL     1      32.395  -9.953 -21.753  0.00  0.00    -0.265 N 
ATOM      3  N   UNL     1      34.126 -10.062 -23.421  0.00  0.00    -0.193 NA
ATOM      4  C   UNL     1      33.188 -10.573 -22.657  0.00  0.00    +0.293 C 
ATOM      5  C   UNL     1      33.897 -12.265 -23.739  0.00  0.00    +0.168 C 
ATOM      6  C   UNL     1      34.586 -11.149 -24.121  0.00  0.00    +0.141 C 
ATOM      7  H   UNL     1      31.831 -10.554 -21.215  0.00  0.00    +0.157 HD
ENDROOT
BRANCH   2   9
ATOM      8  C   UNL     1      31.741  -6.338 -22.207  0.00  0.00    +0.107 C 
ATOM      9  C   UNL     1      32.246  -8.569 -21.459  0.00  0.00    +0.087 C 
ATOM     10  C   UNL     1      31.889  -7.697 -22.481  0.00  0.00    +0.036 C 
ATOM     11  C   UNL     1      31.951  -5.861 -20.913  0.00  0.00    +0.022 C 
ATOM     12  C   UNL     1      32.458  -8.102 -20.168  0.00  0.00    +0.152 C 
ATOM     13  C   UNL     1      32.309  -6.743 -19.894  0.00  0.00    +0.040 C 
BRANCH   8  14
ATOM     14  S   UNL     1      31.293  -5.233 -23.482  0.00  0.00    +0.009 S 
ATOM     15  O   UNL     1      30.992  -6.019 -24.671  0.00  0.00    -0.169 OA
ATOM     16  O   UNL     1      30.307  -4.292 -22.968  0.00  0.00    -0.169 OA
BRANCH  14  17
ATOM     17  C   UNL     1      32.776  -4.304 -23.803  0.00  0.00    +0.156 C 
ATOM     18  C   UNL     1      33.904  -5.202 -24.260  0.00  0.00    +0.028 C 
ENDBRANCH  14  17
ENDBRANCH   8  14
BRANCH  12  19
ATOM     19  O   UNL     1      32.809  -8.947 -19.159  0.00  0.00    -0.470 OA
ATOM     20  C   UNL     1      31.846  -9.923 -18.766  0.00  0.00    +0.253 C 
ENDBRANCH  12  19
ENDBRANCH   2   9
BRANCH   5  21
ATOM     21  C   UNL     1      33.923 -13.661 -24.103  0.00  0.00    +0.036 C 
ATOM     22  C   UNL     1      34.413 -15.961 -23.546  0.00  0.00    +0.018 C 
ATOM     23  C   UNL     1      34.386 -14.611 -23.192  0.00  0.00    +0.005 C 
ATOM     24  C   UNL     1      33.490 -14.060 -25.367  0.00  0.00    +0.003 C 
ATOM     25  C   UNL     1      33.979 -16.359 -24.810  0.00  0.00    +0.001 C 
ATOM     26  C   UNL     1      33.517 -15.409 -25.721  0.00  0.00    +0.000 C 
BRANCH  22  28
ATOM     27  N   UNL     1      35.212 -16.458 -21.384  0.00  0.00    -0.244 NA
ATOM     28  C   UNL     1      34.892 -16.946 -22.602  0.00  0.00    +0.081 C 
ATOM     29  C   UNL     1      35.000 -18.280 -22.960  0.00  0.00    +0.019 C 
ATOM     30  C   UNL     1      35.468 -19.173 -22.002  0.00  0.00    +0.003 C 
ATOM     31  C   UNL     1      35.664 -17.356 -20.479  0.00  0.00    +0.099 C 
ATOM     32  C   UNL     1      35.808 -18.710 -20.736  0.00  0.00    +0.021 C 
ENDBRANCH  22  28
ENDBRANCH   5  21
TORSDOF 6
ENDMDL
MODEL 8
REMARK VINA RESULT:      -9.8      7.497     11.806
REMARK  Name = 4369497
REMARK  6 active torsions:
REMARK  status: ('A' for Active; 'I' for Inactive)
REMARK    1  A    between atoms: N_2  and  C_9
REMARK    2  A    between atoms: C_5  and  C_21
REMARK    3  A    between atoms: C_8  and  S_14
REMARK    4  A    between atoms: C_12  and  O_19
REMARK    5  A    between atoms: S_14  and  C_17
REMARK    6  A    between atoms: C_22  and  C_28
REMARK                            x       y       z     vdW  Elec       q    Type
REMARK                         _______ _______ _______ _____ _____    ______ ____
ROOT
ATOM      1  O   UNL     1      34.797 -21.290 -18.060  0.00  0.00    -0.424 OA
ATOM      2  N   UNL     1      34.035 -22.507 -16.267  0.00  0.00    -0.265 N 
ATOM      3  N   UNL     1      32.692 -22.101 -18.222  0.00  0.00    -0.193 NA
ATOM      4  C   UNL     1      33.782 -22.002 -17.496  0.00  0.00    +0.293 C 
ATOM      5  C   UNL     1      34.280 -20.912 -19.257  0.00  0.00    +0.168 C 
ATOM      6  C   UNL     1      33.009 -21.400 -19.358  0.00  0.00    +0.141 C 
ATOM      7  H   UNL     1      34.886 -22.217 -15.867  0.00  0.00    +0.157 HD
ENDROOT
BRANCH   2   9
ATOM      8  C   UNL     1      31.112 -24.141 -14.688  0.00  0.00    +0.107 C 
ATOM      9  C   UNL     1      33.265 -23.392 -15.462  0.00  0.00    +0.087 C 
ATOM     10  C   UNL     1      31.879 -23.280 -15.473  0.00  0.00    +0.036 C 
ATOM     11  C   UNL     1      31.737 -25.106 -13.898  0.00  0.00    +0.022 C 
ATOM     12  C   UNL     1      33.894 -24.350 -14.678  0.00  0.00    +0.152 C 
ATOM     13  C   UNL     1      33.127 -25.211 -13.892  0.00  0.00    +0.040 C 
BRANCH   8  14
ATOM     14  S   UNL     1      29.371 -24.010 -14.693  0.00  0.00    +0.009 S 
ATOM     15  O   UNL     1      28.832 -25.190 -14.031  0.00  0.00    -0.169 OA
ATOM     16  O   UNL     1      28.996 -22.684 -14.225  0.00  0.00    -0.169 OA
BRANCH  14  17
ATOM     17  C   UNL     1      28.927 -24.098 -16.413  0.00  0.00    +0.156 C 
ATOM     18  C   UNL     1      27.894 -23.055 -16.773  0.00  0.00    +0.028 C 
ENDBRANCH  14  17
ENDBRANCH   8  14
BRANCH  12  19
ATOM     19  O   UNL     1      35.252 -24.468 -14.658  0.00  0.00    -0.470 OA
ATOM     20  C   UNL     1      35.907 -24.200 -13.420  0.00  0.00    +0.253 C 
ENDBRANCH  12  19
ENDBRANCH   2   9
BRANCH   5  21
ATOM     21  C   UNL     1      35.147 -20.123 -20.099  0.00  0.00    +0.036 C 
ATOM     22  C   UNL     1      35.446 -18.600 -21.951  0.00  0.00    +0.018 C 
ATOM     23  C   UNL     1      34.607 -19.360 -21.135  0.00  0.00    +0.005 C 
ATOM     24  C   UNL     1      36.524 -20.127 -19.880  0.00  0.00    +0.003 C 
ATOM     25  C   UNL     1      36.823 -18.603 -21.730  0.00  0.00    +0.001 C 
ATOM     26  C   UNL     1      37.362 -19.366 -20.695  0.00  0.00    +0.000 C 
BRANCH  22  28
ATOM     27  N   UNL     1      34.046 -18.475 -23.844  0.00  0.00    -0.244 NA
ATOM     28  C   UNL     1      34.888 -17.808 -23.025  0.00  0.00    +0.081 C 
ATOM     29  C   UNL     1      35.217 -16.470 -23.167  0.00  0.00    +0.019 C 
ATOM     30  C   UNL     1      34.643 -15.770 -24.223  0.00  0.00    +0.003 C 
ATOM     31  C   UNL     1      33.508 -17.762 -24.859  0.00  0.00    +0.099 C 
ATOM     32  C   UNL     1      33.772 -16.421 -25.089  0.00  0.00    +0.021 C 
ENDBRANCH  22  28
ENDBRANCH   5  21
TORSDOF 6
ENDMDL
MODEL 9
REMARK VINA RESULT:      -9.8      4.157     10.630
REMARK  Name = 4369497
REMARK  6 active torsions:
REMARK  status: ('A' for Active; 'I' for Inactive)
REMARK    1  A    between atoms: N_2  and  C_9
REMARK    2  A    between atoms: C_5  and  C_21
REMARK    3  A    between atoms: C_8  and  S_14
REMARK    4  A    between atoms: C_12  and  O_19
REMARK    5  A    between atoms: S_14  and  C_17
REMARK    6  A    between atoms: C_22  and  C_28
REMARK                            x       y       z     vdW  Elec       q    Type
REMARK                         _______ _______ _______ _____ _____    ______ ____
ROOT
ATOM      1  O   UNL     1      32.650 -10.108 -23.574  0.00  0.00    -0.424 OA
ATOM      2  N   UNL     1      31.973  -7.983 -23.025  0.00  0.00    -0.265 N 
ATOM      3  N   UNL     1      34.292  -8.593 -23.220  0.00  0.00    -0.193 NA
ATOM      4  C   UNL     1      33.001  -8.831 -23.258  0.00  0.00    +0.293 C 
ATOM      5  C   UNL     1      33.848 -10.721 -23.749  0.00  0.00    +0.168 C 
ATOM      6  C   UNL     1      34.842  -9.809 -23.536  0.00  0.00    +0.141 C 
ATOM      7  H   UNL     1      31.084  -8.405 -23.006  0.00  0.00    +0.157 HD
ENDROOT
BRANCH   2   9
ATOM      8  C   UNL     1      32.086  -4.344 -23.697  0.00  0.00    +0.107 C 
ATOM      9  C   UNL     1      31.973  -6.577 -22.806  0.00  0.00    +0.087 C 
ATOM     10  C   UNL     1      32.083  -5.724 -23.898  0.00  0.00    +0.036 C 
ATOM     11  C   UNL     1      31.980  -3.828 -22.405  0.00  0.00    +0.022 C 
ATOM     12  C   UNL     1      31.868  -6.071 -21.516  0.00  0.00    +0.152 C 
ATOM     13  C   UNL     1      31.871  -4.690 -21.315  0.00  0.00    +0.040 C 
BRANCH   8  14
ATOM     14  S   UNL     1      32.222  -3.263 -25.061  0.00  0.00    +0.009 S 
ATOM     15  O   UNL     1      30.876  -2.901 -25.482  0.00  0.00    -0.169 OA
ATOM     16  O   UNL     1      33.186  -2.219 -24.741  0.00  0.00    -0.169 OA
BRANCH  14  17
ATOM     17  C   UNL     1      32.947  -4.260 -26.344  0.00  0.00    +0.156 C 
ATOM     18  C   UNL     1      34.457  -4.191 -26.314  0.00  0.00    +0.028 C 
ENDBRANCH  14  17
ENDBRANCH   8  14
BRANCH  12  19
ATOM     19  O   UNL     1      31.762  -6.897 -20.438  0.00  0.00    -0.470 OA
ATOM     20  C   UNL     1      32.978  -7.321 -19.824  0.00  0.00    +0.253 C 
ENDBRANCH  12  19
ENDBRANCH   2   9
BRANCH   5  21
ATOM     21  C   UNL     1      33.797 -12.120 -24.101  0.00  0.00    +0.036 C 
ATOM     22  C   UNL     1      34.166 -14.438 -23.526  0.00  0.00    +0.018 C 
ATOM     23  C   UNL     1      34.213 -13.086 -23.184  0.00  0.00    +0.005 C 
ATOM     24  C   UNL     1      33.335 -12.506 -25.359  0.00  0.00    +0.003 C 
ATOM     25  C   UNL     1      33.703 -14.823 -24.784  0.00  0.00    +0.001 C 
ATOM     26  C   UNL     1      33.287 -13.858 -25.700  0.00  0.00    +0.000 C 
BRANCH  22  28
ATOM     27  N   UNL     1      34.614 -15.032 -21.289  0.00  0.00    -0.244 NA
ATOM     28  C   UNL     1      34.597 -15.440 -22.576  0.00  0.00    +0.081 C 
ATOM     29  C   UNL     1      34.957 -16.710 -22.997  0.00  0.00    +0.019 C 
ATOM     30  C   UNL     1      35.361 -17.623 -22.029  0.00  0.00    +0.003 C 
ATOM     31  C   UNL     1      35.014 -15.947 -20.376  0.00  0.00    +0.099 C 
ATOM     32  C   UNL     1      35.393 -17.242 -20.692  0.00  0.00    +0.021 C 
ENDBRANCH  22  28
ENDBRANCH   5  21
TORSDOF 6
ENDMDL
