MODEL 1
REMARK VINA RESULT:     -12.7      0.000      0.000
REMARK  Name = 11840906
REMARK  7 active torsions:
REMARK  status: ('A' for Active; 'I' for Inactive)
REMARK    1  A    between atoms: O_1  and  C_3
REMARK    2  A    between atoms: O_1  and  C_18
REMARK    3  A    between atoms: C_5  and  C_9
REMARK    4  A    between atoms: C_18  and  C_19
REMARK    5  A    between atoms: C_19  and  N_20
REMARK    6  A    between atoms: C_19  and  C_24
REMARK    7  A    between atoms: C_24  and  C_26
REMARK                            x       y       z     vdW  Elec       q    Type
REMARK                         _______ _______ _______ _____ _____    ______ ____
ROOT
ATOM      1  O   UNL     1      34.983 -14.073 -23.012  0.00  0.00    -0.476 OA
ENDROOT
BRANCH   1   3
ATOM      2  N   UNL     1      34.290 -17.206 -24.741  0.00  0.00    -0.239 NA
ATOM      3  C   UNL     1      34.857 -15.420 -23.233  0.00  0.00    +0.158 C 
ATOM      4  C   UNL     1      35.150 -16.327 -22.230  0.00  0.00    +0.040 C 
ATOM      5  C   UNL     1      35.011 -17.687 -22.484  0.00  0.00    +0.022 C 
ATOM      6  C   UNL     1      34.436 -15.892 -24.458  0.00  0.00    +0.136 C 
ATOM      7  C   UNL     1      34.582 -18.071 -23.744  0.00  0.00    +0.099 C 
BRANCH   5   9
ATOM      8  N   UNL     1      35.150 -22.324 -17.965  0.00  0.00    -0.242 NA
ATOM      9  C   UNL     1      35.305 -18.667 -21.465  0.00  0.00    +0.002 C 
ATOM     10  C   UNL     1      34.553 -20.420 -19.952  0.00  0.00    +0.003 C 
ATOM     11  C   UNL     1      34.282 -19.464 -20.944  0.00  0.00    +0.000 C 
ATOM     12  C   UNL     1      35.874 -20.570 -19.486  0.00  0.00    +0.019 C 
ATOM     13  C   UNL     1      36.611 -18.819 -20.999  0.00  0.00    +0.000 C 
ATOM     14  C   UNL     1      36.897 -19.765 -20.014  0.00  0.00    +0.002 C 
ATOM     15  C   UNL     1      33.548 -21.232 -19.412  0.00  0.00    +0.021 C 
ATOM     16  C   UNL     1      36.106 -21.531 -18.500  0.00  0.00    +0.099 C 
ATOM     17  C   UNL     1      33.896 -22.154 -18.437  0.00  0.00    +0.099 C 
ENDBRANCH   5   9
ENDBRANCH   1   3
BRANCH   1  18
ATOM     18  C   UNL     1      33.843 -13.270 -23.286  0.00  0.00    +0.184 C 
BRANCH  18  19
ATOM     19  C   UNL     1      34.243 -12.081 -24.166  0.00  0.00    -0.021 C 
BRANCH  19  20
ATOM     20  N   UNL     1      33.237 -11.915 -25.215  0.00  0.00    +0.384 N 
ATOM     21  H   UNL     1      33.676 -12.032 -26.129  0.00  0.00    -0.089 HD
ATOM     22  H   UNL     1      32.830 -10.982 -25.151  0.00  0.00    -0.089 HD
ATOM     23  H   UNL     1      32.504 -12.615 -25.097  0.00  0.00    -0.089 HD
ENDBRANCH  19  20
BRANCH  19  24
ATOM     24  C   UNL     1      34.395 -10.789 -23.334  0.00  0.00    -0.012 C 
BRANCH  24  26
ATOM     25  N   UNL     1      33.037  -7.836 -22.159  0.00  0.00    -0.270 NA
ATOM     26  C   UNL     1      33.121  -9.973 -23.228  0.00  0.00    +0.046 C 
ATOM     27  C   UNL     1      32.442 -10.074 -21.900  0.00  0.00    -0.007 C 
ATOM     28  C   UNL     1      33.429  -8.479 -23.217  0.00  0.00    +0.130 C 
ATOM     29  C   UNL     1      32.423  -8.794 -21.333  0.00  0.00    +0.071 C 
ATOM     30  C   UNL     1      31.888 -11.162 -21.254  0.00  0.00    -0.024 C 
ATOM     31  C   UNL     1      31.848  -8.578 -20.092  0.00  0.00    +0.014 C 
ATOM     32  C   UNL     1      31.306 -10.952 -20.002  0.00  0.00    +0.052 C 
ATOM     33  C   UNL     1      31.287  -9.671 -19.426  0.00  0.00    -0.020 C 
ENDBRANCH  24  26
ENDBRANCH  19  24
ENDBRANCH  18  19
ENDBRANCH   1  18
TORSDOF 7
ENDMDL
MODEL 2
REMARK VINA RESULT:     -12.3      1.411      2.184
REMARK  Name = 11840906
REMARK  7 active torsions:
REMARK  status: ('A' for Active; 'I' for Inactive)
REMARK    1  A    between atoms: O_1  and  C_3
REMARK    2  A    between atoms: O_1  and  C_18
REMARK    3  A    between atoms: C_5  and  C_9
REMARK    4  A    between atoms: C_18  and  C_19
REMARK    5  A    between atoms: C_19  and  N_20
REMARK    6  A    between atoms: C_19  and  C_24
REMARK    7  A    between atoms: C_24  and  C_26
REMARK                            x       y       z     vdW  Elec       q    Type
REMARK                         _______ _______ _______ _____ _____    ______ ____
ROOT
ATOM      1  O   UNL     1      35.279 -14.772 -23.319  0.00  0.00    -0.476 OA
ENDROOT
BRANCH   1   3
ATOM      2  N   UNL     1      34.020 -17.934 -24.624  0.00  0.00    -0.239 NA
ATOM      3  C   UNL     1      34.955 -16.103 -23.375  0.00  0.00    +0.158 C 
ATOM      4  C   UNL     1      35.218 -16.936 -22.303  0.00  0.00    +0.040 C 
ATOM      5  C   UNL     1      34.878 -18.282 -22.391  0.00  0.00    +0.022 C 
ATOM      6  C   UNL     1      34.365 -16.632 -24.503  0.00  0.00    +0.136 C 
ATOM      7  C   UNL     1      34.287 -18.726 -23.562  0.00  0.00    +0.099 C 
BRANCH   5   9
ATOM      8  N   UNL     1      34.840 -22.568 -17.536  0.00  0.00    -0.242 NA
ATOM      9  C   UNL     1      35.133 -19.186 -21.294  0.00  0.00    +0.002 C 
ATOM     10  C   UNL     1      34.319 -20.812 -19.675  0.00  0.00    +0.003 C 
ATOM     11  C   UNL     1      34.086 -19.930 -20.742  0.00  0.00    +0.000 C 
ATOM     12  C   UNL     1      35.626 -20.941 -19.163  0.00  0.00    +0.019 C 
ATOM     13  C   UNL     1      36.424 -19.316 -20.783  0.00  0.00    +0.000 C 
ATOM     14  C   UNL     1      36.672 -20.189 -19.723  0.00  0.00    +0.002 C 
ATOM     15  C   UNL     1      33.290 -21.571 -19.103  0.00  0.00    +0.021 C 
ATOM     16  C   UNL     1      35.820 -21.827 -18.103  0.00  0.00    +0.099 C 
ATOM     17  C   UNL     1      33.601 -22.420 -18.053  0.00  0.00    +0.099 C 
ENDBRANCH   5   9
ENDBRANCH   1   3
BRANCH   1  18
ATOM     18  C   UNL     1      34.198 -13.849 -23.341  0.00  0.00    +0.184 C 
BRANCH  18  19
ATOM     19  C   UNL     1      33.424 -13.924 -22.020  0.00  0.00    -0.021 C 
BRANCH  19  20
ATOM     20  N   UNL     1      34.345 -13.633 -20.921  0.00  0.00    +0.384 N 
ATOM     21  H   UNL     1      33.948 -13.974 -20.045  0.00  0.00    -0.089 HD
ATOM     22  H   UNL     1      34.492 -12.625 -20.858  0.00  0.00    -0.089 HD
ATOM     23  H   UNL     1      35.237 -14.096 -21.093  0.00  0.00    -0.089 HD
ENDBRANCH  19  20
BRANCH  19  24
ATOM     24  C   UNL     1      32.227 -12.950 -22.012  0.00  0.00    -0.012 C 
BRANCH  24  26
ATOM     25  N   UNL     1      30.666 -10.246 -20.528  0.00  0.00    -0.270 NA
ATOM     26  C   UNL     1      32.445 -11.715 -21.159  0.00  0.00    +0.046 C 
ATOM     27  C   UNL     1      32.512 -10.441 -21.937  0.00  0.00    -0.007 C 
ATOM     28  C   UNL     1      31.209 -11.407 -20.319  0.00  0.00    +0.130 C 
ATOM     29  C   UNL     1      31.451  -9.629 -21.519  0.00  0.00    +0.071 C 
ATOM     30  C   UNL     1      33.408 -10.023 -22.903  0.00  0.00    -0.024 C 
ATOM     31  C   UNL     1      31.261  -8.372 -22.068  0.00  0.00    +0.014 C 
ATOM     32  C   UNL     1      33.222  -8.757 -23.462  0.00  0.00    +0.052 C 
ATOM     33  C   UNL     1      32.158  -7.939 -23.049  0.00  0.00    -0.020 C 
ENDBRANCH  24  26
ENDBRANCH  19  24
ENDBRANCH  18  19
ENDBRANCH   1  18
TORSDOF 7
ENDMDL
MODEL 3
REMARK VINA RESULT:     -12.2      1.673      9.297
REMARK  Name = 11840906
REMARK  7 active torsions:
REMARK  status: ('A' for Active; 'I' for Inactive)
REMARK    1  A    between atoms: O_1  and  C_3
REMARK    2  A    between atoms: O_1  and  C_18
REMARK    3  A    between atoms: C_5  and  C_9
REMARK    4  A    between atoms: C_18  and  C_19
REMARK    5  A    between atoms: C_19  and  N_20
REMARK    6  A    between atoms: C_19  and  C_24
REMARK    7  A    between atoms: C_24  and  C_26
REMARK                            x       y       z     vdW  Elec       q    Type
REMARK                         _______ _______ _______ _____ _____    ______ ____
ROOT
ATOM      1  O   UNL     1      33.626 -16.163 -25.324  0.00  0.00    -0.476 OA
ENDROOT
BRANCH   1   3
ATOM      2  N   UNL     1      33.826 -12.642 -26.246  0.00  0.00    -0.239 NA
ATOM      3  C   UNL     1      33.563 -14.798 -25.212  0.00  0.00    +0.158 C 
ATOM      4  C   UNL     1      33.190 -14.207 -24.018  0.00  0.00    +0.040 C 
ATOM      5  C   UNL     1      33.135 -12.820 -23.936  0.00  0.00    +0.022 C 
ATOM      6  C   UNL     1      33.868 -13.993 -26.288  0.00  0.00    +0.136 C 
ATOM      7  C   UNL     1      33.459 -12.090 -25.067  0.00  0.00    +0.099 C 
BRANCH   5   9
ATOM      8  N   UNL     1      31.603  -8.854 -19.051  0.00  0.00    -0.242 NA
ATOM      9  C   UNL     1      32.752 -12.163 -22.709  0.00  0.00    +0.002 C 
ATOM     10  C   UNL     1      32.351 -10.114 -21.456  0.00  0.00    +0.003 C 
ATOM     11  C   UNL     1      32.721 -10.767 -22.643  0.00  0.00    +0.000 C 
ATOM     12  C   UNL     1      32.010 -10.884 -20.326  0.00  0.00    +0.019 C 
ATOM     13  C   UNL     1      32.414 -12.920 -21.588  0.00  0.00    +0.000 C 
ATOM     14  C   UNL     1      32.045 -12.287 -20.401  0.00  0.00    +0.002 C 
ATOM     15  C   UNL     1      32.311  -8.717 -21.360  0.00  0.00    +0.021 C 
ATOM     16  C   UNL     1      31.648 -10.201 -19.164  0.00  0.00    +0.099 C 
ATOM     17  C   UNL     1      31.935  -8.148 -20.154  0.00  0.00    +0.099 C 
ENDBRANCH   5   9
ENDBRANCH   1   3
BRANCH   1  18
ATOM     18  C   UNL     1      34.594 -16.826 -24.521  0.00  0.00    +0.184 C 
BRANCH  18  19
ATOM     19  C   UNL     1      33.934 -17.977 -23.755  0.00  0.00    -0.021 C 
BRANCH  19  20
ATOM     20  N   UNL     1      33.098 -18.739 -24.684  0.00  0.00    +0.384 N 
ATOM     21  H   UNL     1      32.390 -19.254 -24.160  0.00  0.00    -0.089 HD
ATOM     22  H   UNL     1      33.680 -19.395 -25.205  0.00  0.00    -0.089 HD
ATOM     23  H   UNL     1      32.641 -18.099 -25.334  0.00  0.00    -0.089 HD
ENDBRANCH  19  20
BRANCH  19  24
ATOM     24  C   UNL     1      34.986 -18.886 -23.084  0.00  0.00    -0.012 C 
BRANCH  24  26
ATOM     25  N   UNL     1      37.390 -19.074 -20.608  0.00  0.00    -0.270 NA
ATOM     26  C   UNL     1      35.326 -18.485 -21.661  0.00  0.00    +0.046 C 
ATOM     27  C   UNL     1      35.114 -19.571 -20.656  0.00  0.00    -0.007 C 
ATOM     28  C   UNL     1      36.830 -18.303 -21.491  0.00  0.00    +0.130 C 
ATOM     29  C   UNL     1      36.355 -19.863 -20.077  0.00  0.00    +0.071 C 
ATOM     30  C   UNL     1      33.962 -20.231 -20.275  0.00  0.00    -0.024 C 
ATOM     31  C   UNL     1      36.468 -20.837 -19.099  0.00  0.00    +0.014 C 
ATOM     32  C   UNL     1      34.068 -21.214 -19.289  0.00  0.00    +0.052 C 
ATOM     33  C   UNL     1      35.311 -21.515 -18.706  0.00  0.00    -0.020 C 
ENDBRANCH  24  26
ENDBRANCH  19  24
ENDBRANCH  18  19
ENDBRANCH   1  18
TORSDOF 7
ENDMDL
MODEL 4
REMARK VINA RESULT:     -12.2      5.035     11.453
REMARK  Name = 11840906
REMARK  7 active torsions:
REMARK  status: ('A' for Active; 'I' for Inactive)
REMARK    1  A    between atoms: O_1  and  C_3
REMARK    2  A    between atoms: O_1  and  C_18
REMARK    3  A    between atoms: C_5  and  C_9
REMARK    4  A    between atoms: C_18  and  C_19
REMARK    5  A    between atoms: C_19  and  N_20
REMARK    6  A    between atoms: C_19  and  C_24
REMARK    7  A    between atoms: C_24  and  C_26
REMARK                            x       y       z     vdW  Elec       q    Type
REMARK                         _______ _______ _______ _____ _____    ______ ____
ROOT
ATOM      1  O   UNL     1      36.348 -22.361 -17.621  0.00  0.00    -0.476 OA
ENDROOT
BRANCH   1   3
ATOM      2  N   UNL     1      32.990 -21.856 -18.946  0.00  0.00    -0.239 NA
ATOM      3  C   UNL     1      35.325 -21.838 -18.370  0.00  0.00    +0.158 C 
ATOM      4  C   UNL     1      35.565 -20.814 -19.268  0.00  0.00    +0.040 C 
ATOM      5  C   UNL     1      34.507 -20.305 -20.014  0.00  0.00    +0.022 C 
ATOM      6  C   UNL     1      34.042 -22.325 -18.239  0.00  0.00    +0.136 C 
ATOM      7  C   UNL     1      33.251 -20.855 -19.817  0.00  0.00    +0.099 C 
BRANCH   5   9
ATOM      8  N   UNL     1      34.741 -16.182 -25.002  0.00  0.00    -0.242 NA
ATOM      9  C   UNL     1      34.712 -19.237 -20.963  0.00  0.00    +0.002 C 
ATOM     10  C   UNL     1      34.324 -18.276 -23.167  0.00  0.00    +0.003 C 
ATOM     11  C   UNL     1      34.131 -19.307 -22.232  0.00  0.00    +0.000 C 
ATOM     12  C   UNL     1      35.113 -17.164 -22.809  0.00  0.00    +0.019 C 
ATOM     13  C   UNL     1      35.493 -18.135 -20.615  0.00  0.00    +0.000 C 
ATOM     14  C   UNL     1      35.694 -17.102 -21.532  0.00  0.00    +0.002 C 
ATOM     15  C   UNL     1      33.754 -18.319 -24.445  0.00  0.00    +0.021 C 
ATOM     16  C   UNL     1      35.282 -16.159 -23.763  0.00  0.00    +0.099 C 
ATOM     17  C   UNL     1      33.990 -17.261 -25.309  0.00  0.00    +0.099 C 
ENDBRANCH   5   9
ENDBRANCH   1   3
BRANCH   1  18
ATOM     18  C   UNL     1      36.408 -21.966 -16.257  0.00  0.00    +0.184 C 
BRANCH  18  19
ATOM     19  C   UNL     1      36.623 -23.196 -15.369  0.00  0.00    -0.021 C 
BRANCH  19  20
ATOM     20  N   UNL     1      37.200 -22.761 -14.097  0.00  0.00    +0.384 N 
ATOM     21  H   UNL     1      36.628 -22.013 -13.702  0.00  0.00    -0.089 HD
ATOM     22  H   UNL     1      38.147 -22.417 -14.253  0.00  0.00    -0.089 HD
ATOM     23  H   UNL     1      37.226 -23.547 -13.448  0.00  0.00    -0.089 HD
ENDBRANCH  19  20
BRANCH  19  24
ATOM     24  C   UNL     1      35.304 -23.967 -15.144  0.00  0.00    -0.012 C 
BRANCH  24  26
ATOM     25  N   UNL     1      33.354 -24.556 -12.352  0.00  0.00    -0.270 NA
ATOM     26  C   UNL     1      34.383 -23.324 -14.124  0.00  0.00    +0.046 C 
ATOM     27  C   UNL     1      32.929 -23.531 -14.401  0.00  0.00    -0.007 C 
ATOM     28  C   UNL     1      34.468 -24.045 -12.783  0.00  0.00    +0.130 C 
ATOM     29  C   UNL     1      32.389 -24.251 -13.329  0.00  0.00    +0.071 C 
ATOM     30  C   UNL     1      32.151 -23.127 -15.469  0.00  0.00    -0.024 C 
ATOM     31  C   UNL     1      31.047 -24.589 -13.307  0.00  0.00    +0.014 C 
ATOM     32  C   UNL     1      30.796 -23.465 -15.454  0.00  0.00    +0.052 C 
ATOM     33  C   UNL     1      30.249 -24.190 -14.383  0.00  0.00    -0.020 C 
ENDBRANCH  24  26
ENDBRANCH  19  24
ENDBRANCH  18  19
ENDBRANCH   1  18
TORSDOF 7
ENDMDL
MODEL 5
REMARK VINA RESULT:     -12.1      3.402     11.191
REMARK  Name = 11840906
REMARK  7 active torsions:
REMARK  status: ('A' for Active; 'I' for Inactive)
REMARK    1  A    between atoms: O_1  and  C_3
REMARK    2  A    between atoms: O_1  and  C_18
REMARK    3  A    between atoms: C_5  and  C_9
REMARK    4  A    between atoms: C_18  and  C_19
REMARK    5  A    between atoms: C_19  and  N_20
REMARK    6  A    between atoms: C_19  and  C_24
REMARK    7  A    between atoms: C_24  and  C_26
REMARK                            x       y       z     vdW  Elec       q    Type
REMARK                         _______ _______ _______ _____ _____    ______ ____
ROOT
ATOM      1  O   UNL     1      34.476 -21.345 -19.891  0.00  0.00    -0.476 OA
ENDROOT
BRANCH   1   3
ATOM      2  N   UNL     1      37.334 -19.121 -20.301  0.00  0.00    -0.239 NA
ATOM      3  C   UNL     1      35.233 -20.291 -20.333  0.00  0.00    +0.158 C 
ATOM      4  C   UNL     1      34.703 -19.367 -21.215  0.00  0.00    +0.040 C 
ATOM      5  C   UNL     1      35.496 -18.308 -21.646  0.00  0.00    +0.022 C 
ATOM      6  C   UNL     1      36.534 -20.136 -19.905  0.00  0.00    +0.136 C 
ATOM      7  C   UNL     1      36.792 -18.231 -21.163  0.00  0.00    +0.099 C 
BRANCH   5   9
ATOM      8  N   UNL     1      33.453 -13.093 -24.895  0.00  0.00    -0.242 NA
ATOM      9  C   UNL     1      34.983 -17.321 -22.566  0.00  0.00    +0.002 C 
ATOM     10  C   UNL     1      34.460 -15.000 -23.086  0.00  0.00    +0.003 C 
ATOM     11  C   UNL     1      34.958 -15.972 -22.202  0.00  0.00    +0.000 C 
ATOM     12  C   UNL     1      33.984 -15.402 -24.350  0.00  0.00    +0.019 C 
ATOM     13  C   UNL     1      34.509 -17.713 -23.817  0.00  0.00    +0.000 C 
ATOM     14  C   UNL     1      34.012 -16.760 -24.707  0.00  0.00    +0.002 C 
ATOM     15  C   UNL     1      34.424 -13.641 -22.749  0.00  0.00    +0.021 C 
ATOM     16  C   UNL     1      33.497 -14.409 -25.202  0.00  0.00    +0.099 C 
ATOM     17  C   UNL     1      33.919 -12.744 -23.677  0.00  0.00    +0.099 C 
ENDBRANCH   5   9
ENDBRANCH   1   3
BRANCH   1  18
ATOM     18  C   UNL     1      34.927 -22.009 -18.718  0.00  0.00    +0.184 C 
BRANCH  18  19
ATOM     19  C   UNL     1      33.793 -22.075 -17.689  0.00  0.00    -0.021 C 
BRANCH  19  20
ATOM     20  N   UNL     1      32.516 -22.120 -18.403  0.00  0.00    +0.384 N 
ATOM     21  H   UNL     1      32.177 -23.082 -18.432  0.00  0.00    -0.089 HD
ATOM     22  H   UNL     1      32.646 -21.777 -19.355  0.00  0.00    -0.089 HD
ATOM     23  H   UNL     1      31.835 -21.534 -17.920  0.00  0.00    -0.089 HD
ENDBRANCH  19  20
BRANCH  19  24
ATOM     24  C   UNL     1      33.948 -23.293 -16.754  0.00  0.00    -0.012 C 
BRANCH  24  26
ATOM     25  N   UNL     1      33.993 -24.598 -13.554  0.00  0.00    -0.270 NA
ATOM     26  C   UNL     1      33.711 -22.978 -15.289  0.00  0.00    +0.046 C 
ATOM     27  C   UNL     1      32.385 -23.435 -14.775  0.00  0.00    -0.007 C 
ATOM     28  C   UNL     1      34.610 -23.827 -14.397  0.00  0.00    +0.130 C 
ATOM     29  C   UNL     1      32.620 -24.375 -13.764  0.00  0.00    +0.071 C 
ATOM     30  C   UNL     1      31.104 -23.067 -15.139  0.00  0.00    -0.024 C 
ATOM     31  C   UNL     1      31.567 -24.974 -13.095  0.00  0.00    +0.014 C 
ATOM     32  C   UNL     1      30.036 -23.668 -14.469  0.00  0.00    +0.052 C 
ATOM     33  C   UNL     1      30.266 -24.614 -13.456  0.00  0.00    -0.020 C 
ENDBRANCH  24  26
ENDBRANCH  19  24
ENDBRANCH  18  19
ENDBRANCH   1  18
TORSDOF 7
ENDMDL
MODEL 6
REMARK VINA RESULT:     -12.1      1.669     10.130
REMARK  Name = 11840906
REMARK  7 active torsions:
REMARK  status: ('A' for Active; 'I' for Inactive)
REMARK    1  A    between atoms: O_1  and  C_3
REMARK    2  A    between atoms: O_1  and  C_18
REMARK    3  A    between atoms: C_5  and  C_9
REMARK    4  A    between atoms: C_18  and  C_19
REMARK    5  A    between atoms: C_19  and  N_20
REMARK    6  A    between atoms: C_19  and  C_24
REMARK    7  A    between atoms: C_24  and  C_26
REMARK                            x       y       z     vdW  Elec       q    Type
REMARK                         _______ _______ _______ _____ _____    ______ ____
ROOT
ATOM      1  O   UNL     1      35.479 -17.558 -22.271  0.00  0.00    -0.476 OA
ENDROOT
BRANCH   1   3
ATOM      2  N   UNL     1      34.064 -16.199 -25.343  0.00  0.00    -0.239 NA
ATOM      3  C   UNL     1      34.886 -16.671 -23.133  0.00  0.00    +0.158 C 
ATOM      4  C   UNL     1      34.522 -15.409 -22.701  0.00  0.00    +0.040 C 
ATOM      5  C   UNL     1      33.923 -14.532 -23.598  0.00  0.00    +0.022 C 
ATOM      6  C   UNL     1      34.643 -17.024 -24.443  0.00  0.00    +0.136 C 
ATOM      7  C   UNL     1      33.718 -14.971 -24.896  0.00  0.00    +0.099 C 
BRANCH   5   9
ATOM      8  N   UNL     1      31.586  -9.146 -20.865  0.00  0.00    -0.242 NA
ATOM      9  C   UNL     1      33.528 -13.204 -23.189  0.00  0.00    +0.002 C 
ATOM     10  C   UNL     1      32.345 -11.744 -21.642  0.00  0.00    +0.003 C 
ATOM     11  C   UNL     1      32.738 -13.029 -22.050  0.00  0.00    +0.000 C 
ATOM     12  C   UNL     1      32.759 -10.627 -22.396  0.00  0.00    +0.019 C 
ATOM     13  C   UNL     1      33.933 -12.096 -23.932  0.00  0.00    +0.000 C 
ATOM     14  C   UNL     1      33.552 -10.813 -23.540  0.00  0.00    +0.002 C 
ATOM     15  C   UNL     1      31.554 -11.538 -20.504  0.00  0.00    +0.021 C 
ATOM     16  C   UNL     1      32.350  -9.366 -21.959  0.00  0.00    +0.099 C 
ATOM     17  C   UNL     1      31.210 -10.238 -20.166  0.00  0.00    +0.099 C 
ENDBRANCH   5   9
ENDBRANCH   1   3
BRANCH   1  18
ATOM     18  C   UNL     1      34.814 -18.799 -22.073  0.00  0.00    +0.184 C 
BRANCH  18  19
ATOM     19  C   UNL     1      35.487 -19.572 -20.934  0.00  0.00    -0.021 C 
BRANCH  19  20
ATOM     20  N   UNL     1      36.459 -18.694 -20.283  0.00  0.00    +0.384 N 
ATOM     21  H   UNL     1      36.364 -18.773 -19.270  0.00  0.00    -0.089 HD
ATOM     22  H   UNL     1      36.289 -17.729 -20.566  0.00  0.00    -0.089 HD
ATOM     23  H   UNL     1      37.403 -18.968 -20.557  0.00  0.00    -0.089 HD
ENDBRANCH  19  20
BRANCH  19  24
ATOM     24  C   UNL     1      34.449 -20.098 -19.919  0.00  0.00    -0.012 C 
BRANCH  24  26
ATOM     25  N   UNL     1      33.221 -22.689 -17.989  0.00  0.00    -0.270 NA
ATOM     26  C   UNL     1      34.625 -21.562 -19.563  0.00  0.00    +0.046 C 
ATOM     27  C   UNL     1      35.353 -21.792 -18.278  0.00  0.00    -0.007 C 
ATOM     28  C   UNL     1      33.289 -22.197 -19.189  0.00  0.00    +0.130 C 
ATOM     29  C   UNL     1      34.480 -22.456 -17.407  0.00  0.00    +0.071 C 
ATOM     30  C   UNL     1      36.643 -21.468 -17.905  0.00  0.00    -0.024 C 
ATOM     31  C   UNL     1      34.885 -22.807 -16.130  0.00  0.00    +0.014 C 
ATOM     32  C   UNL     1      37.058 -21.819 -16.618  0.00  0.00    +0.052 C 
ATOM     33  C   UNL     1      36.187 -22.482 -15.738  0.00  0.00    -0.020 C 
ENDBRANCH  24  26
ENDBRANCH  19  24
ENDBRANCH  18  19
ENDBRANCH   1  18
TORSDOF 7
ENDMDL
MODEL 7
REMARK VINA RESULT:     -11.9      1.440      2.296
REMARK  Name = 11840906
REMARK  7 active torsions:
REMARK  status: ('A' for Active; 'I' for Inactive)
REMARK    1  A    between atoms: O_1  and  C_3
REMARK    2  A    between atoms: O_1  and  C_18
REMARK    3  A    between atoms: C_5  and  C_9
REMARK    4  A    between atoms: C_18  and  C_19
REMARK    5  A    between atoms: C_19  and  N_20
REMARK    6  A    between atoms: C_19  and  C_24
REMARK    7  A    between atoms: C_24  and  C_26
REMARK                            x       y       z     vdW  Elec       q    Type
REMARK                         _______ _______ _______ _____ _____    ______ ____
ROOT
ATOM      1  O   UNL     1      34.153 -13.326 -23.158  0.00  0.00    -0.476 OA
ENDROOT
BRANCH   1   3
ATOM      2  N   UNL     1      34.231 -16.322 -25.234  0.00  0.00    -0.239 NA
ATOM      3  C   UNL     1      34.311 -14.641 -23.515  0.00  0.00    +0.158 C 
ATOM      4  C   UNL     1      34.693 -15.583 -22.577  0.00  0.00    +0.040 C 
ATOM      5  C   UNL     1      34.845 -16.908 -22.970  0.00  0.00    +0.022 C 
ATOM      6  C   UNL     1      34.093 -15.044 -24.815  0.00  0.00    +0.136 C 
ATOM      7  C   UNL     1      34.604 -17.223 -24.297  0.00  0.00    +0.099 C 
BRANCH   5   9
ATOM      8  N   UNL     1      35.445 -21.722 -18.680  0.00  0.00    -0.242 NA
ATOM      9  C   UNL     1      35.241 -17.923 -22.023  0.00  0.00    +0.002 C 
ATOM     10  C   UNL     1      34.649 -19.750 -20.525  0.00  0.00    +0.003 C 
ATOM     11  C   UNL     1      34.279 -18.759 -21.449  0.00  0.00    +0.000 C 
ATOM     12  C   UNL     1      36.008 -19.894 -20.182  0.00  0.00    +0.019 C 
ATOM     13  C   UNL     1      36.584 -18.070 -21.678  0.00  0.00    +0.000 C 
ATOM     14  C   UNL     1      36.969 -19.050 -20.762  0.00  0.00    +0.002 C 
ATOM     15  C   UNL     1      33.707 -20.602 -19.936  0.00  0.00    +0.021 C 
ATOM     16  C   UNL     1      36.339 -20.890 -19.261  0.00  0.00    +0.099 C 
ATOM     17  C   UNL     1      34.153 -21.556 -19.034  0.00  0.00    +0.099 C 
ENDBRANCH   5   9
ENDBRANCH   1   3
BRANCH   1  18
ATOM     18  C   UNL     1      33.878 -12.407 -24.207  0.00  0.00    +0.184 C 
BRANCH  18  19
ATOM     19  C   UNL     1      34.327 -11.001 -23.796  0.00  0.00    -0.021 C 
BRANCH  19  20
ATOM     20  N   UNL     1      35.167 -10.448 -24.860  0.00  0.00    +0.384 N 
ATOM     21  H   UNL     1      35.140  -9.429 -24.819  0.00  0.00    -0.089 HD
ATOM     22  H   UNL     1      34.817 -10.761 -25.766  0.00  0.00    -0.089 HD
ATOM     23  H   UNL     1      36.127 -10.768 -24.736  0.00  0.00    -0.089 HD
ENDBRANCH  19  20
BRANCH  19  24
ATOM     24  C   UNL     1      33.119 -10.083 -23.510  0.00  0.00    -0.012 C 
BRANCH  24  26
ATOM     25  N   UNL     1      31.410  -8.439 -20.996  0.00  0.00    -0.270 NA
ATOM     26  C   UNL     1      33.275  -9.231 -22.265  0.00  0.00    +0.046 C 
ATOM     27  C   UNL     1      33.063  -7.770 -22.497  0.00  0.00    -0.007 C 
ATOM     28  C   UNL     1      32.131  -9.479 -21.288  0.00  0.00    +0.130 C 
ATOM     29  C   UNL     1      31.965  -7.372 -21.725  0.00  0.00    +0.071 C 
ATOM     30  C   UNL     1      33.757  -6.875 -23.287  0.00  0.00    -0.024 C 
ATOM     31  C   UNL     1      31.532  -6.057 -21.735  0.00  0.00    +0.014 C 
ATOM     32  C   UNL     1      33.327  -5.547 -23.302  0.00  0.00    +0.052 C 
ATOM     33  C   UNL     1      32.223  -5.141 -22.533  0.00  0.00    -0.020 C 
ENDBRANCH  24  26
ENDBRANCH  19  24
ENDBRANCH  18  19
ENDBRANCH   1  18
TORSDOF 7
ENDMDL
MODEL 8
REMARK VINA RESULT:     -11.8      4.062     11.696
REMARK  Name = 11840906
REMARK  7 active torsions:
REMARK  status: ('A' for Active; 'I' for Inactive)
REMARK    1  A    between atoms: O_1  and  C_3
REMARK    2  A    between atoms: O_1  and  C_18
REMARK    3  A    between atoms: C_5  and  C_9
REMARK    4  A    between atoms: C_18  and  C_19
REMARK    5  A    between atoms: C_19  and  N_20
REMARK    6  A    between atoms: C_19  and  C_24
REMARK    7  A    between atoms: C_24  and  C_26
REMARK                            x       y       z     vdW  Elec       q    Type
REMARK                         _______ _______ _______ _____ _____    ______ ____
ROOT
ATOM      1  O   UNL     1      33.149 -22.308 -18.329  0.00  0.00    -0.476 OA
ENDROOT
BRANCH   1   3
ATOM      2  N   UNL     1      36.582 -21.209 -18.871  0.00  0.00    -0.239 NA
ATOM      3  C   UNL     1      34.211 -21.613 -18.848  0.00  0.00    +0.158 C 
ATOM      4  C   UNL     1      34.014 -20.656 -19.827  0.00  0.00    +0.040 C 
ATOM      5  C   UNL     1      35.111 -19.968 -20.333  0.00  0.00    +0.022 C 
ATOM      6  C   UNL     1      35.492 -21.858 -18.403  0.00  0.00    +0.136 C 
ATOM      7  C   UNL     1      36.362 -20.278 -19.826  0.00  0.00    +0.099 C 
BRANCH   5   9
ATOM      8  N   UNL     1      34.547 -14.668 -24.012  0.00  0.00    -0.242 NA
ATOM      9  C   UNL     1      34.950 -18.960 -21.355  0.00  0.00    +0.002 C 
ATOM     10  C   UNL     1      34.866 -16.614 -22.003  0.00  0.00    +0.003 C 
ATOM     11  C   UNL     1      35.023 -17.605 -21.020  0.00  0.00    +0.000 C 
ATOM     12  C   UNL     1      34.635 -17.002 -23.338  0.00  0.00    +0.019 C 
ATOM     13  C   UNL     1      34.720 -19.338 -22.677  0.00  0.00    +0.000 C 
ATOM     14  C   UNL     1      34.562 -18.366 -23.666  0.00  0.00    +0.002 C 
ATOM     15  C   UNL     1      34.935 -15.249 -21.696  0.00  0.00    +0.021 C 
ATOM     16  C   UNL     1      34.485 -15.990 -24.287  0.00  0.00    +0.099 C 
ATOM     17  C   UNL     1      34.772 -14.333 -22.723  0.00  0.00    +0.099 C 
ENDBRANCH   5   9
ENDBRANCH   1   3
BRANCH   1  18
ATOM     18  C   UNL     1      33.455 -23.456 -17.549  0.00  0.00    +0.184 C 
BRANCH  18  19
ATOM     19  C   UNL     1      33.301 -23.129 -16.060  0.00  0.00    -0.021 C 
BRANCH  19  20
ATOM     20  N   UNL     1      31.955 -23.512 -15.634  0.00  0.00    +0.384 N 
ATOM     21  H   UNL     1      31.985 -23.841 -14.668  0.00  0.00    -0.089 HD
ATOM     22  H   UNL     1      31.607 -24.257 -16.236  0.00  0.00    -0.089 HD
ATOM     23  H   UNL     1      31.335 -22.704 -15.698  0.00  0.00    -0.089 HD
ENDBRANCH  19  20
BRANCH  19  24
ATOM     24  C   UNL     1      34.375 -23.842 -15.212  0.00  0.00    -0.012 C 
BRANCH  24  26
ATOM     25  N   UNL     1      37.671 -23.077 -14.505  0.00  0.00    -0.270 NA
ATOM     26  C   UNL     1      35.288 -22.897 -14.453  0.00  0.00    +0.046 C 
ATOM     27  C   UNL     1      35.802 -23.451 -13.164  0.00  0.00    -0.007 C 
ATOM     28  C   UNL     1      36.618 -22.724 -15.178  0.00  0.00    +0.130 C 
ATOM     29  C   UNL     1      37.197 -23.526 -13.260  0.00  0.00    +0.071 C 
ATOM     30  C   UNL     1      35.132 -23.841 -12.021  0.00  0.00    -0.024 C 
ATOM     31  C   UNL     1      37.955 -24.004 -12.204  0.00  0.00    +0.014 C 
ATOM     32  C   UNL     1      35.889 -24.324 -10.952  0.00  0.00    +0.052 C 
ATOM     33  C   UNL     1      37.288 -24.405 -11.043  0.00  0.00    -0.020 C 
ENDBRANCH  24  26
ENDBRANCH  19  24
ENDBRANCH  18  19
ENDBRANCH   1  18
TORSDOF 7
ENDMDL
MODEL 9
REMARK VINA RESULT:     -11.8      4.046      7.594
REMARK  Name = 11840906
REMARK  7 active torsions:
REMARK  status: ('A' for Active; 'I' for Inactive)
REMARK    1  A    between atoms: O_1  and  C_3
REMARK    2  A    between atoms: O_1  and  C_18
REMARK    3  A    between atoms: C_5  and  C_9
REMARK    4  A    between atoms: C_18  and  C_19
REMARK    5  A    between atoms: C_19  and  N_20
REMARK    6  A    between atoms: C_19  and  C_24
REMARK    7  A    between atoms: C_24  and  C_26
REMARK                            x       y       z     vdW  Elec       q    Type
REMARK                         _______ _______ _______ _____ _____    ______ ____
ROOT
ATOM      1  O   UNL     1      35.343 -20.968 -19.775  0.00  0.00    -0.476 OA
ENDROOT
BRANCH   1   3
ATOM      2  N   UNL     1      32.845 -22.736 -17.795  0.00  0.00    -0.239 NA
ATOM      3  C   UNL     1      34.780 -21.657 -18.732  0.00  0.00    +0.158 C 
ATOM      4  C   UNL     1      35.526 -21.963 -17.608  0.00  0.00    +0.040 C 
ATOM      5  C   UNL     1      34.927 -22.663 -16.567  0.00  0.00    +0.022 C 
ATOM      6  C   UNL     1      33.461 -22.056 -18.787  0.00  0.00    +0.136 C 
ATOM      7  C   UNL     1      33.597 -23.023 -16.707  0.00  0.00    +0.099 C 
BRANCH   5   9
ATOM      8  N   UNL     1      37.169 -24.272 -10.708  0.00  0.00    -0.242 NA
ATOM      9  C   UNL     1      35.669 -23.002 -15.375  0.00  0.00    +0.002 C 
ATOM     10  C   UNL     1      35.700 -23.614 -13.018  0.00  0.00    +0.003 C 
ATOM     11  C   UNL     1      34.992 -23.283 -14.185  0.00  0.00    +0.000 C 
ATOM     12  C   UNL     1      37.108 -23.660 -13.060  0.00  0.00    +0.019 C 
ATOM     13  C   UNL     1      37.062 -23.048 -15.410  0.00  0.00    +0.000 C 
ATOM     14  C   UNL     1      37.781 -23.375 -14.260  0.00  0.00    +0.002 C 
ATOM     15  C   UNL     1      35.049 -23.901 -11.812  0.00  0.00    +0.021 C 
ATOM     16  C   UNL     1      37.779 -23.992 -11.882  0.00  0.00    +0.099 C 
ATOM     17  C   UNL     1      35.819 -24.219 -10.705  0.00  0.00    +0.099 C 
ENDBRANCH   5   9
ENDBRANCH   1   3
BRANCH   1  18
ATOM     18  C   UNL     1      34.510 -20.033 -20.448  0.00  0.00    +0.184 C 
BRANCH  18  19
ATOM     19  C   UNL     1      35.269 -18.718 -20.658  0.00  0.00    -0.021 C 
BRANCH  19  20
ATOM     20  N   UNL     1      36.690 -18.952 -20.399  0.00  0.00    +0.384 N 
ATOM     21  H   UNL     1      36.819 -19.212 -19.421  0.00  0.00    -0.089 HD
ATOM     22  H   UNL     1      37.216 -18.101 -20.598  0.00  0.00    -0.089 HD
ATOM     23  H   UNL     1      37.025 -19.707 -20.998  0.00  0.00    -0.089 HD
ENDBRANCH  19  20
BRANCH  19  24
ATOM     24  C   UNL     1      35.049 -18.160 -22.080  0.00  0.00    -0.012 C 
BRANCH  24  26
ATOM     25  N   UNL     1      34.440 -14.847 -21.306  0.00  0.00    -0.270 NA
ATOM     26  C   UNL     1      35.544 -16.739 -22.266  0.00  0.00    +0.046 C 
ATOM     27  C   UNL     1      34.807 -15.970 -23.315  0.00  0.00    -0.007 C 
ATOM     28  C   UNL     1      35.193 -15.876 -21.058  0.00  0.00    +0.130 C 
ATOM     29  C   UNL     1      34.191 -14.879 -22.690  0.00  0.00    +0.071 C 
ATOM     30  C   UNL     1      34.692 -16.187 -24.674  0.00  0.00    -0.024 C 
ATOM     31  C   UNL     1      33.433 -13.979 -23.420  0.00  0.00    +0.014 C 
ATOM     32  C   UNL     1      33.929 -15.284 -25.418  0.00  0.00    +0.052 C 
ATOM     33  C   UNL     1      33.305 -14.190 -24.796  0.00  0.00    -0.020 C 
ENDBRANCH  24  26
ENDBRANCH  19  24
ENDBRANCH  18  19
ENDBRANCH   1  18
TORSDOF 7
ENDMDL
