MODEL 1
REMARK VINA RESULT:     -12.8      0.000      0.000
REMARK  Name = 10297043
REMARK  6 active torsions:
REMARK  status: ('A' for Active; 'I' for Inactive)
REMARK    1  A    between atoms: N_2  and  C_30
REMARK    2  A    between atoms: C_5  and  C_16
REMARK    3  A    between atoms: C_13  and  C_19
REMARK    4  A    between atoms: C_19  and  N_20
REMARK    5  A    between atoms: N_21  and  C_28
REMARK    6  A    between atoms: C_30  and  C_32
REMARK                            x       y       z     vdW  Elec       q    Type
REMARK                         _______ _______ _______ _____ _____    ______ ____
ROOT
ATOM      1  N   UNL     1      34.619 -17.059 -23.947  0.00  0.00    -0.301 N 
ATOM      2  N   UNL     1      33.752 -12.596 -22.901  0.00  0.00    -0.319 N 
ATOM      3  N   UNL     1      33.867 -15.690 -25.783  0.00  0.00    -0.233 NA
ATOM      4  N   UNL     1      33.443 -13.381 -25.134  0.00  0.00    -0.233 NA
ATOM      5  C   UNL     1      34.876 -16.882 -22.612  0.00  0.00    +0.046 C 
ATOM      6  C   UNL     1      34.194 -14.918 -23.488  0.00  0.00    +0.131 C 
ATOM      7  C   UNL     1      34.621 -15.563 -22.299  0.00  0.00    +0.003 C 
ATOM      8  C   UNL     1      34.203 -15.875 -24.495  0.00  0.00    +0.117 C 
ATOM      9  C   UNL     1      33.794 -13.632 -23.851  0.00  0.00    +0.113 C 
ATOM     10  C   UNL     1      33.499 -14.411 -26.009  0.00  0.00    +0.252 C 
ATOM     11  H   UNL     1      34.719 -17.908 -24.437  0.00  0.00    +0.153 HD
ATOM     12  H   UNL     1      34.012 -12.800 -21.973  0.00  0.00    +0.148 HD
ENDROOT
BRANCH   5  16
ATOM     13  C   UNL     1      36.202 -20.044 -20.149  0.00  0.00    -0.043 C 
ATOM     14  C   UNL     1      34.877 -20.007 -20.566  0.00  0.00    -0.006 C 
ATOM     15  C   UNL     1      37.096 -19.052 -20.533  0.00  0.00    -0.006 C 
ATOM     16  C   UNL     1      35.330 -17.962 -21.771  0.00  0.00    +0.013 C 
ATOM     17  C   UNL     1      34.439 -18.962 -21.381  0.00  0.00    +0.001 C 
ATOM     18  C   UNL     1      36.658 -18.007 -21.347  0.00  0.00    +0.001 C 
BRANCH  13  19
ATOM     19  C   UNL     1      36.674 -21.168 -19.272  0.00  0.00    -0.050 C 
BRANCH  19  20
ATOM     20  N   UNL     1      35.733 -21.448 -18.189  0.00  0.00    +0.387 N 
ATOM     21  N   UNL     1      34.426 -23.207 -16.304  0.00  0.00    +0.384 N 
ATOM     22  C   UNL     1      34.708 -22.406 -18.624  0.00  0.00    -0.100 C 
ATOM     23  C   UNL     1      36.436 -21.952 -17.004  0.00  0.00    -0.100 C 
ATOM     24  C   UNL     1      33.722 -22.703 -17.489  0.00  0.00    -0.101 C 
ATOM     25  C   UNL     1      35.449 -22.249 -15.869  0.00  0.00    -0.101 C 
ATOM     26  H   UNL     1      35.270 -20.573 -17.941  0.00  0.00    -0.079 HD
ATOM     27  H   UNL     1      34.890 -24.081 -16.553  0.00  0.00    -0.080 HD
BRANCH  21  28
ATOM     28  C   UNL     1      33.485 -23.489 -15.222  0.00  0.00    -0.078 C 
ATOM     29  C   UNL     1      32.054 -23.217 -15.654  0.00  0.00    -0.025 C 
ENDBRANCH  21  28
ENDBRANCH  19  20
ENDBRANCH  13  19
ENDBRANCH   5  16
BRANCH   2  30
ATOM     30  C   UNL     1      33.349 -11.260 -23.220  0.00  0.00    +0.093 C 
ATOM     31  C   UNL     1      34.570 -10.464 -23.677  0.00  0.00    +0.026 C 
BRANCH  30  32
ATOM     32  C   UNL     1      32.638 -10.631 -22.042  0.00  0.00    -0.005 C 
ATOM     33  C   UNL     1      32.114 -11.448 -21.054  0.00  0.00    -0.003 C 
ATOM     34  C   UNL     1      32.525  -9.253 -21.976  0.00  0.00    -0.003 C 
ATOM     35  C   UNL     1      31.458 -10.870 -19.969  0.00  0.00    -0.000 C 
ATOM     36  C   UNL     1      31.868  -8.675 -20.890  0.00  0.00    -0.000 C 
ATOM     37  C   UNL     1      31.334  -9.483 -19.887  0.00  0.00    -0.000 C 
ENDBRANCH  30  32
ENDBRANCH   2  30
TORSDOF 6
ENDMDL
MODEL 2
REMARK VINA RESULT:     -12.3      2.598     12.136
REMARK  Name = 10297043
REMARK  6 active torsions:
REMARK  status: ('A' for Active; 'I' for Inactive)
REMARK    1  A    between atoms: N_2  and  C_30
REMARK    2  A    between atoms: C_5  and  C_16
REMARK    3  A    between atoms: C_13  and  C_19
REMARK    4  A    between atoms: C_19  and  N_20
REMARK    5  A    between atoms: N_21  and  C_28
REMARK    6  A    between atoms: C_30  and  C_32
REMARK                            x       y       z     vdW  Elec       q    Type
REMARK                         _______ _______ _______ _____ _____    ______ ____
ROOT
ATOM      1  N   UNL     1      32.508 -21.700 -18.363  0.00  0.00    -0.301 N 
ATOM      2  N   UNL     1      34.979 -23.914 -15.083  0.00  0.00    -0.319 N 
ATOM      3  N   UNL     1      31.215 -22.938 -16.747  0.00  0.00    -0.233 NA
ATOM      4  N   UNL     1      32.596 -24.055 -15.081  0.00  0.00    -0.233 NA
ATOM      5  C   UNL     1      33.836 -21.453 -18.598  0.00  0.00    +0.046 C 
ATOM      6  C   UNL     1      33.653 -22.773 -16.777  0.00  0.00    +0.131 C 
ATOM      7  C   UNL     1      34.570 -22.106 -17.629  0.00  0.00    +0.003 C 
ATOM      8  C   UNL     1      32.379 -22.502 -17.260  0.00  0.00    +0.117 C 
ATOM      9  C   UNL     1      33.733 -23.584 -15.645  0.00  0.00    +0.113 C 
ATOM     10  C   UNL     1      31.424 -23.709 -15.660  0.00  0.00    +0.252 C 
ATOM     11  H   UNL     1      31.762 -21.354 -18.904  0.00  0.00    +0.153 HD
ATOM     12  H   UNL     1      35.794 -23.561 -15.508  0.00  0.00    +0.148 HD
ENDROOT
BRANCH   5  16
ATOM     13  C   UNL     1      35.132 -19.063 -21.828  0.00  0.00    -0.043 C 
ATOM     14  C   UNL     1      36.064 -19.568 -20.928  0.00  0.00    -0.006 C 
ATOM     15  C   UNL     1      33.778 -19.336 -21.675  0.00  0.00    -0.006 C 
ATOM     16  C   UNL     1      34.278 -20.637 -19.701  0.00  0.00    +0.013 C 
ATOM     17  C   UNL     1      35.635 -20.358 -19.862  0.00  0.00    +0.001 C 
ATOM     18  C   UNL     1      33.350 -20.126 -20.608  0.00  0.00    +0.001 C 
BRANCH  13  19
ATOM     19  C   UNL     1      35.593 -18.212 -22.976  0.00  0.00    -0.050 C 
BRANCH  19  20
ATOM     20  N   UNL     1      34.708 -17.071 -23.200  0.00  0.00    +0.387 N 
ATOM     21  N   UNL     1      34.124 -14.424 -24.204  0.00  0.00    +0.384 N 
ATOM     22  C   UNL     1      35.227 -15.870 -22.532  0.00  0.00    -0.100 C 
ATOM     23  C   UNL     1      34.529 -16.822 -24.635  0.00  0.00    -0.100 C 
ATOM     24  C   UNL     1      34.303 -14.671 -22.768  0.00  0.00    -0.101 C 
ATOM     25  C   UNL     1      33.604 -15.623 -24.870  0.00  0.00    -0.101 C 
ATOM     26  H   UNL     1      33.798 -17.294 -22.796  0.00  0.00    -0.079 HD
ATOM     27  H   UNL     1      35.035 -14.201 -24.608  0.00  0.00    -0.080 HD
BRANCH  21  28
ATOM     28  C   UNL     1      33.241 -13.281 -24.428  0.00  0.00    -0.078 C 
ATOM     29  C   UNL     1      33.362 -12.765 -25.852  0.00  0.00    -0.025 C 
ENDBRANCH  21  28
ENDBRANCH  19  20
ENDBRANCH  13  19
ENDBRANCH   5  16
BRANCH   2  30
ATOM     30  C   UNL     1      35.118 -24.742 -13.923  0.00  0.00    +0.093 C 
ATOM     31  C   UNL     1      34.437 -24.062 -12.738  0.00  0.00    +0.026 C 
BRANCH  30  32
ATOM     32  C   UNL     1      36.578 -25.051 -13.671  0.00  0.00    -0.005 C 
ATOM     33  C   UNL     1      37.185 -26.070 -14.385  0.00  0.00    -0.003 C 
ATOM     34  C   UNL     1      37.274 -24.311 -12.732  0.00  0.00    -0.003 C 
ATOM     35  C   UNL     1      38.530 -26.356 -14.154  0.00  0.00    -0.000 C 
ATOM     36  C   UNL     1      38.619 -24.597 -12.500  0.00  0.00    -0.000 C 
ATOM     37  C   UNL     1      39.247 -25.620 -13.210  0.00  0.00    -0.000 C 
ENDBRANCH  30  32
ENDBRANCH   2  30
TORSDOF 6
ENDMDL
MODEL 3
REMARK VINA RESULT:     -11.3      2.705     11.973
REMARK  Name = 10297043
REMARK  6 active torsions:
REMARK  status: ('A' for Active; 'I' for Inactive)
REMARK    1  A    between atoms: N_2  and  C_30
REMARK    2  A    between atoms: C_5  and  C_16
REMARK    3  A    between atoms: C_13  and  C_19
REMARK    4  A    between atoms: C_19  and  N_20
REMARK    5  A    between atoms: N_21  and  C_28
REMARK    6  A    between atoms: C_30  and  C_32
REMARK                            x       y       z     vdW  Elec       q    Type
REMARK                         _______ _______ _______ _____ _____    ______ ____
ROOT
ATOM      1  N   UNL     1      34.306 -22.037 -17.656  0.00  0.00    -0.301 N 
ATOM      2  N   UNL     1      37.675 -23.808 -14.958  0.00  0.00    -0.319 N 
ATOM      3  N   UNL     1      33.563 -23.511 -15.899  0.00  0.00    -0.233 NA
ATOM      4  N   UNL     1      35.394 -24.380 -14.550  0.00  0.00    -0.233 NA
ATOM      5  C   UNL     1      35.506 -21.550 -18.106  0.00  0.00    +0.046 C 
ATOM      6  C   UNL     1      35.888 -22.905 -16.343  0.00  0.00    +0.131 C 
ATOM      7  C   UNL     1      36.504 -22.071 -17.310  0.00  0.00    +0.003 C 
ATOM      8  C   UNL     1      34.520 -22.864 -16.585  0.00  0.00    +0.117 C 
ATOM      9  C   UNL     1      36.310 -23.702 -15.280  0.00  0.00    +0.113 C 
ATOM     10  C   UNL     1      34.095 -24.245 -14.900  0.00  0.00    +0.252 C 
ATOM     11  H   UNL     1      33.426 -21.826 -18.044  0.00  0.00    +0.153 HD
ATOM     12  H   UNL     1      38.326 -23.306 -15.501  0.00  0.00    +0.148 HD
ENDROOT
BRANCH   5  16
ATOM     13  C   UNL     1      35.761 -18.921 -21.400  0.00  0.00    -0.043 C 
ATOM     14  C   UNL     1      36.892 -19.172 -20.632  0.00  0.00    -0.006 C 
ATOM     15  C   UNL     1      34.547 -19.526 -21.096  0.00  0.00    -0.006 C 
ATOM     16  C   UNL     1      35.593 -20.652 -19.232  0.00  0.00    +0.013 C 
ATOM     17  C   UNL     1      36.807 -20.042 -19.544  0.00  0.00    +0.001 C 
ATOM     18  C   UNL     1      34.463 -20.395 -20.008  0.00  0.00    +0.001 C 
BRANCH  13  19
ATOM     19  C   UNL     1      35.851 -17.986 -22.572  0.00  0.00    -0.050 C 
BRANCH  19  20
ATOM     20  N   UNL     1      34.941 -16.851 -22.435  0.00  0.00    +0.387 N 
ATOM     21  N   UNL     1      34.347 -14.022 -22.351  0.00  0.00    +0.384 N 
ATOM     22  C   UNL     1      35.303 -16.029 -21.272  0.00  0.00    -0.100 C 
ATOM     23  C   UNL     1      34.936 -16.036 -23.657  0.00  0.00    -0.100 C 
ATOM     24  C   UNL     1      34.353 -14.836 -21.129  0.00  0.00    -0.101 C 
ATOM     25  C   UNL     1      33.984 -14.843 -23.512  0.00  0.00    -0.101 C 
ATOM     26  H   UNL     1      34.000 -17.217 -22.289  0.00  0.00    -0.079 HD
ATOM     27  H   UNL     1      35.289 -13.657 -22.499  0.00  0.00    -0.080 HD
BRANCH  21  28
ATOM     28  C   UNL     1      33.439 -12.886 -22.215  0.00  0.00    -0.078 C 
ATOM     29  C   UNL     1      32.469 -13.094 -21.064  0.00  0.00    -0.025 C 
ENDBRANCH  21  28
ENDBRANCH  19  20
ENDBRANCH  13  19
ENDBRANCH   5  16
BRANCH   2  30
ATOM     30  C   UNL     1      38.163 -24.611 -13.878  0.00  0.00    +0.093 C 
ATOM     31  C   UNL     1      38.033 -26.086 -14.252  0.00  0.00    +0.026 C 
BRANCH  30  32
ATOM     32  C   UNL     1      37.444 -24.258 -12.594  0.00  0.00    -0.005 C 
ATOM     33  C   UNL     1      36.616 -25.198 -12.004  0.00  0.00    -0.003 C 
ATOM     34  C   UNL     1      37.628 -23.004 -12.038  0.00  0.00    -0.003 C 
ATOM     35  C   UNL     1      35.953 -24.873 -10.821  0.00  0.00    -0.000 C 
ATOM     36  C   UNL     1      36.965 -22.680 -10.856  0.00  0.00    -0.000 C 
ATOM     37  C   UNL     1      36.127 -23.613 -10.247  0.00  0.00    -0.000 C 
ENDBRANCH  30  32
ENDBRANCH   2  30
TORSDOF 6
ENDMDL
MODEL 4
REMARK VINA RESULT:     -11.2      1.974     11.444
REMARK  Name = 10297043
REMARK  6 active torsions:
REMARK  status: ('A' for Active; 'I' for Inactive)
REMARK    1  A    between atoms: N_2  and  C_30
REMARK    2  A    between atoms: C_5  and  C_16
REMARK    3  A    between atoms: C_13  and  C_19
REMARK    4  A    between atoms: C_19  and  N_20
REMARK    5  A    between atoms: N_21  and  C_28
REMARK    6  A    between atoms: C_30  and  C_32
REMARK                            x       y       z     vdW  Elec       q    Type
REMARK                         _______ _______ _______ _____ _____    ______ ____
ROOT
ATOM      1  N   UNL     1      36.971 -21.069 -18.158  0.00  0.00    -0.301 N 
ATOM      2  N   UNL     1      33.677 -23.142 -15.585  0.00  0.00    -0.319 N 
ATOM      3  N   UNL     1      37.757 -22.196 -16.176  0.00  0.00    -0.233 NA
ATOM      4  N   UNL     1      35.964 -23.244 -14.905  0.00  0.00    -0.233 NA
ATOM      5  C   UNL     1      35.763 -20.857 -18.770  0.00  0.00    +0.046 C 
ATOM      6  C   UNL     1      35.426 -22.074 -16.900  0.00  0.00    +0.131 C 
ATOM      7  C   UNL     1      34.787 -21.469 -18.012  0.00  0.00    +0.003 C 
ATOM      8  C   UNL     1      36.785 -21.807 -17.019  0.00  0.00    +0.117 C 
ATOM      9  C   UNL     1      35.031 -22.822 -15.791  0.00  0.00    +0.113 C 
ATOM     10  C   UNL     1      37.251 -22.909 -15.149  0.00  0.00    +0.252 C 
ATOM     11  H   UNL     1      37.839 -20.742 -18.486  0.00  0.00    +0.153 HD
ATOM     12  H   UNL     1      33.015 -22.825 -16.241  0.00  0.00    +0.148 HD
ENDROOT
BRANCH   5  16
ATOM     13  C   UNL     1      35.428 -18.653 -22.355  0.00  0.00    -0.043 C 
ATOM     14  C   UNL     1      36.621 -18.629 -21.642  0.00  0.00    -0.006 C 
ATOM     15  C   UNL     1      34.344 -19.394 -21.901  0.00  0.00    -0.006 C 
ATOM     16  C   UNL     1      35.648 -20.104 -19.995  0.00  0.00    +0.013 C 
ATOM     17  C   UNL     1      36.731 -19.358 -20.458  0.00  0.00    +0.001 C 
ATOM     18  C   UNL     1      34.455 -20.123 -20.716  0.00  0.00    +0.001 C 
BRANCH  13  19
ATOM     19  C   UNL     1      35.309 -17.868 -23.629  0.00  0.00    -0.050 C 
BRANCH  19  20
ATOM     20  N   UNL     1      34.528 -16.646 -23.447  0.00  0.00    +0.387 N 
ATOM     21  N   UNL     1      34.120 -13.793 -23.675  0.00  0.00    +0.384 N 
ATOM     22  C   UNL     1      35.234 -15.702 -22.570  0.00  0.00    -0.100 C 
ATOM     23  C   UNL     1      34.230 -16.019 -24.741  0.00  0.00    -0.100 C 
ATOM     24  C   UNL     1      34.419 -14.419 -22.381  0.00  0.00    -0.101 C 
ATOM     25  C   UNL     1      33.414 -14.736 -24.550  0.00  0.00    -0.101 C 
ATOM     26  H   UNL     1      33.646 -16.900 -23.002  0.00  0.00    -0.079 HD
ATOM     27  H   UNL     1      35.003 -13.540 -24.121  0.00  0.00    -0.080 HD
BRANCH  21  28
ATOM     28  C   UNL     1      33.341 -12.570 -23.493  0.00  0.00    -0.078 C 
ATOM     29  C   UNL     1      34.095 -11.356 -24.010  0.00  0.00    -0.025 C 
ENDBRANCH  21  28
ENDBRANCH  19  20
ENDBRANCH  13  19
ENDBRANCH   5  16
BRANCH   2  30
ATOM     30  C   UNL     1      33.217 -23.906 -14.464  0.00  0.00    +0.093 C 
ATOM     31  C   UNL     1      34.001 -25.215 -14.395  0.00  0.00    +0.026 C 
BRANCH  30  32
ATOM     32  C   UNL     1      31.721 -24.114 -14.550  0.00  0.00    -0.005 C 
ATOM     33  C   UNL     1      30.977 -23.320 -15.406  0.00  0.00    -0.003 C 
ATOM     34  C   UNL     1      31.128 -25.091 -13.769  0.00  0.00    -0.003 C 
ATOM     35  C   UNL     1      29.598 -23.511 -15.485  0.00  0.00    -0.000 C 
ATOM     36  C   UNL     1      29.749 -25.281 -13.848  0.00  0.00    -0.000 C 
ATOM     37  C   UNL     1      28.983 -24.491 -14.705  0.00  0.00    -0.000 C 
ENDBRANCH  30  32
ENDBRANCH   2  30
TORSDOF 6
ENDMDL
MODEL 5
REMARK VINA RESULT:     -11.2      2.829     11.597
REMARK  Name = 10297043
REMARK  6 active torsions:
REMARK  status: ('A' for Active; 'I' for Inactive)
REMARK    1  A    between atoms: N_2  and  C_30
REMARK    2  A    between atoms: C_5  and  C_16
REMARK    3  A    between atoms: C_13  and  C_19
REMARK    4  A    between atoms: C_19  and  N_20
REMARK    5  A    between atoms: N_21  and  C_28
REMARK    6  A    between atoms: C_30  and  C_32
REMARK                            x       y       z     vdW  Elec       q    Type
REMARK                         _______ _______ _______ _____ _____    ______ ____
ROOT
ATOM      1  N   UNL     1      33.430 -14.114 -23.857  0.00  0.00    -0.301 N 
ATOM      2  N   UNL     1      35.704 -17.107 -21.093  0.00  0.00    -0.319 N 
ATOM      3  N   UNL     1      34.068 -16.198 -24.886  0.00  0.00    -0.233 NA
ATOM      4  N   UNL     1      35.246 -17.688 -23.363  0.00  0.00    -0.233 NA
ATOM      5  C   UNL     1      33.557 -13.533 -22.621  0.00  0.00    +0.046 C 
ATOM      6  C   UNL     1      34.520 -15.573 -22.568  0.00  0.00    +0.131 C 
ATOM      7  C   UNL     1      34.229 -14.416 -21.801  0.00  0.00    +0.003 C 
ATOM      8  C   UNL     1      34.011 -15.354 -23.842  0.00  0.00    +0.117 C 
ATOM      9  C   UNL     1      35.157 -16.794 -22.351  0.00  0.00    +0.113 C 
ATOM     10  C   UNL     1      34.705 -17.340 -24.552  0.00  0.00    +0.252 C 
ATOM     11  H   UNL     1      32.990 -13.702 -24.635  0.00  0.00    +0.153 HD
ATOM     12  H   UNL     1      35.628 -16.443 -20.370  0.00  0.00    +0.148 HD
ENDROOT
BRANCH   5  16
ATOM     13  C   UNL     1      32.043  -9.680 -21.793  0.00  0.00    -0.043 C 
ATOM     14  C   UNL     1      31.700 -10.745 -20.969  0.00  0.00    -0.006 C 
ATOM     15  C   UNL     1      32.879  -9.869 -22.887  0.00  0.00    -0.006 C 
ATOM     16  C   UNL     1      33.040 -12.217 -22.338  0.00  0.00    +0.013 C 
ATOM     17  C   UNL     1      32.201 -12.018 -21.242  0.00  0.00    +0.001 C 
ATOM     18  C   UNL     1      33.379 -11.142 -23.160  0.00  0.00    +0.001 C 
BRANCH  13  19
ATOM     19  C   UNL     1      31.504  -8.309 -21.499  0.00  0.00    -0.050 C 
BRANCH  19  20
ATOM     20  N   UNL     1      31.891  -7.339 -22.521  0.00  0.00    +0.387 N 
ATOM     21  N   UNL     1      32.302  -4.647 -23.491  0.00  0.00    +0.384 N 
ATOM     22  C   UNL     1      30.757  -6.475 -22.875  0.00  0.00    -0.100 C 
ATOM     23  C   UNL     1      33.030  -6.531 -22.068  0.00  0.00    -0.100 C 
ATOM     24  C   UNL     1      31.162  -5.454 -23.943  0.00  0.00    -0.101 C 
ATOM     25  C   UNL     1      33.434  -5.511 -23.139  0.00  0.00    -0.101 C 
ATOM     26  H   UNL     1      32.174  -7.856 -23.354  0.00  0.00    -0.079 HD
ATOM     27  H   UNL     1      32.019  -4.132 -22.656  0.00  0.00    -0.080 HD
BRANCH  21  28
ATOM     28  C   UNL     1      32.688  -3.675 -24.512  0.00  0.00    -0.078 C 
ATOM     29  C   UNL     1      33.127  -4.367 -25.791  0.00  0.00    -0.025 C 
ENDBRANCH  21  28
ENDBRANCH  19  20
ENDBRANCH  13  19
ENDBRANCH   5  16
BRANCH   2  30
ATOM     30  C   UNL     1      36.368 -18.345 -20.816  0.00  0.00    +0.093 C 
ATOM     31  C   UNL     1      37.148 -18.783 -22.054  0.00  0.00    +0.026 C 
BRANCH  30  32
ATOM     32  C   UNL     1      35.371 -19.381 -20.344  0.00  0.00    -0.005 C 
ATOM     33  C   UNL     1      35.827 -20.492 -19.656  0.00  0.00    -0.003 C 
ATOM     34  C   UNL     1      34.026 -19.196 -20.611  0.00  0.00    -0.003 C 
ATOM     35  C   UNL     1      34.910 -21.448 -19.221  0.00  0.00    -0.000 C 
ATOM     36  C   UNL     1      33.108 -20.151 -20.176  0.00  0.00    -0.000 C 
ATOM     37  C   UNL     1      33.549 -21.277 -19.481  0.00  0.00    -0.000 C 
ENDBRANCH  30  32
ENDBRANCH   2  30
TORSDOF 6
ENDMDL
MODEL 6
REMARK VINA RESULT:     -11.0      3.426      6.530
REMARK  Name = 10297043
REMARK  6 active torsions:
REMARK  status: ('A' for Active; 'I' for Inactive)
REMARK    1  A    between atoms: N_2  and  C_30
REMARK    2  A    between atoms: C_5  and  C_16
REMARK    3  A    between atoms: C_13  and  C_19
REMARK    4  A    between atoms: C_19  and  N_20
REMARK    5  A    between atoms: N_21  and  C_28
REMARK    6  A    between atoms: C_30  and  C_32
REMARK                            x       y       z     vdW  Elec       q    Type
REMARK                         _______ _______ _______ _____ _____    ______ ____
ROOT
ATOM      1  N   UNL     1      32.478 -11.143 -20.857  0.00  0.00    -0.301 N 
ATOM      2  N   UNL     1      32.515  -7.222 -23.384  0.00  0.00    -0.319 N 
ATOM      3  N   UNL     1      31.557  -9.198 -19.770  0.00  0.00    -0.233 NA
ATOM      4  N   UNL     1      31.622  -7.208 -21.170  0.00  0.00    -0.233 NA
ATOM      5  C   UNL     1      33.039 -11.432 -22.075  0.00  0.00    +0.046 C 
ATOM      6  C   UNL     1      32.477  -9.247 -22.033  0.00  0.00    +0.131 C 
ATOM      7  C   UNL     1      33.051 -10.275 -22.824  0.00  0.00    +0.003 C 
ATOM      8  C   UNL     1      32.131  -9.819 -20.815  0.00  0.00    +0.117 C 
ATOM      9  C   UNL     1      32.201  -7.889 -22.187  0.00  0.00    +0.113 C 
ATOM     10  C   UNL     1      31.341  -7.895 -20.040  0.00  0.00    +0.252 C 
ATOM     11  H   UNL     1      32.345 -11.789 -20.126  0.00  0.00    +0.153 HD
ATOM     12  H   UNL     1      32.935  -7.736 -24.112  0.00  0.00    +0.148 HD
ENDROOT
BRANCH   5  16
ATOM     13  C   UNL     1      34.406 -15.307 -23.046  0.00  0.00    -0.043 C 
ATOM     14  C   UNL     1      34.585 -14.817 -21.757  0.00  0.00    -0.006 C 
ATOM     15  C   UNL     1      33.781 -14.535 -24.018  0.00  0.00    -0.006 C 
ATOM     16  C   UNL     1      33.505 -12.756 -22.407  0.00  0.00    +0.013 C 
ATOM     17  C   UNL     1      34.132 -13.537 -21.437  0.00  0.00    +0.001 C 
ATOM     18  C   UNL     1      33.329 -13.255 -23.697  0.00  0.00    +0.001 C 
BRANCH  13  19
ATOM     19  C   UNL     1      34.893 -16.685 -23.391  0.00  0.00    -0.050 C 
BRANCH  19  20
ATOM     20  N   UNL     1      34.970 -17.548 -22.215  0.00  0.00    +0.387 N 
ATOM     21  N   UNL     1      35.635 -20.022 -20.876  0.00  0.00    +0.384 N 
ATOM     22  C   UNL     1      34.159 -18.758 -22.402  0.00  0.00    -0.100 C 
ATOM     23  C   UNL     1      36.363 -17.904 -21.919  0.00  0.00    -0.100 C 
ATOM     24  C   UNL     1      34.242 -19.667 -21.171  0.00  0.00    -0.101 C 
ATOM     25  C   UNL     1      36.444 -18.812 -20.687  0.00  0.00    -0.101 C 
ATOM     26  H   UNL     1      34.595 -17.030 -21.420  0.00  0.00    -0.079 HD
ATOM     27  H   UNL     1      36.011 -20.539 -21.672  0.00  0.00    -0.080 HD
BRANCH  21  28
ATOM     28  C   UNL     1      35.713 -20.887 -19.701  0.00  0.00    -0.078 C 
ATOM     29  C   UNL     1      34.327 -21.259 -19.200  0.00  0.00    -0.025 C 
ENDBRANCH  21  28
ENDBRANCH  19  20
ENDBRANCH  13  19
ENDBRANCH   5  16
BRANCH   2  30
ATOM     30  C   UNL     1      32.253  -5.830 -23.595  0.00  0.00    +0.093 C 
ATOM     31  C   UNL     1      30.772  -5.642 -23.917  0.00  0.00    +0.026 C 
BRANCH  30  32
ATOM     32  C   UNL     1      33.169  -5.281 -24.667  0.00  0.00    -0.005 C 
ATOM     33  C   UNL     1      34.539  -5.392 -24.507  0.00  0.00    -0.003 C 
ATOM     34  C   UNL     1      32.617  -4.678 -25.784  0.00  0.00    -0.003 C 
ATOM     35  C   UNL     1      35.384  -4.886 -25.494  0.00  0.00    -0.000 C 
ATOM     36  C   UNL     1      33.462  -4.171 -26.771  0.00  0.00    -0.000 C 
ATOM     37  C   UNL     1      34.845  -4.274 -26.627  0.00  0.00    -0.000 C 
ENDBRANCH  30  32
ENDBRANCH   2  30
TORSDOF 6
ENDMDL
MODEL 7
REMARK VINA RESULT:     -10.2      4.063      7.800
REMARK  Name = 10297043
REMARK  6 active torsions:
REMARK  status: ('A' for Active; 'I' for Inactive)
REMARK    1  A    between atoms: N_2  and  C_30
REMARK    2  A    between atoms: C_5  and  C_16
REMARK    3  A    between atoms: C_13  and  C_19
REMARK    4  A    between atoms: C_19  and  N_20
REMARK    5  A    between atoms: N_21  and  C_28
REMARK    6  A    between atoms: C_30  and  C_32
REMARK                            x       y       z     vdW  Elec       q    Type
REMARK                         _______ _______ _______ _____ _____    ______ ____
ROOT
ATOM      1  N   UNL     1      32.544 -10.044 -21.605  0.00  0.00    -0.301 N 
ATOM      2  N   UNL     1      32.862  -5.992 -23.896  0.00  0.00    -0.319 N 
ATOM      3  N   UNL     1      31.936  -8.084 -20.339  0.00  0.00    -0.233 NA
ATOM      4  N   UNL     1      32.136  -6.025 -21.622  0.00  0.00    -0.233 NA
ATOM      5  C   UNL     1      32.979 -10.312 -22.878  0.00  0.00    +0.046 C 
ATOM      6  C   UNL     1      32.682  -8.085 -22.666  0.00  0.00    +0.131 C 
ATOM      7  C   UNL     1      33.074  -9.116 -23.558  0.00  0.00    +0.003 C 
ATOM      8  C   UNL     1      32.359  -8.695 -21.459  0.00  0.00    +0.117 C 
ATOM      9  C   UNL     1      32.557  -6.698 -22.718  0.00  0.00    +0.113 C 
ATOM     10  C   UNL     1      31.856  -6.750 -20.515  0.00  0.00    +0.252 C 
ATOM     11  H   UNL     1      32.388 -10.718 -20.905  0.00  0.00    +0.153 HD
ATOM     12  H   UNL     1      33.166  -6.500 -24.682  0.00  0.00    +0.148 HD
ENDROOT
BRANCH   5  16
ATOM     13  C   UNL     1      33.808 -14.242 -24.178  0.00  0.00    -0.043 C 
ATOM     14  C   UNL     1      33.979 -13.177 -25.055  0.00  0.00    -0.006 C 
ATOM     15  C   UNL     1      33.368 -14.028 -22.878  0.00  0.00    -0.006 C 
ATOM     16  C   UNL     1      33.263 -11.655 -23.321  0.00  0.00    +0.013 C 
ATOM     17  C   UNL     1      33.706 -11.879 -24.624  0.00  0.00    +0.001 C 
ATOM     18  C   UNL     1      33.094 -12.729 -22.448  0.00  0.00    +0.001 C 
BRANCH  13  19
ATOM     19  C   UNL     1      34.102 -15.640 -24.641  0.00  0.00    -0.050 C 
BRANCH  19  20
ATOM     20  N   UNL     1      34.212 -16.574 -23.522  0.00  0.00    +0.387 N 
ATOM     21  N   UNL     1      35.489 -18.737 -22.090  0.00  0.00    +0.384 N 
ATOM     22  C   UNL     1      34.114 -17.963 -23.991  0.00  0.00    -0.100 C 
ATOM     23  C   UNL     1      35.468 -16.368 -22.791  0.00  0.00    -0.100 C 
ATOM     24  C   UNL     1      34.233 -18.944 -22.821  0.00  0.00    -0.101 C 
ATOM     25  C   UNL     1      35.585 -17.350 -21.620  0.00  0.00    -0.101 C 
ATOM     26  H   UNL     1      33.436 -16.395 -22.885  0.00  0.00    -0.079 HD
ATOM     27  H   UNL     1      36.265 -18.915 -22.727  0.00  0.00    -0.080 HD
BRANCH  21  28
ATOM     28  C   UNL     1      35.600 -19.672 -20.972  0.00  0.00    -0.078 C 
ATOM     29  C   UNL     1      36.854 -19.407 -20.157  0.00  0.00    -0.025 C 
ENDBRANCH  21  28
ENDBRANCH  19  20
ENDBRANCH  13  19
ENDBRANCH   5  16
BRANCH   2  30
ATOM     30  C   UNL     1      32.751  -4.569 -24.004  0.00  0.00    +0.093 C 
ATOM     31  C   UNL     1      31.315  -4.204 -24.376  0.00  0.00    +0.026 C 
BRANCH  30  32
ATOM     32  C   UNL     1      33.772  -4.036 -24.986  0.00  0.00    -0.005 C 
ATOM     33  C   UNL     1      33.611  -2.762 -25.503  0.00  0.00    -0.003 C 
ATOM     34  C   UNL     1      34.844  -4.834 -25.347  0.00  0.00    -0.003 C 
ATOM     35  C   UNL     1      34.552  -2.271 -26.408  0.00  0.00    -0.000 C 
ATOM     36  C   UNL     1      35.784  -4.343 -26.252  0.00  0.00    -0.000 C 
ATOM     37  C   UNL     1      35.638  -3.062 -26.783  0.00  0.00    -0.000 C 
ENDBRANCH  30  32
ENDBRANCH   2  30
TORSDOF 6
ENDMDL
MODEL 8
REMARK VINA RESULT:      -9.9      3.084     11.564
REMARK  Name = 10297043
REMARK  6 active torsions:
REMARK  status: ('A' for Active; 'I' for Inactive)
REMARK    1  A    between atoms: N_2  and  C_30
REMARK    2  A    between atoms: C_5  and  C_16
REMARK    3  A    between atoms: C_13  and  C_19
REMARK    4  A    between atoms: C_19  and  N_20
REMARK    5  A    between atoms: N_21  and  C_28
REMARK    6  A    between atoms: C_30  and  C_32
REMARK                            x       y       z     vdW  Elec       q    Type
REMARK                         _______ _______ _______ _____ _____    ______ ____
ROOT
ATOM      1  N   UNL     1      33.195 -12.151 -24.395  0.00  0.00    -0.301 N 
ATOM      2  N   UNL     1      34.469 -16.480 -23.209  0.00  0.00    -0.319 N 
ATOM      3  N   UNL     1      33.694 -13.628 -26.234  0.00  0.00    -0.233 NA
ATOM      4  N   UNL     1      34.347 -15.859 -25.511  0.00  0.00    -0.233 NA
ATOM      5  C   UNL     1      33.182 -12.234 -23.026  0.00  0.00    +0.046 C 
ATOM      6  C   UNL     1      33.808 -14.231 -23.869  0.00  0.00    +0.131 C 
ATOM      7  C   UNL     1      33.557 -13.513 -22.672  0.00  0.00    +0.003 C 
ATOM      8  C   UNL     1      33.575 -13.357 -24.923  0.00  0.00    +0.117 C 
ATOM      9  C   UNL     1      34.209 -15.524 -24.207  0.00  0.00    +0.113 C 
ATOM     10  C   UNL     1      34.086 -14.904 -26.431  0.00  0.00    +0.252 C 
ATOM     11  H   UNL     1      32.968 -11.348 -24.917  0.00  0.00    +0.153 HD
ATOM     12  H   UNL     1      34.363 -16.216 -22.266  0.00  0.00    +0.148 HD
ENDROOT
BRANCH   5  16
ATOM     13  C   UNL     1      32.130  -8.947 -20.595  0.00  0.00    -0.043 C 
ATOM     14  C   UNL     1      32.883  -8.739 -21.745  0.00  0.00    -0.006 C 
ATOM     15  C   UNL     1      31.720 -10.225 -20.236  0.00  0.00    -0.006 C 
ATOM     16  C   UNL     1      32.822 -11.112 -22.196  0.00  0.00    +0.013 C 
ATOM     17  C   UNL     1      33.229  -9.825 -22.549  0.00  0.00    +0.001 C 
ATOM     18  C   UNL     1      32.067 -11.311 -21.040  0.00  0.00    +0.001 C 
BRANCH  13  19
ATOM     19  C   UNL     1      31.757  -7.777 -19.730  0.00  0.00    -0.050 C 
BRANCH  19  20
ATOM     20  N   UNL     1      31.481  -6.579 -20.520  0.00  0.00    +0.387 N 
ATOM     21  N   UNL     1      31.850  -4.875 -22.827  0.00  0.00    +0.384 N 
ATOM     22  C   UNL     1      32.698  -5.773 -20.686  0.00  0.00    -0.100 C 
ATOM     23  C   UNL     1      30.919  -6.936 -21.829  0.00  0.00    -0.100 C 
ATOM     24  C   UNL     1      32.412  -4.519 -21.518  0.00  0.00    -0.101 C 
ATOM     25  C   UNL     1      30.634  -5.679 -22.660  0.00  0.00    -0.101 C 
ATOM     26  H   UNL     1      30.792  -6.021 -20.016  0.00  0.00    -0.079 HD
ATOM     27  H   UNL     1      32.538  -5.435 -23.331  0.00  0.00    -0.080 HD
BRANCH  21  28
ATOM     28  C   UNL     1      31.576  -3.678 -23.618  0.00  0.00    -0.078 C 
ATOM     29  C   UNL     1      32.528  -3.570 -24.798  0.00  0.00    -0.025 C 
ENDBRANCH  21  28
ENDBRANCH  19  20
ENDBRANCH  13  19
ENDBRANCH   5  16
BRANCH   2  30
ATOM     30  C   UNL     1      34.883 -17.820 -23.499  0.00  0.00    +0.093 C 
ATOM     31  C   UNL     1      33.736 -18.561 -24.182  0.00  0.00    +0.026 C 
BRANCH  30  32
ATOM     32  C   UNL     1      35.367 -18.504 -22.240  0.00  0.00    -0.005 C 
ATOM     33  C   UNL     1      34.515 -19.364 -21.568  0.00  0.00    -0.003 C 
ATOM     34  C   UNL     1      36.651 -18.256 -21.786  0.00  0.00    -0.003 C 
ATOM     35  C   UNL     1      34.961 -19.994 -20.407  0.00  0.00    -0.000 C 
ATOM     36  C   UNL     1      37.097 -18.887 -20.625  0.00  0.00    -0.000 C 
ATOM     37  C   UNL     1      36.252 -19.755 -19.935  0.00  0.00    -0.000 C 
ENDBRANCH  30  32
ENDBRANCH   2  30
TORSDOF 6
ENDMDL
MODEL 9
REMARK VINA RESULT:      -9.9      2.308     11.442
REMARK  Name = 10297043
REMARK  6 active torsions:
REMARK  status: ('A' for Active; 'I' for Inactive)
REMARK    1  A    between atoms: N_2  and  C_30
REMARK    2  A    between atoms: C_5  and  C_16
REMARK    3  A    between atoms: C_13  and  C_19
REMARK    4  A    between atoms: C_19  and  N_20
REMARK    5  A    between atoms: N_21  and  C_28
REMARK    6  A    between atoms: C_30  and  C_32
REMARK                            x       y       z     vdW  Elec       q    Type
REMARK                         _______ _______ _______ _____ _____    ______ ____
ROOT
ATOM      1  N   UNL     1      32.504 -21.466 -18.566  0.00  0.00    -0.301 N 
ATOM      2  N   UNL     1      34.737 -23.902 -15.272  0.00  0.00    -0.319 N 
ATOM      3  N   UNL     1      31.091 -22.633 -17.000  0.00  0.00    -0.233 NA
ATOM      4  N   UNL     1      32.350 -23.871 -15.324  0.00  0.00    -0.233 NA
ATOM      5  C   UNL     1      33.851 -21.312 -18.769  0.00  0.00    +0.046 C 
ATOM      6  C   UNL     1      33.534 -22.643 -16.974  0.00  0.00    +0.131 C 
ATOM      7  C   UNL     1      34.515 -22.030 -17.796  0.00  0.00    +0.003 C 
ATOM      8  C   UNL     1      32.293 -22.273 -17.480  0.00  0.00    +0.117 C 
ATOM      9  C   UNL     1      33.530 -23.474 -15.855  0.00  0.00    +0.113 C 
ATOM     10  C   UNL     1      31.219 -23.433 -15.921  0.00  0.00    +0.252 C 
ATOM     11  H   UNL     1      31.797 -21.059 -19.117  0.00  0.00    +0.153 HD
ATOM     12  H   UNL     1      35.584 -23.601 -15.674  0.00  0.00    +0.148 HD
ENDROOT
BRANCH   5  16
ATOM     13  C   UNL     1      35.385 -18.973 -21.932  0.00  0.00    -0.043 C 
ATOM     14  C   UNL     1      34.037 -19.313 -21.918  0.00  0.00    -0.006 C 
ATOM     15  C   UNL     1      36.233 -19.395 -20.916  0.00  0.00    -0.006 C 
ATOM     16  C   UNL     1      34.376 -20.513 -19.849  0.00  0.00    +0.013 C 
ATOM     17  C   UNL     1      33.530 -20.085 -20.872  0.00  0.00    +0.001 C 
ATOM     18  C   UNL     1      35.727 -20.168 -19.870  0.00  0.00    +0.001 C 
BRANCH  13  19
ATOM     19  C   UNL     1      35.930 -18.142 -23.057  0.00  0.00    -0.050 C 
BRANCH  19  20
ATOM     20  N   UNL     1      35.616 -16.725 -22.892  0.00  0.00    +0.387 N 
ATOM     21  N   UNL     1      33.834 -14.541 -22.246  0.00  0.00    +0.384 N 
ATOM     22  C   UNL     1      34.543 -16.318 -23.810  0.00  0.00    -0.100 C 
ATOM     23  C   UNL     1      35.240 -16.432 -21.503  0.00  0.00    -0.100 C 
ATOM     24  C   UNL     1      34.209 -14.833 -23.635  0.00  0.00    -0.101 C 
ATOM     25  C   UNL     1      34.906 -14.946 -21.330  0.00  0.00    -0.101 C 
ATOM     26  H   UNL     1      36.453 -16.188 -23.119  0.00  0.00    -0.079 HD
ATOM     27  H   UNL     1      32.997 -15.080 -22.019  0.00  0.00    -0.080 HD
BRANCH  21  28
ATOM     28  C   UNL     1      33.517 -13.124 -22.081  0.00  0.00    -0.078 C 
ATOM     29  C   UNL     1      32.266 -12.936 -21.240  0.00  0.00    -0.025 C 
ENDBRANCH  21  28
ENDBRANCH  19  20
ENDBRANCH  13  19
ENDBRANCH   5  16
BRANCH   2  30
ATOM     30  C   UNL     1      34.790 -24.755 -14.124  0.00  0.00    +0.093 C 
ATOM     31  C   UNL     1      33.369 -25.042 -13.646  0.00  0.00    +0.026 C 
BRANCH  30  32
ATOM     32  C   UNL     1      35.664 -24.138 -13.053  0.00  0.00    -0.005 C 
ATOM     33  C   UNL     1      36.903 -23.629 -13.402  0.00  0.00    -0.003 C 
ATOM     34  C   UNL     1      35.206 -24.097 -11.747  0.00  0.00    -0.003 C 
ATOM     35  C   UNL     1      37.709 -23.062 -12.416  0.00  0.00    -0.000 C 
ATOM     36  C   UNL     1      36.012 -23.530 -10.761  0.00  0.00    -0.000 C 
ATOM     37  C   UNL     1      37.263 -23.012 -11.094  0.00  0.00    -0.000 C 
ENDBRANCH  30  32
ENDBRANCH   2  30
TORSDOF 6
ENDMDL
