MODEL 1
REMARK VINA RESULT:     -11.6      0.000      0.000
REMARK  Name = 445579
REMARK  10 active torsions:
REMARK  status: ('A' for Active; 'I' for Inactive)
REMARK    1  A    between atoms: C_1  and  O_18
REMARK    2  A    between atoms: C_4  and  C_9
REMARK    3  A    between atoms: N_8  and  C_11
REMARK    4  A    between atoms: C_11  and  C_12
REMARK    5  A    between atoms: O_18  and  C_24
REMARK    6  A    between atoms: C_20  and  O_27
REMARK    7  A    between atoms: C_21  and  O_25
REMARK    8  A    between atoms: C_22  and  C_31
REMARK    9  A    between atoms: C_23  and  O_29
REMARK   10  A    between atoms: C_31  and  O_32
REMARK                            x       y       z     vdW  Elec       q    Type
REMARK                         _______ _______ _______ _____ _____    ______ ____
ROOT
ATOM      1  C   UNL     1      33.738 -23.855 -14.652  0.00  0.00    +0.142 C 
ATOM      2  C   UNL     1      33.993 -23.531 -15.981  0.00  0.00    +0.042 C 
ATOM      3  C   UNL     1      32.474 -23.657 -14.106  0.00  0.00    +0.037 C 
ATOM      4  C   UNL     1      32.972 -23.002 -16.772  0.00  0.00    +0.056 C 
ATOM      5  C   UNL     1      31.454 -23.129 -14.898  0.00  0.00    +0.003 C 
ATOM      6  C   UNL     1      31.703 -22.802 -16.231  0.00  0.00    +0.005 C 
ENDROOT
BRANCH   4   9
ATOM      7  O   UNL     1      33.698 -23.486 -18.962  0.00  0.00    -0.270 OA
ATOM      8  N   UNL     1      32.897 -21.365 -18.551  0.00  0.00    -0.297 N 
ATOM      9  C   UNL     1      33.233 -22.663 -18.162  0.00  0.00    +0.246 C 
ATOM     10  H   UNL     1      32.529 -20.749 -17.875  0.00  0.00    +0.150 HD
BRANCH   8  11
ATOM     11  C   UNL     1      33.066 -20.886 -19.904  0.00  0.00    +0.117 C 
BRANCH  11  12
ATOM     12  C   UNL     1      34.406 -20.242 -20.109  0.00  0.00    -0.003 C 
ATOM     13  C   UNL     1      35.530 -20.784 -19.497  0.00  0.00    -0.003 C 
ATOM     14  C   UNL     1      34.510 -19.109 -20.909  0.00  0.00    -0.003 C 
ATOM     15  C   UNL     1      36.776 -20.185 -19.687  0.00  0.00    -0.000 C 
ATOM     16  C   UNL     1      35.756 -18.512 -21.100  0.00  0.00    -0.000 C 
ATOM     17  C   UNL     1      36.889 -19.050 -20.489  0.00  0.00    -0.000 C 
ENDBRANCH  11  12
ENDBRANCH   8  11
ENDBRANCH   4   9
BRANCH   1  18
ATOM     18  O   UNL     1      34.739 -24.373 -13.876  0.00  0.00    -0.451 OA
BRANCH  18  24
ATOM     19  O   UNL     1      36.586 -23.077 -13.162  0.00  0.00    -0.316 OA
ATOM     20  C   UNL     1      37.666 -24.911 -11.960  0.00  0.00    +0.169 C 
ATOM     21  C   UNL     1      37.187 -25.889 -13.038  0.00  0.00    +0.173 C 
ATOM     22  C   UNL     1      36.719 -23.706 -11.878  0.00  0.00    +0.177 C 
ATOM     23  C   UNL     1      36.983 -25.155 -14.363  0.00  0.00    +0.210 C 
ATOM     24  C   UNL     1      36.066 -23.944 -14.174  0.00  0.00    +0.318 C 
BRANCH  21  25
ATOM     25  O   UNL     1      38.148 -26.925 -13.217  0.00  0.00    -0.379 OA
ATOM     26  H   UNL     1      39.042 -26.553 -13.147  0.00  0.00    +0.211 HD
ENDBRANCH  21  25
BRANCH  20  27
ATOM     27  O   UNL     1      38.978 -24.446 -12.285  0.00  0.00    -0.379 OA
ATOM     28  H   UNL     1      39.055 -23.507 -12.055  0.00  0.00    +0.211 HD
ENDBRANCH  20  27
BRANCH  23  29
ATOM     29  O   UNL     1      36.413 -26.031 -15.330  0.00  0.00    -0.377 OA
ATOM     30  H   UNL     1      35.723 -25.560 -15.826  0.00  0.00    +0.211 HD
ENDBRANCH  23  29
BRANCH  22  31
ATOM     31  C   UNL     1      37.215 -22.643 -10.904  0.00  0.00    +0.169 C 
BRANCH  31  32
ATOM     32  O   UNL     1      38.173 -21.835 -11.566  0.00  0.00    -0.379 OA
ATOM     33  H   UNL     1      38.353 -21.046 -11.033  0.00  0.00    +0.211 HD
ENDBRANCH  31  32
ENDBRANCH  22  31
ENDBRANCH  18  24
ENDBRANCH   1  18
TORSDOF 10
ENDMDL
MODEL 2
REMARK VINA RESULT:     -11.6      1.241      1.668
REMARK  Name = 445579
REMARK  10 active torsions:
REMARK  status: ('A' for Active; 'I' for Inactive)
REMARK    1  A    between atoms: C_1  and  O_18
REMARK    2  A    between atoms: C_4  and  C_9
REMARK    3  A    between atoms: N_8  and  C_11
REMARK    4  A    between atoms: C_11  and  C_12
REMARK    5  A    between atoms: O_18  and  C_24
REMARK    6  A    between atoms: C_20  and  O_27
REMARK    7  A    between atoms: C_21  and  O_25
REMARK    8  A    between atoms: C_22  and  C_31
REMARK    9  A    between atoms: C_23  and  O_29
REMARK   10  A    between atoms: C_31  and  O_32
REMARK                            x       y       z     vdW  Elec       q    Type
REMARK                         _______ _______ _______ _____ _____    ______ ____
ROOT
ATOM      1  C   UNL     1      34.212 -23.850 -14.758  0.00  0.00    +0.142 C 
ATOM      2  C   UNL     1      34.353 -23.476 -16.091  0.00  0.00    +0.042 C 
ATOM      3  C   UNL     1      32.958 -23.852 -14.154  0.00  0.00    +0.037 C 
ATOM      4  C   UNL     1      33.230 -23.098 -16.827  0.00  0.00    +0.056 C 
ATOM      5  C   UNL     1      31.835 -23.475 -14.891  0.00  0.00    +0.003 C 
ATOM      6  C   UNL     1      31.971 -23.098 -16.226  0.00  0.00    +0.005 C 
ENDROOT
BRANCH   4   9
ATOM      7  O   UNL     1      33.749 -23.504 -19.089  0.00  0.00    -0.270 OA
ATOM      8  N   UNL     1      33.028 -21.389 -18.526  0.00  0.00    -0.297 N 
ATOM      9  C   UNL     1      33.372 -22.706 -18.220  0.00  0.00    +0.246 C 
ATOM     10  H   UNL     1      32.733 -20.795 -17.796  0.00  0.00    +0.150 HD
BRANCH   8  11
ATOM     11  C   UNL     1      33.085 -20.858 -19.869  0.00  0.00    +0.117 C 
BRANCH  11  12
ATOM     12  C   UNL     1      34.406 -20.209 -20.162  0.00  0.00    -0.003 C 
ATOM     13  C   UNL     1      34.471 -19.162 -21.073  0.00  0.00    -0.003 C 
ATOM     14  C   UNL     1      35.553 -20.663 -19.519  0.00  0.00    -0.003 C 
ATOM     15  C   UNL     1      35.700 -18.559 -21.346  0.00  0.00    -0.000 C 
ATOM     16  C   UNL     1      36.780 -20.059 -19.791  0.00  0.00    -0.000 C 
ATOM     17  C   UNL     1      36.854 -19.008 -20.705  0.00  0.00    -0.000 C 
ENDBRANCH  11  12
ENDBRANCH   8  11
ENDBRANCH   4   9
BRANCH   1  18
ATOM     18  O   UNL     1      35.313 -24.220 -14.036  0.00  0.00    -0.451 OA
BRANCH  18  24
ATOM     19  O   UNL     1      35.964 -23.008 -12.110  0.00  0.00    -0.316 OA
ATOM     20  C   UNL     1      37.870 -24.450 -11.600  0.00  0.00    +0.169 C 
ATOM     21  C   UNL     1      38.134 -24.619 -13.099  0.00  0.00    +0.173 C 
ATOM     22  C   UNL     1      36.385 -24.153 -11.351  0.00  0.00    +0.177 C 
ATOM     23  C   UNL     1      37.595 -23.413 -13.868  0.00  0.00    +0.210 C 
ATOM     24  C   UNL     1      36.125 -23.165 -13.522  0.00  0.00    +0.318 C 
BRANCH  21  25
ATOM     25  O   UNL     1      39.533 -24.741 -13.337  0.00  0.00    -0.379 OA
ATOM     26  H   UNL     1      39.954 -23.871 -13.252  0.00  0.00    +0.211 HD
ENDBRANCH  21  25
BRANCH  20  27
ATOM     27  O   UNL     1      38.650 -23.363 -11.096  0.00  0.00    -0.379 OA
ATOM     28  H   UNL     1      38.491 -23.264 -10.145  0.00  0.00    +0.211 HD
ENDBRANCH  20  27
BRANCH  23  29
ATOM     29  O   UNL     1      37.718 -23.627 -15.271  0.00  0.00    -0.377 OA
ATOM     30  H   UNL     1      37.124 -24.344 -15.543  0.00  0.00    +0.211 HD
ENDBRANCH  23  29
BRANCH  22  31
ATOM     31  C   UNL     1      36.089 -23.857  -9.886  0.00  0.00    +0.169 C 
BRANCH  31  32
ATOM     32  O   UNL     1      35.324 -24.923  -9.354  0.00  0.00    -0.379 OA
ATOM     33  H   UNL     1      34.387 -24.781  -9.556  0.00  0.00    +0.211 HD
ENDBRANCH  31  32
ENDBRANCH  22  31
ENDBRANCH  18  24
ENDBRANCH   1  18
TORSDOF 10
ENDMDL
MODEL 3
REMARK VINA RESULT:     -11.5      1.117      2.450
REMARK  Name = 445579
REMARK  10 active torsions:
REMARK  status: ('A' for Active; 'I' for Inactive)
REMARK    1  A    between atoms: C_1  and  O_18
REMARK    2  A    between atoms: C_4  and  C_9
REMARK    3  A    between atoms: N_8  and  C_11
REMARK    4  A    between atoms: C_11  and  C_12
REMARK    5  A    between atoms: O_18  and  C_24
REMARK    6  A    between atoms: C_20  and  O_27
REMARK    7  A    between atoms: C_21  and  O_25
REMARK    8  A    between atoms: C_22  and  C_31
REMARK    9  A    between atoms: C_23  and  O_29
REMARK   10  A    between atoms: C_31  and  O_32
REMARK                            x       y       z     vdW  Elec       q    Type
REMARK                         _______ _______ _______ _____ _____    ______ ____
ROOT
ATOM      1  C   UNL     1      34.131 -23.266 -14.756  0.00  0.00    +0.142 C 
ATOM      2  C   UNL     1      34.306 -22.989 -16.108  0.00  0.00    +0.042 C 
ATOM      3  C   UNL     1      32.853 -23.383 -14.218  0.00  0.00    +0.037 C 
ATOM      4  C   UNL     1      33.190 -22.826 -16.931  0.00  0.00    +0.056 C 
ATOM      5  C   UNL     1      31.739 -23.221 -15.040  0.00  0.00    +0.003 C 
ATOM      6  C   UNL     1      31.907 -22.943 -16.397  0.00  0.00    +0.005 C 
ENDROOT
BRANCH   4   9
ATOM      7  O   UNL     1      33.744 -23.402 -19.148  0.00  0.00    -0.270 OA
ATOM      8  N   UNL     1      33.054 -21.239 -18.750  0.00  0.00    -0.297 N 
ATOM      9  C   UNL     1      33.366 -22.538 -18.345  0.00  0.00    +0.246 C 
ATOM     10  H   UNL     1      32.758 -20.590 -18.071  0.00  0.00    +0.150 HD
BRANCH   8  11
ATOM     11  C   UNL     1      33.147 -20.807 -20.126  0.00  0.00    +0.117 C 
BRANCH  11  12
ATOM     12  C   UNL     1      34.431 -20.080 -20.402  0.00  0.00    -0.003 C 
ATOM     13  C   UNL     1      34.443 -19.022 -21.304  0.00  0.00    -0.003 C 
ATOM     14  C   UNL     1      35.597 -20.471 -19.752  0.00  0.00    -0.003 C 
ATOM     15  C   UNL     1      35.636 -18.346 -21.561  0.00  0.00    -0.000 C 
ATOM     16  C   UNL     1      36.789 -19.794 -20.009  0.00  0.00    -0.000 C 
ATOM     17  C   UNL     1      36.809 -18.733 -20.913  0.00  0.00    -0.000 C 
ENDBRANCH  11  12
ENDBRANCH   8  11
ENDBRANCH   4   9
BRANCH   1  18
ATOM     18  O   UNL     1      35.225 -23.425 -13.949  0.00  0.00    -0.451 OA
BRANCH  18  24
ATOM     19  O   UNL     1      36.375 -25.480 -13.715  0.00  0.00    -0.316 OA
ATOM     20  C   UNL     1      37.968 -24.632 -12.067  0.00  0.00    +0.169 C 
ATOM     21  C   UNL     1      36.865 -23.759 -11.461  0.00  0.00    +0.173 C 
ATOM     22  C   UNL     1      37.679 -24.901 -13.550  0.00  0.00    +0.177 C 
ATOM     23  C   UNL     1      35.494 -24.376 -11.734  0.00  0.00    +0.210 C 
ATOM     24  C   UNL     1      35.315 -24.653 -13.229  0.00  0.00    +0.318 C 
BRANCH  21  25
ATOM     25  O   UNL     1      37.056 -23.640 -10.054  0.00  0.00    -0.379 OA
ATOM     26  H   UNL     1      37.469 -22.785  -9.854  0.00  0.00    +0.211 HD
ENDBRANCH  21  25
BRANCH  20  27
ATOM     27  O   UNL     1      38.026 -25.880 -11.373  0.00  0.00    -0.379 OA
ATOM     28  H   UNL     1      37.217 -25.996 -10.850  0.00  0.00    +0.211 HD
ENDBRANCH  20  27
BRANCH  23  29
ATOM     29  O   UNL     1      34.461 -23.503 -11.290  0.00  0.00    -0.377 OA
ATOM     30  H   UNL     1      34.635 -23.236 -10.373  0.00  0.00    +0.211 HD
ENDBRANCH  23  29
BRANCH  22  31
ATOM     31  C   UNL     1      38.683 -25.864 -14.172  0.00  0.00    +0.169 C 
BRANCH  31  32
ATOM     32  O   UNL     1      38.140 -27.172 -14.131  0.00  0.00    -0.379 OA
ATOM     33  H   UNL     1      38.416 -27.611 -13.312  0.00  0.00    +0.211 HD
ENDBRANCH  31  32
ENDBRANCH  22  31
ENDBRANCH  18  24
ENDBRANCH   1  18
TORSDOF 10
ENDMDL
MODEL 4
REMARK VINA RESULT:     -11.3      2.540      4.223
REMARK  Name = 445579
REMARK  10 active torsions:
REMARK  status: ('A' for Active; 'I' for Inactive)
REMARK    1  A    between atoms: C_1  and  O_18
REMARK    2  A    between atoms: C_4  and  C_9
REMARK    3  A    between atoms: N_8  and  C_11
REMARK    4  A    between atoms: C_11  and  C_12
REMARK    5  A    between atoms: O_18  and  C_24
REMARK    6  A    between atoms: C_20  and  O_27
REMARK    7  A    between atoms: C_21  and  O_25
REMARK    8  A    between atoms: C_22  and  C_31
REMARK    9  A    between atoms: C_23  and  O_29
REMARK   10  A    between atoms: C_31  and  O_32
REMARK                            x       y       z     vdW  Elec       q    Type
REMARK                         _______ _______ _______ _____ _____    ______ ____
ROOT
ATOM      1  C   UNL     1      35.077 -22.239 -17.793  0.00  0.00    +0.142 C 
ATOM      2  C   UNL     1      35.803 -21.303 -18.524  0.00  0.00    +0.042 C 
ATOM      3  C   UNL     1      33.716 -22.413 -18.023  0.00  0.00    +0.037 C 
ATOM      4  C   UNL     1      35.160 -20.533 -19.494  0.00  0.00    +0.056 C 
ATOM      5  C   UNL     1      33.074 -21.644 -18.993  0.00  0.00    +0.003 C 
ATOM      6  C   UNL     1      33.796 -20.704 -19.728  0.00  0.00    +0.005 C 
ENDROOT
BRANCH   4   9
ATOM      7  O   UNL     1      37.089 -19.273 -19.989  0.00  0.00    -0.270 OA
ATOM      8  N   UNL     1      35.245 -18.973 -21.340  0.00  0.00    -0.297 N 
ATOM      9  C   UNL     1      35.913 -19.554 -20.261  0.00  0.00    +0.246 C 
ATOM     10  H   UNL     1      34.310 -19.233 -21.513  0.00  0.00    +0.150 HD
BRANCH   8  11
ATOM     11  C   UNL     1      35.869 -18.008 -22.217  0.00  0.00    +0.117 C 
BRANCH  11  12
ATOM     12  C   UNL     1      35.360 -16.617 -21.972  0.00  0.00    -0.003 C 
ATOM     13  C   UNL     1      35.112 -15.776 -23.052  0.00  0.00    -0.003 C 
ATOM     14  C   UNL     1      35.144 -16.182 -20.669  0.00  0.00    -0.003 C 
ATOM     15  C   UNL     1      34.640 -14.482 -22.825  0.00  0.00    -0.000 C 
ATOM     16  C   UNL     1      34.671 -14.889 -20.444  0.00  0.00    -0.000 C 
ATOM     17  C   UNL     1      34.420 -14.040 -21.521  0.00  0.00    -0.000 C 
ENDBRANCH  11  12
ENDBRANCH   8  11
ENDBRANCH   4   9
BRANCH   1  18
ATOM     18  O   UNL     1      35.707 -22.994 -16.842  0.00  0.00    -0.451 OA
BRANCH  18  24
ATOM     19  O   UNL     1      34.748 -22.491 -14.738  0.00  0.00    -0.316 OA
ATOM     20  C   UNL     1      35.550 -24.530 -13.657  0.00  0.00    +0.169 C 
ATOM     21  C   UNL     1      36.842 -24.447 -14.476  0.00  0.00    +0.173 C 
ATOM     22  C   UNL     1      34.400 -23.844 -14.407  0.00  0.00    +0.177 C 
ATOM     23  C   UNL     1      37.123 -22.998 -14.872  0.00  0.00    +0.210 C 
ATOM     24  C   UNL     1      35.907 -22.383 -15.569  0.00  0.00    +0.318 C 
BRANCH  21  25
ATOM     25  O   UNL     1      37.936 -24.947 -13.713  0.00  0.00    -0.379 OA
ATOM     26  H   UNL     1      38.206 -24.282 -13.060  0.00  0.00    +0.211 HD
ENDBRANCH  21  25
BRANCH  20  27
ATOM     27  O   UNL     1      35.738 -23.876 -12.400  0.00  0.00    -0.379 OA
ATOM     28  H   UNL     1      35.062 -23.190 -12.288  0.00  0.00    +0.211 HD
ENDBRANCH  20  27
BRANCH  23  29
ATOM     29  O   UNL     1      38.247 -22.932 -15.744  0.00  0.00    -0.377 OA
ATOM     30  H   UNL     1      38.017 -22.412 -16.530  0.00  0.00    +0.211 HD
ENDBRANCH  23  29
BRANCH  22  31
ATOM     31  C   UNL     1      33.119 -23.793 -13.583  0.00  0.00    +0.169 C 
BRANCH  31  32
ATOM     32  O   UNL     1      33.100 -24.905 -12.706  0.00  0.00    -0.379 OA
ATOM     33  H   UNL     1      32.814 -25.694 -13.191  0.00  0.00    +0.211 HD
ENDBRANCH  31  32
ENDBRANCH  22  31
ENDBRANCH  18  24
ENDBRANCH   1  18
TORSDOF 10
ENDMDL
MODEL 5
REMARK VINA RESULT:     -11.3      1.791      2.734
REMARK  Name = 445579
REMARK  10 active torsions:
REMARK  status: ('A' for Active; 'I' for Inactive)
REMARK    1  A    between atoms: C_1  and  O_18
REMARK    2  A    between atoms: C_4  and  C_9
REMARK    3  A    between atoms: N_8  and  C_11
REMARK    4  A    between atoms: C_11  and  C_12
REMARK    5  A    between atoms: O_18  and  C_24
REMARK    6  A    between atoms: C_20  and  O_27
REMARK    7  A    between atoms: C_21  and  O_25
REMARK    8  A    between atoms: C_22  and  C_31
REMARK    9  A    between atoms: C_23  and  O_29
REMARK   10  A    between atoms: C_31  and  O_32
REMARK                            x       y       z     vdW  Elec       q    Type
REMARK                         _______ _______ _______ _____ _____    ______ ____
ROOT
ATOM      1  C   UNL     1      32.687 -24.013 -13.304  0.00  0.00    +0.142 C 
ATOM      2  C   UNL     1      32.527 -23.255 -14.461  0.00  0.00    +0.042 C 
ATOM      3  C   UNL     1      31.760 -24.995 -12.970  0.00  0.00    +0.037 C 
ATOM      4  C   UNL     1      31.429 -23.482 -15.290  0.00  0.00    +0.056 C 
ATOM      5  C   UNL     1      30.663 -25.222 -13.800  0.00  0.00    +0.003 C 
ATOM      6  C   UNL     1      30.497 -24.466 -14.960  0.00  0.00    +0.005 C 
ENDROOT
BRANCH   4   9
ATOM      7  O   UNL     1      30.176 -22.160 -16.787  0.00  0.00    -0.270 OA
ATOM      8  N   UNL     1      32.389 -22.546 -17.303  0.00  0.00    -0.297 N 
ATOM      9  C   UNL     1      31.257 -22.694 -16.500  0.00  0.00    +0.246 C 
ATOM     10  H   UNL     1      33.224 -22.991 -17.029  0.00  0.00    +0.150 HD
BRANCH   8  11
ATOM     11  C   UNL     1      32.387 -21.767 -18.520  0.00  0.00    +0.117 C 
BRANCH  11  12
ATOM     12  C   UNL     1      33.773 -21.360 -18.930  0.00  0.00    -0.003 C 
ATOM     13  C   UNL     1      34.872 -21.945 -18.311  0.00  0.00    -0.003 C 
ATOM     14  C   UNL     1      33.944 -20.402 -19.923  0.00  0.00    -0.003 C 
ATOM     15  C   UNL     1      36.160 -21.566 -18.690  0.00  0.00    -0.000 C 
ATOM     16  C   UNL     1      35.232 -20.025 -20.303  0.00  0.00    -0.000 C 
ATOM     17  C   UNL     1      36.340 -20.607 -19.687  0.00  0.00    -0.000 C 
ENDBRANCH  11  12
ENDBRANCH   8  11
ENDBRANCH   4   9
BRANCH   1  18
ATOM     18  O   UNL     1      33.765 -23.790 -12.491  0.00  0.00    -0.451 OA
BRANCH  18  24
ATOM     19  O   UNL     1      35.634 -24.222 -13.876  0.00  0.00    -0.316 OA
ATOM     20  C   UNL     1      37.156 -22.787 -12.612  0.00  0.00    +0.169 C 
ATOM     21  C   UNL     1      36.460 -23.205 -11.313  0.00  0.00    +0.173 C 
ATOM     22  C   UNL     1      36.186 -22.898 -13.795  0.00  0.00    +0.177 C 
ATOM     23  C   UNL     1      35.821 -24.584 -11.478  0.00  0.00    +0.210 C 
ATOM     24  C   UNL     1      34.910 -24.613 -12.707  0.00  0.00    +0.318 C 
BRANCH  21  25
ATOM     25  O   UNL     1      37.403 -23.248 -10.246  0.00  0.00    -0.379 OA
ATOM     26  H   UNL     1      37.303 -24.081  -9.759  0.00  0.00    +0.211 HD
ENDBRANCH  21  25
BRANCH  20  27
ATOM     27  O   UNL     1      38.276 -23.643 -12.850  0.00  0.00    -0.379 OA
ATOM     28  H   UNL     1      38.802 -23.290 -13.585  0.00  0.00    +0.211 HD
ENDBRANCH  20  27
BRANCH  23  29
ATOM     29  O   UNL     1      35.061 -24.918 -10.321  0.00  0.00    -0.377 OA
ATOM     30  H   UNL     1      35.372 -25.765  -9.963  0.00  0.00    +0.211 HD
ENDBRANCH  23  29
BRANCH  22  31
ATOM     31  C   UNL     1      36.863 -22.609 -15.130  0.00  0.00    +0.169 C 
BRANCH  31  32
ATOM     32  O   UNL     1      37.624 -23.743 -15.506  0.00  0.00    -0.379 OA
ATOM     33  H   UNL     1      38.274 -23.487 -16.178  0.00  0.00    +0.211 HD
ENDBRANCH  31  32
ENDBRANCH  22  31
ENDBRANCH  18  24
ENDBRANCH   1  18
TORSDOF 10
ENDMDL
MODEL 6
REMARK VINA RESULT:     -10.5      1.994      3.320
REMARK  Name = 445579
REMARK  10 active torsions:
REMARK  status: ('A' for Active; 'I' for Inactive)
REMARK    1  A    between atoms: C_1  and  O_18
REMARK    2  A    between atoms: C_4  and  C_9
REMARK    3  A    between atoms: N_8  and  C_11
REMARK    4  A    between atoms: C_11  and  C_12
REMARK    5  A    between atoms: O_18  and  C_24
REMARK    6  A    between atoms: C_20  and  O_27
REMARK    7  A    between atoms: C_21  and  O_25
REMARK    8  A    between atoms: C_22  and  C_31
REMARK    9  A    between atoms: C_23  and  O_29
REMARK   10  A    between atoms: C_31  and  O_32
REMARK                            x       y       z     vdW  Elec       q    Type
REMARK                         _______ _______ _______ _____ _____    ______ ____
ROOT
ATOM      1  C   UNL     1      35.934 -22.616 -15.108  0.00  0.00    +0.142 C 
ATOM      2  C   UNL     1      35.028 -22.485 -16.156  0.00  0.00    +0.042 C 
ATOM      3  C   UNL     1      37.275 -22.286 -15.288  0.00  0.00    +0.037 C 
ATOM      4  C   UNL     1      35.467 -22.021 -17.396  0.00  0.00    +0.056 C 
ATOM      5  C   UNL     1      37.712 -21.822 -16.528  0.00  0.00    +0.003 C 
ATOM      6  C   UNL     1      36.809 -21.690 -17.582  0.00  0.00    +0.005 C 
ENDROOT
BRANCH   4   9
ATOM      7  O   UNL     1      33.642 -22.725 -18.712  0.00  0.00    -0.270 OA
ATOM      8  N   UNL     1      34.649 -20.728 -19.270  0.00  0.00    -0.297 N 
ATOM      9  C   UNL     1      34.524 -21.882 -18.495  0.00  0.00    +0.246 C 
ATOM     10  H   UNL     1      35.368 -20.089 -19.054  0.00  0.00    +0.150 HD
BRANCH   8  11
ATOM     11  C   UNL     1      33.768 -20.430 -20.376  0.00  0.00    +0.117 C 
BRANCH  11  12
ATOM     12  C   UNL     1      34.326 -19.359 -21.267  0.00  0.00    -0.003 C 
ATOM     13  C   UNL     1      33.987 -19.340 -22.615  0.00  0.00    -0.003 C 
ATOM     14  C   UNL     1      35.178 -18.397 -20.736  0.00  0.00    -0.003 C 
ATOM     15  C   UNL     1      34.507 -18.345 -23.444  0.00  0.00    -0.000 C 
ATOM     16  C   UNL     1      35.696 -17.402 -21.565  0.00  0.00    -0.000 C 
ATOM     17  C   UNL     1      35.361 -17.376 -22.918  0.00  0.00    -0.000 C 
ENDBRANCH  11  12
ENDBRANCH   8  11
ENDBRANCH   4   9
BRANCH   1  18
ATOM     18  O   UNL     1      35.505 -23.071 -13.891  0.00  0.00    -0.451 OA
BRANCH  18  24
ATOM     19  O   UNL     1      36.528 -25.201 -14.001  0.00  0.00    -0.316 OA
ATOM     20  C   UNL     1      37.103 -25.271 -11.626  0.00  0.00    +0.169 C 
ATOM     21  C   UNL     1      35.794 -24.546 -11.296  0.00  0.00    +0.173 C 
ATOM     22  C   UNL     1      37.563 -24.917 -13.046  0.00  0.00    +0.177 C 
ATOM     23  C   UNL     1      34.754 -24.815 -12.383  0.00  0.00    +0.210 C 
ATOM     24  C   UNL     1      35.317 -24.479 -13.765  0.00  0.00    +0.318 C 
BRANCH  21  25
ATOM     25  O   UNL     1      35.292 -24.994 -10.041  0.00  0.00    -0.379 OA
ATOM     26  H   UNL     1      35.779 -24.560  -9.323  0.00  0.00    +0.211 HD
ENDBRANCH  21  25
BRANCH  20  27
ATOM     27  O   UNL     1      36.900 -26.683 -11.544  0.00  0.00    -0.379 OA
ATOM     28  H   UNL     1      37.563 -27.137 -12.087  0.00  0.00    +0.211 HD
ENDBRANCH  20  27
BRANCH  23  29
ATOM     29  O   UNL     1      33.583 -24.038 -12.150  0.00  0.00    -0.377 OA
ATOM     30  H   UNL     1      33.800 -23.295 -11.564  0.00  0.00    +0.211 HD
ENDBRANCH  23  29
BRANCH  22  31
ATOM     31  C   UNL     1      38.797 -25.705 -13.470  0.00  0.00    +0.169 C 
BRANCH  31  32
ATOM     32  O   UNL     1      38.375 -26.901 -14.102  0.00  0.00    -0.379 OA
ATOM     33  H   UNL     1      37.568 -27.225 -13.674  0.00  0.00    +0.211 HD
ENDBRANCH  31  32
ENDBRANCH  22  31
ENDBRANCH  18  24
ENDBRANCH   1  18
TORSDOF 10
ENDMDL
MODEL 7
REMARK VINA RESULT:     -10.4      6.821     12.099
REMARK  Name = 445579
REMARK  10 active torsions:
REMARK  status: ('A' for Active; 'I' for Inactive)
REMARK    1  A    between atoms: C_1  and  O_18
REMARK    2  A    between atoms: C_4  and  C_9
REMARK    3  A    between atoms: N_8  and  C_11
REMARK    4  A    between atoms: C_11  and  C_12
REMARK    5  A    between atoms: O_18  and  C_24
REMARK    6  A    between atoms: C_20  and  O_27
REMARK    7  A    between atoms: C_21  and  O_25
REMARK    8  A    between atoms: C_22  and  C_31
REMARK    9  A    between atoms: C_23  and  O_29
REMARK   10  A    between atoms: C_31  and  O_32
REMARK                            x       y       z     vdW  Elec       q    Type
REMARK                         _______ _______ _______ _____ _____    ______ ____
ROOT
ATOM      1  C   UNL     1      34.426 -16.008 -24.019  0.00  0.00    +0.142 C 
ATOM      2  C   UNL     1      34.979 -16.410 -22.806  0.00  0.00    +0.042 C 
ATOM      3  C   UNL     1      33.833 -16.937 -24.868  0.00  0.00    +0.037 C 
ATOM      4  C   UNL     1      34.939 -17.756 -22.440  0.00  0.00    +0.056 C 
ATOM      5  C   UNL     1      33.793 -18.282 -24.501  0.00  0.00    +0.003 C 
ATOM      6  C   UNL     1      34.345 -18.691 -23.288  0.00  0.00    +0.005 C 
ENDROOT
BRANCH   4   9
ATOM      7  O   UNL     1      35.667 -17.398 -20.228  0.00  0.00    -0.270 OA
ATOM      8  N   UNL     1      35.853 -19.532 -21.077  0.00  0.00    -0.297 N 
ATOM      9  C   UNL     1      35.514 -18.182 -21.174  0.00  0.00    +0.246 C 
ATOM     10  H   UNL     1      35.710 -20.113 -21.860  0.00  0.00    +0.150 HD
BRANCH   8  11
ATOM     11  C   UNL     1      36.405 -20.115 -19.875  0.00  0.00    +0.117 C 
BRANCH  11  12
ATOM     12  C   UNL     1      35.400 -20.959 -19.147  0.00  0.00    -0.003 C 
ATOM     13  C   UNL     1      35.815 -21.770 -18.096  0.00  0.00    -0.003 C 
ATOM     14  C   UNL     1      34.064 -20.925 -19.531  0.00  0.00    -0.003 C 
ATOM     15  C   UNL     1      34.881 -22.556 -17.420  0.00  0.00    -0.000 C 
ATOM     16  C   UNL     1      33.131 -21.709 -18.854  0.00  0.00    -0.000 C 
ATOM     17  C   UNL     1      33.540 -22.525 -17.799  0.00  0.00    -0.000 C 
ENDBRANCH  11  12
ENDBRANCH   8  11
ENDBRANCH   4   9
BRANCH   1  18
ATOM     18  O   UNL     1      34.466 -14.688 -24.378  0.00  0.00    -0.451 OA
BRANCH  18  24
ATOM     19  O   UNL     1      32.746 -13.816 -23.007  0.00  0.00    -0.316 OA
ATOM     20  C   UNL     1      33.781 -11.617 -22.758  0.00  0.00    +0.169 C 
ATOM     21  C   UNL     1      34.285 -11.700 -24.202  0.00  0.00    +0.173 C 
ATOM     22  C   UNL     1      33.608 -13.025 -22.174  0.00  0.00    +0.177 C 
ATOM     23  C   UNL     1      33.381 -12.617 -25.025  0.00  0.00    +0.210 C 
ATOM     24  C   UNL     1      33.229 -13.979 -24.343  0.00  0.00    +0.318 C 
BRANCH  21  25
ATOM     25  O   UNL     1      34.298 -10.402 -24.789  0.00  0.00    -0.379 OA
ATOM     26  H   UNL     1      34.212 -10.481 -25.752  0.00  0.00    +0.211 HD
ENDBRANCH  21  25
BRANCH  20  27
ATOM     27  O   UNL     1      32.519 -10.946 -22.731  0.00  0.00    -0.379 OA
ATOM     28  H   UNL     1      32.640 -10.043 -22.397  0.00  0.00    +0.211 HD
ENDBRANCH  20  27
BRANCH  23  29
ATOM     29  O   UNL     1      33.920 -12.803 -26.330  0.00  0.00    -0.377 OA
ATOM     30  H   UNL     1      33.531 -12.152 -26.936  0.00  0.00    +0.211 HD
ENDBRANCH  23  29
BRANCH  22  31
ATOM     31  C   UNL     1      32.993 -13.003 -20.779  0.00  0.00    +0.169 C 
BRANCH  31  32
ATOM     32  O   UNL     1      31.585 -12.917 -20.907  0.00  0.00    -0.379 OA
ATOM     33  H   UNL     1      31.362 -12.351 -21.661  0.00  0.00    +0.211 HD
ENDBRANCH  31  32
ENDBRANCH  22  31
ENDBRANCH  18  24
ENDBRANCH   1  18
TORSDOF 10
ENDMDL
MODEL 8
REMARK VINA RESULT:     -10.3      7.238     12.392
REMARK  Name = 445579
REMARK  10 active torsions:
REMARK  status: ('A' for Active; 'I' for Inactive)
REMARK    1  A    between atoms: C_1  and  O_18
REMARK    2  A    between atoms: C_4  and  C_9
REMARK    3  A    between atoms: N_8  and  C_11
REMARK    4  A    between atoms: C_11  and  C_12
REMARK    5  A    between atoms: O_18  and  C_24
REMARK    6  A    between atoms: C_20  and  O_27
REMARK    7  A    between atoms: C_21  and  O_25
REMARK    8  A    between atoms: C_22  and  C_31
REMARK    9  A    between atoms: C_23  and  O_29
REMARK   10  A    between atoms: C_31  and  O_32
REMARK                            x       y       z     vdW  Elec       q    Type
REMARK                         _______ _______ _______ _____ _____    ______ ____
ROOT
ATOM      1  C   UNL     1      34.514 -15.041 -23.693  0.00  0.00    +0.142 C 
ATOM      2  C   UNL     1      34.989 -15.633 -22.526  0.00  0.00    +0.042 C 
ATOM      3  C   UNL     1      34.086 -15.825 -24.760  0.00  0.00    +0.037 C 
ATOM      4  C   UNL     1      35.037 -17.024 -22.427  0.00  0.00    +0.056 C 
ATOM      5  C   UNL     1      34.133 -17.215 -24.659  0.00  0.00    +0.003 C 
ATOM      6  C   UNL     1      34.608 -17.815 -23.493  0.00  0.00    +0.005 C 
ENDROOT
BRANCH   4   9
ATOM      7  O   UNL     1      35.524 -17.057 -20.121  0.00  0.00    -0.270 OA
ATOM      8  N   UNL     1      35.983 -18.963 -21.334  0.00  0.00    -0.297 N 
ATOM      9  C   UNL     1      35.531 -17.648 -21.210  0.00  0.00    +0.246 C 
ATOM     10  H   UNL     1      35.966 -19.387 -22.224  0.00  0.00    +0.150 HD
BRANCH   8  11
ATOM     11  C   UNL     1      36.474 -19.729 -20.212  0.00  0.00    +0.117 C 
BRANCH  11  12
ATOM     12  C   UNL     1      35.397 -20.569 -19.589  0.00  0.00    -0.003 C 
ATOM     13  C   UNL     1      34.071 -20.368 -19.955  0.00  0.00    -0.003 C 
ATOM     14  C   UNL     1      35.735 -21.538 -18.651  0.00  0.00    -0.003 C 
ATOM     15  C   UNL     1      33.069 -21.148 -19.376  0.00  0.00    -0.000 C 
ATOM     16  C   UNL     1      34.733 -22.318 -18.073  0.00  0.00    -0.000 C 
ATOM     17  C   UNL     1      33.401 -22.123 -18.436  0.00  0.00    -0.000 C 
ENDBRANCH  11  12
ENDBRANCH   8  11
ENDBRANCH   4   9
BRANCH   1  18
ATOM     18  O   UNL     1      34.468 -13.677 -23.791  0.00  0.00    -0.451 OA
BRANCH  18  24
ATOM     19  O   UNL     1      32.369 -13.200 -22.806  0.00  0.00    -0.316 OA
ATOM     20  C   UNL     1      33.027 -10.993 -21.990  0.00  0.00    +0.169 C 
ATOM     21  C   UNL     1      33.874 -10.788 -23.250  0.00  0.00    +0.173 C 
ATOM     22  C   UNL     1      32.896 -12.489 -21.675  0.00  0.00    +0.177 C 
ATOM     23  C   UNL     1      33.320 -11.628 -24.400  0.00  0.00    +0.210 C 
ATOM     24  C   UNL     1      33.180 -13.093 -23.979  0.00  0.00    +0.318 C 
BRANCH  21  25
ATOM     25  O   UNL     1      33.865  -9.413 -23.624  0.00  0.00    -0.379 OA
ATOM     26  H   UNL     1      32.950  -9.119 -23.757  0.00  0.00    +0.211 HD
ENDBRANCH  21  25
BRANCH  20  27
ATOM     27  O   UNL     1      31.722 -10.448 -22.198  0.00  0.00    -0.379 OA
ATOM     28  H   UNL     1      31.786  -9.485 -22.303  0.00  0.00    +0.211 HD
ENDBRANCH  20  27
BRANCH  23  29
ATOM     29  O   UNL     1      34.180 -11.544 -25.532  0.00  0.00    -0.377 OA
ATOM     30  H   UNL     1      34.090 -12.349 -26.067  0.00  0.00    +0.211 HD
ENDBRANCH  23  29
BRANCH  22  31
ATOM     31  C   UNL     1      31.963 -12.755 -20.500  0.00  0.00    +0.169 C 
BRANCH  31  32
ATOM     32  O   UNL     1      32.074 -11.683 -19.581  0.00  0.00    -0.379 OA
ATOM     33  H   UNL     1      32.511 -10.933 -20.011  0.00  0.00    +0.211 HD
ENDBRANCH  31  32
ENDBRANCH  22  31
ENDBRANCH  18  24
ENDBRANCH   1  18
TORSDOF 10
ENDMDL
MODEL 9
REMARK VINA RESULT:     -10.2      1.413      2.845
REMARK  Name = 445579
REMARK  10 active torsions:
REMARK  status: ('A' for Active; 'I' for Inactive)
REMARK    1  A    between atoms: C_1  and  O_18
REMARK    2  A    between atoms: C_4  and  C_9
REMARK    3  A    between atoms: N_8  and  C_11
REMARK    4  A    between atoms: C_11  and  C_12
REMARK    5  A    between atoms: O_18  and  C_24
REMARK    6  A    between atoms: C_20  and  O_27
REMARK    7  A    between atoms: C_21  and  O_25
REMARK    8  A    between atoms: C_22  and  C_31
REMARK    9  A    between atoms: C_23  and  O_29
REMARK   10  A    between atoms: C_31  and  O_32
REMARK                            x       y       z     vdW  Elec       q    Type
REMARK                         _______ _______ _______ _____ _____    ______ ____
ROOT
ATOM      1  C   UNL     1      34.769 -23.454 -13.623  0.00  0.00    +0.142 C 
ATOM      2  C   UNL     1      34.384 -23.086 -14.908  0.00  0.00    +0.042 C 
ATOM      3  C   UNL     1      33.824 -23.898 -12.702  0.00  0.00    +0.037 C 
ATOM      4  C   UNL     1      33.040 -23.160 -15.276  0.00  0.00    +0.056 C 
ATOM      5  C   UNL     1      32.482 -23.972 -13.071  0.00  0.00    +0.003 C 
ATOM      6  C   UNL     1      32.089 -23.604 -14.357  0.00  0.00    +0.005 C 
ENDROOT
BRANCH   4   9
ATOM      7  O   UNL     1      31.445 -22.570 -16.908  0.00  0.00    -0.270 OA
ATOM      8  N   UNL     1      33.658 -22.623 -17.552  0.00  0.00    -0.297 N 
ATOM      9  C   UNL     1      32.632 -22.777 -16.619  0.00  0.00    +0.246 C 
ATOM     10  H   UNL     1      34.585 -22.799 -17.269  0.00  0.00    +0.150 HD
BRANCH   8  11
ATOM     11  C   UNL     1      33.417 -22.215 -18.918  0.00  0.00    +0.117 C 
BRANCH  11  12
ATOM     12  C   UNL     1      34.445 -21.235 -19.402  0.00  0.00    -0.003 C 
ATOM     13  C   UNL     1      35.780 -21.409 -19.053  0.00  0.00    -0.003 C 
ATOM     14  C   UNL     1      34.053 -20.161 -20.193  0.00  0.00    -0.003 C 
ATOM     15  C   UNL     1      36.735 -20.497 -19.502  0.00  0.00    -0.000 C 
ATOM     16  C   UNL     1      35.009 -19.250 -20.643  0.00  0.00    -0.000 C 
ATOM     17  C   UNL     1      36.350 -19.418 -20.297  0.00  0.00    -0.000 C 
ENDBRANCH  11  12
ENDBRANCH   8  11
ENDBRANCH   4   9
BRANCH   1  18
ATOM     18  O   UNL     1      36.087 -23.381 -13.262  0.00  0.00    -0.451 OA
BRANCH  18  24
ATOM     19  O   UNL     1      36.243 -25.742 -13.208  0.00  0.00    -0.316 OA
ATOM     20  C   UNL     1      38.272 -25.840 -14.568  0.00  0.00    +0.169 C 
ATOM     21  C   UNL     1      38.772 -24.555 -13.901  0.00  0.00    +0.173 C 
ATOM     22  C   UNL     1      36.738 -25.887 -14.549  0.00  0.00    +0.177 C 
ATOM     23  C   UNL     1      38.153 -24.407 -12.511  0.00  0.00    +0.210 C 
ATOM     24  C   UNL     1      36.628 -24.514 -12.585  0.00  0.00    +0.318 C 
BRANCH  21  25
ATOM     25  O   UNL     1      40.191 -24.587 -13.783  0.00  0.00    -0.379 OA
ATOM     26  H   UNL     1      40.584 -24.772 -14.651  0.00  0.00    +0.211 HD
ENDBRANCH  21  25
BRANCH  20  27
ATOM     27  O   UNL     1      38.778 -26.974 -13.859  0.00  0.00    -0.379 OA
ATOM     28  H   UNL     1      38.114 -27.681 -13.864  0.00  0.00    +0.211 HD
ENDBRANCH  20  27
BRANCH  23  29
ATOM     29  O   UNL     1      38.509 -23.151 -11.943  0.00  0.00    -0.377 OA
ATOM     30  H   UNL     1      38.518 -23.224 -10.975  0.00  0.00    +0.211 HD
ENDBRANCH  23  29
BRANCH  22  31
ATOM     31  C   UNL     1      36.191 -27.202 -15.092  0.00  0.00    +0.169 C 
BRANCH  31  32
ATOM     32  O   UNL     1      36.854 -27.501 -16.308  0.00  0.00    -0.379 OA
ATOM     33  H   UNL     1      36.338 -28.153 -16.805  0.00  0.00    +0.211 HD
ENDBRANCH  31  32
ENDBRANCH  22  31
ENDBRANCH  18  24
ENDBRANCH   1  18
TORSDOF 10
ENDMDL
