MODEL 1
REMARK VINA RESULT:     -12.7      0.000      0.000
REMARK  Name = 24752833
REMARK  4 active torsions:
REMARK  status: ('A' for Active; 'I' for Inactive)
REMARK    1  A    between atoms: C_1  and  N_8
REMARK    2  A    between atoms: C_2  and  N_23
REMARK    3  A    between atoms: C_9  and  C_14
REMARK    4  A    between atoms: C_24  and  C_28
REMARK                            x       y       z     vdW  Elec       q    Type
REMARK                         _______ _______ _______ _____ _____    ______ ____
ROOT
ATOM      1  C   UNL     1      31.316 -23.087 -14.864  0.00  0.00    +0.090 C 
ATOM      2  C   UNL     1      30.885 -23.184 -16.338  0.00  0.00    +0.090 C 
ATOM      3  C   UNL     1      30.366 -23.870 -13.952  0.00  0.00    +0.021 C 
ATOM      4  C   UNL     1      29.417 -22.787 -16.524  0.00  0.00    +0.021 C 
ATOM      5  C   UNL     1      28.911 -23.457 -14.149  0.00  0.00    +0.002 C 
ATOM      6  C   UNL     1      28.491 -23.583 -15.609  0.00  0.00    +0.002 C 
ENDROOT
BRANCH   1   8
ATOM      7  O   UNL     1      32.762 -23.253 -12.389  0.00  0.00    -0.267 OA
ATOM      8  N   UNL     1      32.671 -23.562 -14.685  0.00  0.00    -0.298 N 
ATOM      9  C   UNL     1      33.284 -23.605 -13.443  0.00  0.00    +0.282 C 
ATOM     10  H   UNL     1      33.175 -23.868 -15.474  0.00  0.00    +0.150 HD
BRANCH   9  14
ATOM     11  S   UNL     1      35.735 -23.771 -14.757  0.00  0.00    -0.074 S 
ATOM     12  N   UNL     1      39.027 -25.904 -13.708  0.00  0.00    +0.387 N 
ATOM     13  N   UNL     1      35.196 -24.787 -12.431  0.00  0.00    -0.399 NA
ATOM     14  C   UNL     1      34.687 -24.095 -13.430  0.00  0.00    +0.210 C 
ATOM     15  C   UNL     1      36.507 -25.081 -12.732  0.00  0.00    +0.093 C 
ATOM     16  C   UNL     1      36.963 -24.619 -13.948  0.00  0.00    +0.082 C 
ATOM     17  C   UNL     1      37.377 -25.875 -11.824  0.00  0.00    +0.032 C 
ATOM     18  C   UNL     1      38.355 -24.811 -14.452  0.00  0.00    -0.059 C 
ATOM     19  C   UNL     1      38.861 -25.754 -12.244  0.00  0.00    -0.070 C 
ATOM     20  C   UNL     1      40.444 -25.963 -14.064  0.00  0.00    -0.101 C 
ATOM     21  H   UNL     1      38.583 -26.783 -13.975  0.00  0.00    -0.080 HD
ENDBRANCH   9  14
ENDBRANCH   1   8
BRANCH   2  23
ATOM     22  O   UNL     1      33.363 -23.956 -17.565  0.00  0.00    -0.269 OA
ATOM     23  N   UNL     1      31.725 -22.362 -17.180  0.00  0.00    -0.300 N 
ATOM     24  C   UNL     1      32.909 -22.826 -17.728  0.00  0.00    +0.259 C 
ATOM     25  H   UNL     1      31.445 -21.437 -17.372  0.00  0.00    +0.150 HD
BRANCH  24  28
ATOM     26 CL   UNL     1      35.895 -17.449 -22.399  0.00  0.00    -0.082 Cl
ATOM     27  N   UNL     1      35.031 -21.711 -18.498  0.00  0.00    -0.309 N 
ATOM     28  C   UNL     1      33.670 -21.849 -18.550  0.00  0.00    +0.102 C 
ATOM     29  C   UNL     1      33.185 -20.946 -19.467  0.00  0.00    +0.020 C 
ATOM     30  C   UNL     1      35.441 -20.728 -19.370  0.00  0.00    +0.048 C 
ATOM     31  C   UNL     1      34.295 -20.228 -19.995  0.00  0.00    +0.016 C 
ATOM     32  C   UNL     1      36.724 -20.247 -19.651  0.00  0.00    +0.015 C 
ATOM     33  C   UNL     1      34.436 -19.199 -20.946  0.00  0.00    +0.013 C 
ATOM     34  C   UNL     1      35.714 -18.708 -21.238  0.00  0.00    +0.058 C 
ATOM     35  C   UNL     1      36.839 -19.225 -20.599  0.00  0.00    +0.013 C 
ATOM     36  H   UNL     1      35.629 -22.238 -17.922  0.00  0.00    +0.152 HD
ENDBRANCH  24  28
ENDBRANCH   2  23
TORSDOF 4
ENDMDL
