MODEL 1
REMARK VINA RESULT:     -12.3      0.000      0.000
REMARK  Name = 5291
REMARK  6 active torsions:
REMARK  status: ('A' for Active; 'I' for Inactive)
REMARK    1  A    between atoms: C_1  and  N_23
REMARK    2  A    between atoms: C_2  and  N_8
REMARK    3  A    between atoms: C_12  and  C_17
REMARK    4  A    between atoms: C_24  and  C_31
REMARK    5  A    between atoms: C_26  and  C_32
REMARK    6  A    between atoms: C_32  and  N_33
REMARK                            x       y       z     vdW  Elec       q    Type
REMARK                         _______ _______ _______ _____ _____    ______ ____
ROOT
ATOM      1  C   UNL     1      32.921 -22.906 -15.936  0.00  0.00    +0.052 C 
ATOM      2  C   UNL     1      32.891 -23.640 -13.654  0.00  0.00    +0.055 C 
ATOM      3  C   UNL     1      33.469 -22.873 -14.664  0.00  0.00    +0.030 C 
ATOM      4  C   UNL     1      31.774 -24.429 -13.929  0.00  0.00    -0.008 C 
ATOM      5  C   UNL     1      31.813 -23.683 -16.226  0.00  0.00    +0.014 C 
ATOM      6  C   UNL     1      31.236 -24.451 -15.215  0.00  0.00    -0.002 C 
ATOM      7  C   UNL     1      31.136 -25.262 -12.865  0.00  0.00    +0.032 C 
ENDROOT
BRANCH   2   8
ATOM      8  N   UNL     1      33.449 -23.607 -12.356  0.00  0.00    -0.248 N 
ATOM      9  N   UNL     1      35.710 -24.054 -12.800  0.00  0.00    -0.337 NA
ATOM     10  N   UNL     1      34.941 -23.687 -10.546  0.00  0.00    -0.170 NA
ATOM     11  C   UNL     1      34.760 -23.791 -11.879  0.00  0.00    +0.149 C 
ATOM     12  C   UNL     1      36.954 -24.226 -12.309  0.00  0.00    +0.147 C 
ATOM     13  C   UNL     1      37.266 -24.144 -10.967  0.00  0.00    +0.055 C 
ATOM     14  C   UNL     1      36.209 -23.870 -10.123  0.00  0.00    +0.114 C 
ATOM     15  H   UNL     1      32.793 -23.416 -11.648  0.00  0.00    +0.165 HD
BRANCH  12  17
ATOM     16  N   UNL     1      39.036 -23.921 -15.385  0.00  0.00    -0.242 NA
ATOM     17  C   UNL     1      37.969 -24.506 -13.295  0.00  0.00    +0.050 C 
ATOM     18  C   UNL     1      38.842 -25.579 -13.143  0.00  0.00    +0.006 C 
ATOM     19  C   UNL     1      38.108 -23.715 -14.424  0.00  0.00    +0.101 C 
ATOM     20  C   UNL     1      39.810 -25.824 -14.110  0.00  0.00    +0.021 C 
ATOM     21  C   UNL     1      39.865 -24.973 -15.202  0.00  0.00    +0.099 C 
ENDBRANCH  12  17
ENDBRANCH   2   8
BRANCH   1  23
ATOM     22  O   UNL     1      33.855 -23.693 -18.674  0.00  0.00    -0.270 OA
ATOM     23  N   UNL     1      33.506 -22.126 -16.962  0.00  0.00    -0.280 N 
ATOM     24  C   UNL     1      33.931 -22.534 -18.235  0.00  0.00    +0.249 C 
ATOM     25  H   UNL     1      33.632 -21.172 -16.755  0.00  0.00    +0.155 HD
BRANCH  24  31
ATOM     26  C   UNL     1      35.660 -19.526 -20.654  0.00  0.00    -0.043 C 
ATOM     27  C   UNL     1      36.480 -20.334 -19.880  0.00  0.00    -0.006 C 
ATOM     28  C   UNL     1      34.282 -19.689 -20.647  0.00  0.00    -0.006 C 
ATOM     29  C   UNL     1      35.910 -21.326 -19.083  0.00  0.00    +0.004 C 
ATOM     30  C   UNL     1      33.712 -20.681 -19.850  0.00  0.00    +0.004 C 
ATOM     31  C   UNL     1      34.525 -21.501 -19.068  0.00  0.00    +0.054 C 
BRANCH  26  32
ATOM     32  C   UNL     1      36.275 -18.455 -21.515  0.00  0.00    -0.050 C 
BRANCH  32  33
ATOM     33  N   UNL     1      35.261 -17.688 -22.238  0.00  0.00    +0.387 N 
ATOM     34  N   UNL     1      34.397 -15.880 -24.322  0.00  0.00    +0.383 N 
ATOM     35  C   UNL     1      35.179 -18.123 -23.638  0.00  0.00    -0.100 C 
ATOM     36  C   UNL     1      35.542 -16.250 -22.163  0.00  0.00    -0.100 C 
ATOM     37  C   UNL     1      34.116 -17.319 -24.397  0.00  0.00    -0.101 C 
ATOM     38  C   UNL     1      34.482 -15.445 -22.922  0.00  0.00    -0.101 C 
ATOM     39  C   UNL     1      33.382 -15.115 -25.043  0.00  0.00    -0.101 C 
ATOM     40  H   UNL     1      34.360 -17.864 -21.794  0.00  0.00    -0.079 HD
ATOM     41  H   UNL     1      35.298 -15.705 -24.766  0.00  0.00    -0.080 HD
ENDBRANCH  32  33
ENDBRANCH  26  32
ENDBRANCH  24  31
ENDBRANCH   1  23
TORSDOF 6
ENDMDL
MODEL 2
REMARK VINA RESULT:     -12.0      1.442      2.129
REMARK  Name = 5291
REMARK  6 active torsions:
REMARK  status: ('A' for Active; 'I' for Inactive)
REMARK    1  A    between atoms: C_1  and  N_23
REMARK    2  A    between atoms: C_2  and  N_8
REMARK    3  A    between atoms: C_12  and  C_17
REMARK    4  A    between atoms: C_24  and  C_31
REMARK    5  A    between atoms: C_26  and  C_32
REMARK    6  A    between atoms: C_32  and  N_33
REMARK                            x       y       z     vdW  Elec       q    Type
REMARK                         _______ _______ _______ _____ _____    ______ ____
ROOT
ATOM      1  C   UNL     1      31.551 -22.702 -16.477  0.00  0.00    +0.052 C 
ATOM      2  C   UNL     1      31.514 -23.771 -14.331  0.00  0.00    +0.055 C 
ATOM      3  C   UNL     1      32.219 -23.104 -15.332  0.00  0.00    +0.030 C 
ATOM      4  C   UNL     1      30.152 -24.028 -14.490  0.00  0.00    -0.008 C 
ATOM      5  C   UNL     1      30.200 -22.949 -16.650  0.00  0.00    +0.014 C 
ATOM      6  C   UNL     1      29.496 -23.618 -15.649  0.00  0.00    -0.002 C 
ATOM      7  C   UNL     1      29.373 -24.742 -13.434  0.00  0.00    +0.032 C 
ENDROOT
BRANCH   2   8
ATOM      8  N   UNL     1      32.194 -24.180 -13.162  0.00  0.00    -0.248 N 
ATOM      9  N   UNL     1      34.427 -23.738 -13.734  0.00  0.00    -0.337 NA
ATOM     10  N   UNL     1      33.860 -24.662 -11.582  0.00  0.00    -0.170 NA
ATOM     11  C   UNL     1      33.556 -24.194 -12.810  0.00  0.00    +0.149 C 
ATOM     12  C   UNL     1      35.724 -23.767 -13.364  0.00  0.00    +0.147 C 
ATOM     13  C   UNL     1      36.161 -24.222 -12.137  0.00  0.00    +0.055 C 
ATOM     14  C   UNL     1      35.176 -24.663 -11.278  0.00  0.00    +0.114 C 
ATOM     15  H   UNL     1      31.599 -24.520 -12.456  0.00  0.00    +0.165 HD
BRANCH  12  17
ATOM     16  N   UNL     1      38.845 -23.408 -15.370  0.00  0.00    -0.242 NA
ATOM     17  C   UNL     1      36.655 -23.279 -14.353  0.00  0.00    +0.050 C 
ATOM     18  C   UNL     1      36.304 -22.252 -15.224  0.00  0.00    +0.006 C 
ATOM     19  C   UNL     1      37.926 -23.818 -14.467  0.00  0.00    +0.101 C 
ATOM     20  C   UNL     1      37.222 -21.803 -16.166  0.00  0.00    +0.021 C 
ATOM     21  C   UNL     1      38.468 -22.408 -16.198  0.00  0.00    +0.099 C 
ENDBRANCH  12  17
ENDBRANCH   2   8
BRANCH   1  23
ATOM     22  O   UNL     1      34.175 -23.360 -17.770  0.00  0.00    -0.270 OA
ATOM     23  N   UNL     1      32.266 -22.023 -17.493  0.00  0.00    -0.280 N 
ATOM     24  C   UNL     1      33.496 -22.366 -18.073  0.00  0.00    +0.249 C 
ATOM     25  H   UNL     1      31.845 -21.203 -17.838  0.00  0.00    +0.155 HD
BRANCH  24  31
ATOM     26  C   UNL     1      34.953 -19.705 -21.021  0.00  0.00    -0.043 C 
ATOM     27  C   UNL     1      33.585 -19.821 -20.822  0.00  0.00    -0.006 C 
ATOM     28  C   UNL     1      35.851 -20.449 -20.267  0.00  0.00    -0.006 C 
ATOM     29  C   UNL     1      33.105 -20.698 -19.850  0.00  0.00    +0.004 C 
ATOM     30  C   UNL     1      35.371 -21.326 -19.295  0.00  0.00    +0.004 C 
ATOM     31  C   UNL     1      33.998 -21.450 -19.086  0.00  0.00    +0.054 C 
BRANCH  26  32
ATOM     32  C   UNL     1      35.473 -18.758 -22.069  0.00  0.00    -0.050 C 
BRANCH  32  33
ATOM     33  N   UNL     1      34.819 -17.452 -21.996  0.00  0.00    +0.387 N 
ATOM     34  N   UNL     1      34.818 -14.562 -22.078  0.00  0.00    +0.383 N 
ATOM     35  C   UNL     1      34.961 -16.726 -23.264  0.00  0.00    -0.100 C 
ATOM     36  C   UNL     1      35.361 -16.659 -20.887  0.00  0.00    -0.100 C 
ATOM     37  C   UNL     1      34.276 -15.357 -23.187  0.00  0.00    -0.101 C 
ATOM     38  C   UNL     1      34.678 -15.289 -20.810  0.00  0.00    -0.101 C 
ATOM     39  C   UNL     1      34.162 -13.259 -22.005  0.00  0.00    -0.101 C 
ATOM     40  H   UNL     1      33.826 -17.608 -21.825  0.00  0.00    -0.079 HD
ATOM     41  H   UNL     1      35.811 -14.406 -22.250  0.00  0.00    -0.080 HD
ENDBRANCH  32  33
ENDBRANCH  26  32
ENDBRANCH  24  31
ENDBRANCH   1  23
TORSDOF 6
ENDMDL
MODEL 3
REMARK VINA RESULT:     -11.3      2.977      5.954
REMARK  Name = 5291
REMARK  6 active torsions:
REMARK  status: ('A' for Active; 'I' for Inactive)
REMARK    1  A    between atoms: C_1  and  N_23
REMARK    2  A    between atoms: C_2  and  N_8
REMARK    3  A    between atoms: C_12  and  C_17
REMARK    4  A    between atoms: C_24  and  C_31
REMARK    5  A    between atoms: C_26  and  C_32
REMARK    6  A    between atoms: C_32  and  N_33
REMARK                            x       y       z     vdW  Elec       q    Type
REMARK                         _______ _______ _______ _____ _____    ______ ____
ROOT
ATOM      1  C   UNL     1      34.269 -20.038 -20.044  0.00  0.00    +0.052 C 
ATOM      2  C   UNL     1      33.074 -21.659 -18.742  0.00  0.00    +0.055 C 
ATOM      3  C   UNL     1      33.112 -20.423 -19.387  0.00  0.00    +0.030 C 
ATOM      4  C   UNL     1      34.194 -22.491 -18.764  0.00  0.00    -0.008 C 
ATOM      5  C   UNL     1      35.388 -20.851 -20.075  0.00  0.00    +0.014 C 
ATOM      6  C   UNL     1      35.350 -22.087 -19.429  0.00  0.00    -0.002 C 
ATOM      7  C   UNL     1      34.182 -23.820 -18.080  0.00  0.00    +0.032 C 
ENDROOT
BRANCH   2   8
ATOM      8  N   UNL     1      31.895 -22.054 -18.073  0.00  0.00    -0.248 N 
ATOM      9  N   UNL     1      32.743 -22.782 -16.009  0.00  0.00    -0.337 NA
ATOM     10  N   UNL     1      30.379 -22.856 -16.471  0.00  0.00    -0.170 NA
ATOM     11  C   UNL     1      31.661 -22.588 -16.792  0.00  0.00    +0.149 C 
ATOM     12  C   UNL     1      32.484 -23.297 -14.789  0.00  0.00    +0.147 C 
ATOM     13  C   UNL     1      31.216 -23.612 -14.344  0.00  0.00    +0.055 C 
ATOM     14  C   UNL     1      30.192 -23.369 -15.236  0.00  0.00    +0.114 C 
ATOM     15  H   UNL     1      31.076 -21.929 -18.605  0.00  0.00    +0.165 HD
BRANCH  12  17
ATOM     16  N   UNL     1      34.565 -24.305 -11.866  0.00  0.00    -0.242 NA
ATOM     17  C   UNL     1      33.641 -23.503 -13.952  0.00  0.00    +0.050 C 
ATOM     18  C   UNL     1      34.911 -23.126 -14.378  0.00  0.00    +0.006 C 
ATOM     19  C   UNL     1      33.524 -24.083 -12.699  0.00  0.00    +0.101 C 
ATOM     20  C   UNL     1      36.007 -23.338 -13.549  0.00  0.00    +0.021 C 
ATOM     21  C   UNL     1      35.783 -23.925 -12.314  0.00  0.00    +0.099 C 
ENDBRANCH  12  17
ENDBRANCH   2   8
BRANCH   1  23
ATOM     22  O   UNL     1      36.420 -17.950 -20.109  0.00  0.00    -0.270 OA
ATOM     23  N   UNL     1      34.307 -18.783 -20.699  0.00  0.00    -0.280 N 
ATOM     24  C   UNL     1      35.337 -17.831 -20.705  0.00  0.00    +0.249 C 
ATOM     25  H   UNL     1      33.505 -18.548 -21.220  0.00  0.00    +0.155 HD
BRANCH  24  31
ATOM     26  C   UNL     1      34.563 -14.290 -22.885  0.00  0.00    -0.043 C 
ATOM     27  C   UNL     1      34.608 -14.243 -21.499  0.00  0.00    -0.006 C 
ATOM     28  C   UNL     1      34.768 -15.481 -23.567  0.00  0.00    -0.006 C 
ATOM     29  C   UNL     1      34.864 -15.410 -20.780  0.00  0.00    +0.004 C 
ATOM     30  C   UNL     1      35.024 -16.649 -22.848  0.00  0.00    +0.004 C 
ATOM     31  C   UNL     1      35.072 -16.614 -21.455  0.00  0.00    +0.054 C 
BRANCH  26  32
ATOM     32  C   UNL     1      34.288 -13.030 -23.661  0.00  0.00    -0.050 C 
BRANCH  32  33
ATOM     33  N   UNL     1      33.813 -11.950 -22.797  0.00  0.00    +0.387 N 
ATOM     34  N   UNL     1      31.968  -9.840 -22.088  0.00  0.00    +0.383 N 
ATOM     35  C   UNL     1      32.475 -12.252 -22.274  0.00  0.00    -0.100 C 
ATOM     36  C   UNL     1      33.806 -10.672 -23.517  0.00  0.00    -0.100 C 
ATOM     37  C   UNL     1      31.976 -11.120 -21.369  0.00  0.00    -0.101 C 
ATOM     38  C   UNL     1      33.306  -9.539 -22.614  0.00  0.00    -0.101 C 
ATOM     39  C   UNL     1      31.496  -8.762 -21.223  0.00  0.00    -0.101 C 
ATOM     40  H   UNL     1      34.456 -11.873 -22.010  0.00  0.00    -0.079 HD
ATOM     41  H   UNL     1      31.325  -9.917 -22.875  0.00  0.00    -0.080 HD
ENDBRANCH  32  33
ENDBRANCH  26  32
ENDBRANCH  24  31
ENDBRANCH   1  23
TORSDOF 6
ENDMDL
MODEL 4
REMARK VINA RESULT:     -10.3      9.246     18.201
REMARK  Name = 5291
REMARK  6 active torsions:
REMARK  status: ('A' for Active; 'I' for Inactive)
REMARK    1  A    between atoms: C_1  and  N_23
REMARK    2  A    between atoms: C_2  and  N_8
REMARK    3  A    between atoms: C_12  and  C_17
REMARK    4  A    between atoms: C_24  and  C_31
REMARK    5  A    between atoms: C_26  and  C_32
REMARK    6  A    between atoms: C_32  and  N_33
REMARK                            x       y       z     vdW  Elec       q    Type
REMARK                         _______ _______ _______ _____ _____    ______ ____
ROOT
ATOM      1  C   UNL     1      32.667  -7.321 -22.298  0.00  0.00    +0.052 C 
ATOM      2  C   UNL     1      31.871  -5.106 -22.752  0.00  0.00    +0.055 C 
ATOM      3  C   UNL     1      32.090  -6.416 -23.174  0.00  0.00    +0.030 C 
ATOM      4  C   UNL     1      32.231  -4.719 -21.461  0.00  0.00    -0.008 C 
ATOM      5  C   UNL     1      33.031  -6.954 -21.015  0.00  0.00    +0.014 C 
ATOM      6  C   UNL     1      32.812  -5.643 -20.593  0.00  0.00    -0.002 C 
ATOM      7  C   UNL     1      32.009  -3.321 -20.983  0.00  0.00    +0.032 C 
ENDROOT
BRANCH   2   8
ATOM      8  N   UNL     1      31.281  -4.182 -23.643  0.00  0.00    -0.248 N 
ATOM      9  N   UNL     1      33.100  -3.620 -25.015  0.00  0.00    -0.337 NA
ATOM     10  N   UNL     1      30.930  -2.638 -25.374  0.00  0.00    -0.170 NA
ATOM     11  C   UNL     1      31.793  -3.446 -24.727  0.00  0.00    +0.149 C 
ATOM     12  C   UNL     1      33.559  -2.899 -26.059  0.00  0.00    +0.147 C 
ATOM     13  C   UNL     1      32.775  -2.039 -26.800  0.00  0.00    +0.055 C 
ATOM     14  C   UNL     1      31.455  -1.947 -26.408  0.00  0.00    +0.114 C 
ATOM     15  H   UNL     1      30.325  -4.023 -23.473  0.00  0.00    +0.165 HD
BRANCH  12  17
ATOM     16  N   UNL     1      37.048  -2.143 -27.131  0.00  0.00    -0.242 NA
ATOM     17  C   UNL     1      34.957  -3.087 -26.366  0.00  0.00    +0.050 C 
ATOM     18  C   UNL     1      35.566  -4.327 -26.210  0.00  0.00    +0.006 C 
ATOM     19  C   UNL     1      35.735  -2.036 -26.825  0.00  0.00    +0.101 C 
ATOM     20  C   UNL     1      36.914  -4.477 -26.514  0.00  0.00    +0.021 C 
ATOM     21  C   UNL     1      37.604  -3.364 -26.967  0.00  0.00    +0.099 C 
ENDBRANCH  12  17
ENDBRANCH   2   8
BRANCH   1  23
ATOM     22  O   UNL     1      31.603  -9.907 -21.216  0.00  0.00    -0.270 OA
ATOM     23  N   UNL     1      32.889  -8.652 -22.726  0.00  0.00    -0.280 N 
ATOM     24  C   UNL     1      32.370  -9.840 -22.191  0.00  0.00    +0.249 C 
ATOM     25  H   UNL     1      33.486  -8.759 -23.502  0.00  0.00    +0.155 HD
BRANCH  24  31
ATOM     26  C   UNL     1      33.630 -13.417 -24.065  0.00  0.00    -0.043 C 
ATOM     27  C   UNL     1      33.803 -12.205 -24.719  0.00  0.00    -0.006 C 
ATOM     28  C   UNL     1      33.051 -13.473 -22.805  0.00  0.00    -0.006 C 
ATOM     29  C   UNL     1      33.388 -11.026 -24.101  0.00  0.00    +0.004 C 
ATOM     30  C   UNL     1      32.636 -12.294 -22.186  0.00  0.00    +0.004 C 
ATOM     31  C   UNL     1      32.804 -11.070 -22.834  0.00  0.00    +0.054 C 
BRANCH  26  32
ATOM     32  C   UNL     1      34.079 -14.690 -24.731  0.00  0.00    -0.050 C 
BRANCH  32  33
ATOM     33  N   UNL     1      34.131 -15.808 -23.790  0.00  0.00    +0.387 N 
ATOM     34  N   UNL     1      35.372 -18.153 -22.641  0.00  0.00    +0.383 N 
ATOM     35  C   UNL     1      35.304 -15.697 -22.914  0.00  0.00    -0.100 C 
ATOM     36  C   UNL     1      34.144 -17.090 -24.504  0.00  0.00    -0.100 C 
ATOM     37  C   UNL     1      35.360 -16.870 -21.928  0.00  0.00    -0.101 C 
ATOM     38  C   UNL     1      34.200 -18.263 -23.520  0.00  0.00    -0.101 C 
ATOM     39  C   UNL     1      35.422 -19.269 -21.700  0.00  0.00    -0.101 C 
ATOM     40  H   UNL     1      33.292 -15.770 -23.212  0.00  0.00    -0.079 HD
ATOM     41  H   UNL     1      36.211 -18.191 -23.220  0.00  0.00    -0.080 HD
ENDBRANCH  32  33
ENDBRANCH  26  32
ENDBRANCH  24  31
ENDBRANCH   1  23
TORSDOF 6
ENDMDL
MODEL 5
REMARK VINA RESULT:     -10.0      5.993     11.220
REMARK  Name = 5291
REMARK  6 active torsions:
REMARK  status: ('A' for Active; 'I' for Inactive)
REMARK    1  A    between atoms: C_1  and  N_23
REMARK    2  A    between atoms: C_2  and  N_8
REMARK    3  A    between atoms: C_12  and  C_17
REMARK    4  A    between atoms: C_24  and  C_31
REMARK    5  A    between atoms: C_26  and  C_32
REMARK    6  A    between atoms: C_32  and  N_33
REMARK                            x       y       z     vdW  Elec       q    Type
REMARK                         _______ _______ _______ _____ _____    ______ ____
ROOT
ATOM      1  C   UNL     1      33.674 -14.375 -23.178  0.00  0.00    +0.052 C 
ATOM      2  C   UNL     1      35.172 -16.247 -23.147  0.00  0.00    +0.055 C 
ATOM      3  C   UNL     1      34.806 -14.990 -22.669  0.00  0.00    +0.030 C 
ATOM      4  C   UNL     1      34.401 -16.872 -24.128  0.00  0.00    -0.008 C 
ATOM      5  C   UNL     1      32.898 -14.981 -24.151  0.00  0.00    +0.014 C 
ATOM      6  C   UNL     1      33.265 -16.238 -24.630  0.00  0.00    -0.002 C 
ATOM      7  C   UNL     1      34.771 -18.218 -24.660  0.00  0.00    +0.032 C 
ENDROOT
BRANCH   2   8
ATOM      8  N   UNL     1      36.325 -16.876 -22.627  0.00  0.00    -0.248 N 
ATOM      9  N   UNL     1      35.385 -18.536 -21.261  0.00  0.00    -0.337 NA
ATOM     10  N   UNL     1      37.775 -18.299 -21.453  0.00  0.00    -0.170 NA
ATOM     11  C   UNL     1      36.503 -17.953 -21.740  0.00  0.00    +0.149 C 
ATOM     12  C   UNL     1      35.592 -19.565 -20.413  0.00  0.00    +0.147 C 
ATOM     13  C   UNL     1      36.843 -20.013 -20.042  0.00  0.00    +0.055 C 
ATOM     14  C   UNL     1      37.909 -19.335 -20.599  0.00  0.00    +0.114 C 
ATOM     15  H   UNL     1      37.169 -16.485 -22.950  0.00  0.00    +0.165 HD
BRANCH  12  17
ATOM     16  N   UNL     1      31.979 -20.256 -19.811  0.00  0.00    -0.242 NA
ATOM     17  C   UNL     1      34.395 -20.188 -19.902  0.00  0.00    +0.050 C 
ATOM     18  C   UNL     1      34.465 -21.280 -19.042  0.00  0.00    +0.006 C 
ATOM     19  C   UNL     1      33.139 -19.719 -20.252  0.00  0.00    +0.101 C 
ATOM     20  C   UNL     1      33.294 -21.859 -18.567  0.00  0.00    +0.021 C 
ATOM     21  C   UNL     1      32.088 -21.315 -18.977  0.00  0.00    +0.099 C 
ENDBRANCH  12  17
ENDBRANCH   2   8
BRANCH   1  23
ATOM     22  O   UNL     1      32.059 -13.616 -20.768  0.00  0.00    -0.270 OA
ATOM     23  N   UNL     1      33.302 -13.099 -22.691  0.00  0.00    -0.280 N 
ATOM     24  C   UNL     1      32.542 -12.785 -21.554  0.00  0.00    +0.249 C 
ATOM     25  H   UNL     1      33.617 -12.331 -23.220  0.00  0.00    +0.155 HD
BRANCH  24  31
ATOM     26  C   UNL     1      31.839  -8.668 -20.885  0.00  0.00    -0.043 C 
ATOM     27  C   UNL     1      32.338  -9.085 -22.111  0.00  0.00    -0.006 C 
ATOM     28  C   UNL     1      31.568  -9.581 -19.875  0.00  0.00    -0.006 C 
ATOM     29  C   UNL     1      32.569 -10.443 -22.331  0.00  0.00    +0.004 C 
ATOM     30  C   UNL     1      31.799 -10.939 -20.096  0.00  0.00    +0.004 C 
ATOM     31  C   UNL     1      32.299 -11.370 -21.324  0.00  0.00    +0.054 C 
BRANCH  26  32
ATOM     32  C   UNL     1      31.589  -7.203 -20.646  0.00  0.00    -0.050 C 
BRANCH  32  33
ATOM     33  N   UNL     1      31.673  -6.427 -21.882  0.00  0.00    +0.387 N 
ATOM     34  N   UNL     1      32.105  -3.984 -23.367  0.00  0.00    +0.383 N 
ATOM     35  C   UNL     1      33.020  -5.871 -22.058  0.00  0.00    -0.100 C 
ATOM     36  C   UNL     1      30.670  -5.355 -21.894  0.00  0.00    -0.100 C 
ATOM     37  C   UNL     1      33.108  -5.057 -23.354  0.00  0.00    -0.101 C 
ATOM     38  C   UNL     1      30.758  -4.540 -23.189  0.00  0.00    -0.101 C 
ATOM     39  C   UNL     1      32.189  -3.211 -24.604  0.00  0.00    -0.101 C 
ATOM     40  H   UNL     1      31.480  -7.057 -22.661  0.00  0.00    -0.079 HD
ATOM     41  H   UNL     1      32.298  -3.355 -22.589  0.00  0.00    -0.080 HD
ENDBRANCH  32  33
ENDBRANCH  26  32
ENDBRANCH  24  31
ENDBRANCH   1  23
TORSDOF 6
ENDMDL
MODEL 6
REMARK VINA RESULT:      -9.9      3.145      6.165
REMARK  Name = 5291
REMARK  6 active torsions:
REMARK  status: ('A' for Active; 'I' for Inactive)
REMARK    1  A    between atoms: C_1  and  N_23
REMARK    2  A    between atoms: C_2  and  N_8
REMARK    3  A    between atoms: C_12  and  C_17
REMARK    4  A    between atoms: C_24  and  C_31
REMARK    5  A    between atoms: C_26  and  C_32
REMARK    6  A    between atoms: C_32  and  N_33
REMARK                            x       y       z     vdW  Elec       q    Type
REMARK                         _______ _______ _______ _____ _____    ______ ____
ROOT
ATOM      1  C   UNL     1      34.184 -19.689 -20.211  0.00  0.00    +0.052 C 
ATOM      2  C   UNL     1      35.207 -21.314 -18.776  0.00  0.00    +0.055 C 
ATOM      3  C   UNL     1      35.250 -20.076 -19.416  0.00  0.00    +0.030 C 
ATOM      4  C   UNL     1      34.100 -22.147 -18.941  0.00  0.00    -0.008 C 
ATOM      5  C   UNL     1      33.078 -20.502 -20.385  0.00  0.00    +0.014 C 
ATOM      6  C   UNL     1      33.036 -21.741 -19.745  0.00  0.00    -0.002 C 
ATOM      7  C   UNL     1      34.029 -23.479 -18.268  0.00  0.00    +0.032 C 
ENDROOT
BRANCH   2   8
ATOM      8  N   UNL     1      36.293 -21.711 -17.964  0.00  0.00    -0.248 N 
ATOM      9  N   UNL     1      35.187 -22.593 -16.092  0.00  0.00    -0.337 NA
ATOM     10  N   UNL     1      37.594 -22.560 -16.205  0.00  0.00    -0.170 NA
ATOM     11  C   UNL     1      36.361 -22.316 -16.696  0.00  0.00    +0.149 C 
ATOM     12  C   UNL     1      35.288 -23.171 -14.877  0.00  0.00    +0.147 C 
ATOM     13  C   UNL     1      36.491 -23.472 -14.270  0.00  0.00    +0.055 C 
ATOM     14  C   UNL     1      37.622 -23.140 -14.987  0.00  0.00    +0.114 C 
ATOM     15  H   UNL     1      37.174 -21.530 -18.364  0.00  0.00    +0.165 HD
BRANCH  12  17
ATOM     16  N   UNL     1      32.845 -24.518 -12.406  0.00  0.00    -0.242 NA
ATOM     17  C   UNL     1      34.032 -23.468 -14.233  0.00  0.00    +0.050 C 
ATOM     18  C   UNL     1      32.827 -23.023 -14.768  0.00  0.00    +0.006 C 
ATOM     19  C   UNL     1      33.986 -24.205 -13.060  0.00  0.00    +0.101 C 
ATOM     20  C   UNL     1      31.633 -23.325 -14.124  0.00  0.00    +0.021 C 
ATOM     21  C   UNL     1      31.696 -24.068 -12.956  0.00  0.00    +0.099 C 
ENDBRANCH  12  17
ENDBRANCH   2   8
BRANCH   1  23
ATOM     22  O   UNL     1      36.335 -17.600 -20.250  0.00  0.00    -0.270 OA
ATOM     23  N   UNL     1      34.226 -18.431 -20.859  0.00  0.00    -0.280 N 
ATOM     24  C   UNL     1      35.256 -17.479 -20.853  0.00  0.00    +0.249 C 
ATOM     25  H   UNL     1      33.428 -18.193 -21.384  0.00  0.00    +0.155 HD
BRANCH  24  31
ATOM     26  C   UNL     1      34.497 -13.926 -23.019  0.00  0.00    -0.043 C 
ATOM     27  C   UNL     1      34.593 -13.875 -21.635  0.00  0.00    -0.006 C 
ATOM     28  C   UNL     1      34.647 -15.124 -23.702  0.00  0.00    -0.006 C 
ATOM     29  C   UNL     1      34.844 -15.047 -20.922  0.00  0.00    +0.004 C 
ATOM     30  C   UNL     1      34.898 -16.296 -22.989  0.00  0.00    +0.004 C 
ATOM     31  C   UNL     1      34.997 -16.257 -21.598  0.00  0.00    +0.054 C 
BRANCH  26  32
ATOM     32  C   UNL     1      34.228 -12.662 -23.790  0.00  0.00    -0.050 C 
BRANCH  32  33
ATOM     33  N   UNL     1      33.797 -11.571 -22.916  0.00  0.00    +0.387 N 
ATOM     34  N   UNL     1      32.025  -9.411 -22.173  0.00  0.00    +0.383 N 
ATOM     35  C   UNL     1      32.459 -11.836 -22.374  0.00  0.00    -0.100 C 
ATOM     36  C   UNL     1      33.815 -10.291 -23.633  0.00  0.00    -0.100 C 
ATOM     37  C   UNL     1      32.007 -10.693 -21.458  0.00  0.00    -0.101 C 
ATOM     38  C   UNL     1      33.362  -9.147 -22.719  0.00  0.00    -0.101 C 
ATOM     39  C   UNL     1      31.596  -8.322 -21.299  0.00  0.00    -0.101 C 
ATOM     40  H   UNL     1      34.454 -11.514 -22.139  0.00  0.00    -0.079 HD
ATOM     41  H   UNL     1      31.367  -9.468 -22.951  0.00  0.00    -0.080 HD
ENDBRANCH  32  33
ENDBRANCH  26  32
ENDBRANCH  24  31
ENDBRANCH   1  23
TORSDOF 6
ENDMDL
MODEL 7
REMARK VINA RESULT:      -9.7      3.478      6.840
REMARK  Name = 5291
REMARK  6 active torsions:
REMARK  status: ('A' for Active; 'I' for Inactive)
REMARK    1  A    between atoms: C_1  and  N_23
REMARK    2  A    between atoms: C_2  and  N_8
REMARK    3  A    between atoms: C_12  and  C_17
REMARK    4  A    between atoms: C_24  and  C_31
REMARK    5  A    between atoms: C_26  and  C_32
REMARK    6  A    between atoms: C_32  and  N_33
REMARK                            x       y       z     vdW  Elec       q    Type
REMARK                         _______ _______ _______ _____ _____    ______ ____
ROOT
ATOM      1  C   UNL     1      34.963 -18.602 -20.849  0.00  0.00    +0.052 C 
ATOM      2  C   UNL     1      34.169 -20.522 -19.653  0.00  0.00    +0.055 C 
ATOM      3  C   UNL     1      33.918 -19.291 -20.256  0.00  0.00    +0.030 C 
ATOM      4  C   UNL     1      35.462 -21.048 -19.652  0.00  0.00    -0.008 C 
ATOM      5  C   UNL     1      36.251 -19.109 -20.856  0.00  0.00    +0.014 C 
ATOM      6  C   UNL     1      36.502 -20.341 -20.252  0.00  0.00    -0.002 C 
ATOM      7  C   UNL     1      35.759 -22.365 -19.012  0.00  0.00    +0.032 C 
ENDROOT
BRANCH   2   8
ATOM      8  N   UNL     1      33.104 -21.227 -19.049  0.00  0.00    -0.248 N 
ATOM      9  N   UNL     1      34.171 -22.206 -17.202  0.00  0.00    -0.337 NA
ATOM     10  N   UNL     1      31.823 -22.564 -17.608  0.00  0.00    -0.170 NA
ATOM     11  C   UNL     1      33.029 -22.036 -17.900  0.00  0.00    +0.149 C 
ATOM     12  C   UNL     1      34.064 -22.987 -16.108  0.00  0.00    +0.147 C 
ATOM     13  C   UNL     1      32.886 -23.584 -15.704  0.00  0.00    +0.055 C 
ATOM     14  C   UNL     1      31.787 -23.335 -16.500  0.00  0.00    +0.114 C 
ATOM     15  H   UNL     1      32.247 -21.132 -19.523  0.00  0.00    +0.165 HD
BRANCH  12  17
ATOM     16  N   UNL     1      37.569 -22.492 -14.943  0.00  0.00    -0.242 NA
ATOM     17  C   UNL     1      35.285 -23.168 -15.361  0.00  0.00    +0.050 C 
ATOM     18  C   UNL     1      35.385 -24.142 -14.373  0.00  0.00    +0.006 C 
ATOM     19  C   UNL     1      36.396 -22.376 -15.605  0.00  0.00    +0.101 C 
ATOM     20  C   UNL     1      36.575 -24.291 -13.670  0.00  0.00    +0.021 C 
ATOM     21  C   UNL     1      37.628 -23.449 -13.990  0.00  0.00    +0.099 C 
ENDBRANCH  12  17
ENDBRANCH   2   8
BRANCH   1  23
ATOM     22  O   UNL     1      34.950 -17.832 -23.747  0.00  0.00    -0.270 OA
ATOM     23  N   UNL     1      34.708 -17.352 -21.462  0.00  0.00    -0.280 N 
ATOM     24  C   UNL     1      34.712 -17.031 -22.828  0.00  0.00    +0.249 C 
ATOM     25  H   UNL     1      34.501 -16.609 -20.850  0.00  0.00    +0.155 HD
BRANCH  24  31
ATOM     26  C   UNL     1      33.909 -12.988 -23.775  0.00  0.00    -0.043 C 
ATOM     27  C   UNL     1      34.567 -13.295 -22.593  0.00  0.00    -0.006 C 
ATOM     28  C   UNL     1      33.510 -13.988 -24.652  0.00  0.00    -0.006 C 
ATOM     29  C   UNL     1      34.832 -14.628 -22.281  0.00  0.00    +0.004 C 
ATOM     30  C   UNL     1      33.775 -15.321 -24.340  0.00  0.00    +0.004 C 
ATOM     31  C   UNL     1      34.437 -15.642 -23.155  0.00  0.00    +0.054 C 
BRANCH  26  32
ATOM     32  C   UNL     1      33.623 -11.549 -24.114  0.00  0.00    -0.050 C 
BRANCH  32  33
ATOM     33  N   UNL     1      33.465 -10.729 -22.914  0.00  0.00    +0.387 N 
ATOM     34  N   UNL     1      32.097  -8.756 -21.303  0.00  0.00    +0.383 N 
ATOM     35  C   UNL     1      32.206 -11.045 -22.228  0.00  0.00    -0.100 C 
ATOM     36  C   UNL     1      33.522  -9.301 -23.248  0.00  0.00    -0.100 C 
ATOM     37  C   UNL     1      32.040 -10.184 -20.971  0.00  0.00    -0.101 C 
ATOM     38  C   UNL     1      33.355  -8.439 -21.992  0.00  0.00    -0.101 C 
ATOM     39  C   UNL     1      31.940  -7.937 -20.104  0.00  0.00    -0.101 C 
ATOM     40  H   UNL     1      34.237 -10.943 -22.283  0.00  0.00    -0.079 HD
ATOM     41  H   UNL     1      31.324  -8.541 -21.934  0.00  0.00    -0.080 HD
ENDBRANCH  32  33
ENDBRANCH  26  32
ENDBRANCH  24  31
ENDBRANCH   1  23
TORSDOF 6
ENDMDL
