MODEL 1
REMARK VINA RESULT:     -11.5      0.000      0.000
REMARK  Name = 25113615
REMARK  7 active torsions:
REMARK  status: ('A' for Active; 'I' for Inactive)
REMARK    1  A    between atoms: N_2  and  C_20
REMARK    2  A    between atoms: C_3  and  C_7
REMARK    3  A    between atoms: C_11  and  C_12
REMARK    4  A    between atoms: C_12  and  C_13
REMARK    5  A    between atoms: C_13  and  C_14
REMARK    6  A    between atoms: C_20  and  C_21
REMARK    7  A    between atoms: C_26  and  C_29
REMARK                            x       y       z     vdW  Elec       q    Type
REMARK                         _______ _______ _______ _____ _____    ______ ____
ROOT
ATOM      1  O   UNL     1      34.708 -23.569 -12.749  0.00  0.00    -0.273 OA
ATOM      2  N   UNL     1      33.312 -25.066 -13.858  0.00  0.00    -0.299 N 
ATOM      3  C   UNL     1      34.496 -24.381 -13.647  0.00  0.00    +0.241 C 
ATOM      4  H   UNL     1      33.262 -25.694 -14.615  0.00  0.00    +0.150 HD
ENDROOT
BRANCH   3   7
ATOM      5  O   UNL     1      36.683 -21.630 -16.217  0.00  0.00    -0.275 OA
ATOM      6  N   UNL     1      36.302 -23.544 -14.981  0.00  0.00    -0.273 N 
ATOM      7  C   UNL     1      35.552 -24.752 -14.643  0.00  0.00    +0.152 C 
ATOM      8  C   UNL     1      36.588 -25.679 -14.012  0.00  0.00    +0.031 C 
ATOM      9  C   UNL     1      37.587 -24.714 -13.377  0.00  0.00    +0.024 C 
ATOM     10  C   UNL     1      37.619 -23.554 -14.359  0.00  0.00    +0.094 C 
ATOM     11  C   UNL     1      35.940 -22.555 -15.880  0.00  0.00    +0.226 C 
BRANCH  11  12
ATOM     12  C   UNL     1      34.550 -22.657 -16.457  0.00  0.00    +0.090 C 
BRANCH  12  13
ATOM     13  C   UNL     1      34.609 -23.028 -17.931  0.00  0.00    +0.036 C 
BRANCH  13  14
ATOM     14  C   UNL     1      34.419 -21.847 -18.851  0.00  0.00    -0.022 C 
ATOM     15  C   UNL     1      33.136 -21.369 -19.117  0.00  0.00    -0.004 C 
ATOM     16  C   UNL     1      35.526 -21.233 -19.437  0.00  0.00    -0.004 C 
ATOM     17  C   UNL     1      32.959 -20.277 -19.968  0.00  0.00    -0.000 C 
ATOM     18  C   UNL     1      35.350 -20.142 -20.287  0.00  0.00    -0.000 C 
ATOM     19  C   UNL     1      34.066 -19.664 -20.553  0.00  0.00    -0.000 C 
ENDBRANCH  13  14
ENDBRANCH  12  13
ENDBRANCH  11  12
ENDBRANCH   3   7
BRANCH   2  20
ATOM     20  C   UNL     1      32.145 -24.905 -13.021  0.00  0.00    +0.116 C 
BRANCH  20  21
ATOM     21  C   UNL     1      30.968 -24.384 -13.793  0.00  0.00    -0.003 C 
ATOM     22  C   UNL     1      30.796 -23.009 -13.958  0.00  0.00    -0.003 C 
ATOM     23  C   UNL     1      30.044 -25.273 -14.344  0.00  0.00    -0.003 C 
ATOM     24  C   UNL     1      29.700 -22.524 -14.673  0.00  0.00    +0.002 C 
ATOM     25  C   UNL     1      28.950 -24.788 -15.060  0.00  0.00    +0.002 C 
ATOM     26  C   UNL     1      28.778 -23.413 -15.224  0.00  0.00    +0.031 C 
BRANCH  26  29
ATOM     27  N   UNL     1      26.652 -22.138 -15.357  0.00  0.00    -0.343 N 
ATOM     28  N   UNL     1      27.521 -23.179 -17.259  0.00  0.00    -0.285 NA
ATOM     29  C   UNL     1      27.638 -22.907 -15.972  0.00  0.00    +0.117 C 
ATOM     30  H   UNL     1      25.888 -21.807 -15.881  0.00  0.00    +0.144 HD
ATOM     31  H   UNL     1      26.719 -21.928 -14.398  0.00  0.00    +0.144 HD
ATOM     32  H   UNL     1      26.750 -22.838 -17.766  0.00  0.00    +0.188 HD
ENDBRANCH  26  29
ENDBRANCH  20  21
ENDBRANCH   2  20
TORSDOF 7
ENDMDL
MODEL 2
REMARK VINA RESULT:     -11.2      2.712      6.508
REMARK  Name = 25113615
REMARK  7 active torsions:
REMARK  status: ('A' for Active; 'I' for Inactive)
REMARK    1  A    between atoms: N_2  and  C_20
REMARK    2  A    between atoms: C_3  and  C_7
REMARK    3  A    between atoms: C_11  and  C_12
REMARK    4  A    between atoms: C_12  and  C_13
REMARK    5  A    between atoms: C_13  and  C_14
REMARK    6  A    between atoms: C_20  and  C_21
REMARK    7  A    between atoms: C_26  and  C_29
REMARK                            x       y       z     vdW  Elec       q    Type
REMARK                         _______ _______ _______ _____ _____    ______ ____
ROOT
ATOM      1  O   UNL     1      34.936 -24.710 -15.637  0.00  0.00    -0.273 OA
ATOM      2  N   UNL     1      34.605 -22.543 -16.422  0.00  0.00    -0.299 N 
ATOM      3  C   UNL     1      35.022 -23.492 -15.503  0.00  0.00    +0.241 C 
ATOM      4  H   UNL     1      34.727 -21.592 -16.201  0.00  0.00    +0.150 HD
ENDROOT
BRANCH   3   7
ATOM      5  O   UNL     1      34.666 -24.952 -11.418  0.00  0.00    -0.275 OA
ATOM      6  N   UNL     1      35.627 -23.866 -13.216  0.00  0.00    -0.273 N 
ATOM      7  C   UNL     1      35.638 -22.871 -14.286  0.00  0.00    +0.152 C 
ATOM      8  C   UNL     1      37.118 -22.578 -14.520  0.00  0.00    +0.031 C 
ATOM      9  C   UNL     1      37.802 -23.891 -14.144  0.00  0.00    +0.024 C 
ATOM     10  C   UNL     1      36.963 -24.399 -12.982  0.00  0.00    +0.094 C 
ATOM     11  C   UNL     1      34.567 -24.200 -12.389  0.00  0.00    +0.226 C 
BRANCH  11  12
ATOM     12  C   UNL     1      33.236 -23.581 -12.734  0.00  0.00    +0.090 C 
BRANCH  12  13
ATOM     13  C   UNL     1      32.213 -24.659 -13.059  0.00  0.00    +0.036 C 
BRANCH  13  14
ATOM     14  C   UNL     1      31.157 -24.204 -14.037  0.00  0.00    -0.022 C 
ATOM     15  C   UNL     1      31.442 -23.190 -14.950  0.00  0.00    -0.004 C 
ATOM     16  C   UNL     1      29.894 -24.797 -14.025  0.00  0.00    -0.004 C 
ATOM     17  C   UNL     1      30.467 -22.769 -15.855  0.00  0.00    -0.000 C 
ATOM     18  C   UNL     1      28.918 -24.376 -14.929  0.00  0.00    -0.000 C 
ATOM     19  C   UNL     1      29.204 -23.362 -15.843  0.00  0.00    -0.000 C 
ENDBRANCH  13  14
ENDBRANCH  12  13
ENDBRANCH  11  12
ENDBRANCH   3   7
BRANCH   2  20
ATOM     20  C   UNL     1      33.999 -22.883 -17.689  0.00  0.00    +0.116 C 
BRANCH  20  21
ATOM     21  C   UNL     1      34.223 -21.816 -18.721  0.00  0.00    -0.003 C 
ATOM     22  C   UNL     1      35.521 -21.479 -19.105  0.00  0.00    -0.003 C 
ATOM     23  C   UNL     1      33.133 -21.160 -19.295  0.00  0.00    -0.003 C 
ATOM     24  C   UNL     1      35.729 -20.486 -20.063  0.00  0.00    +0.002 C 
ATOM     25  C   UNL     1      33.342 -20.167 -20.252  0.00  0.00    +0.002 C 
ATOM     26  C   UNL     1      34.640 -19.830 -20.636  0.00  0.00    +0.031 C 
BRANCH  26  29
ATOM     27  N   UNL     1      35.359 -17.544 -21.285  0.00  0.00    -0.343 N 
ATOM     28  N   UNL     1      34.573 -19.035 -22.903  0.00  0.00    -0.285 NA
ATOM     29  C   UNL     1      34.857 -18.796 -21.635  0.00  0.00    +0.117 C 
ATOM     30  H   UNL     1      35.498 -16.858 -21.977  0.00  0.00    +0.144 HD
ATOM     31  H   UNL     1      35.574 -17.345 -20.345  0.00  0.00    +0.144 HD
ATOM     32  H   UNL     1      34.720 -18.337 -23.580  0.00  0.00    +0.188 HD
ENDBRANCH  26  29
ENDBRANCH  20  21
ENDBRANCH   2  20
TORSDOF 7
ENDMDL
MODEL 3
REMARK VINA RESULT:     -10.5      8.441     12.317
REMARK  Name = 25113615
REMARK  7 active torsions:
REMARK  status: ('A' for Active; 'I' for Inactive)
REMARK    1  A    between atoms: N_2  and  C_20
REMARK    2  A    between atoms: C_3  and  C_7
REMARK    3  A    between atoms: C_11  and  C_12
REMARK    4  A    between atoms: C_12  and  C_13
REMARK    5  A    between atoms: C_13  and  C_14
REMARK    6  A    between atoms: C_20  and  C_21
REMARK    7  A    between atoms: C_26  and  C_29
REMARK                            x       y       z     vdW  Elec       q    Type
REMARK                         _______ _______ _______ _____ _____    ______ ____
ROOT
ATOM      1  O   UNL     1      34.288 -14.790 -20.637  0.00  0.00    -0.273 OA
ATOM      2  N   UNL     1      32.915 -13.527 -22.029  0.00  0.00    -0.299 N 
ATOM      3  C   UNL     1      33.995 -14.344 -21.743  0.00  0.00    +0.241 C 
ATOM      4  H   UNL     1      32.783 -13.232 -22.959  0.00  0.00    +0.150 HD
ENDROOT
BRANCH   3   7
ATOM      5  O   UNL     1      34.285 -18.243 -23.659  0.00  0.00    -0.275 OA
ATOM      6  N   UNL     1      34.309 -15.937 -23.504  0.00  0.00    -0.273 N 
ATOM      7  C   UNL     1      34.799 -14.670 -22.966  0.00  0.00    +0.152 C 
ATOM      8  C   UNL     1      34.531 -13.656 -24.074  0.00  0.00    +0.031 C 
ATOM      9  C   UNL     1      33.303 -14.222 -24.784  0.00  0.00    +0.024 C 
ATOM     10  C   UNL     1      33.524 -15.724 -24.713  0.00  0.00    +0.094 C 
ATOM     11  C   UNL     1      34.629 -17.214 -23.072  0.00  0.00    +0.226 C 
BRANCH  11  12
ATOM     12  C   UNL     1      35.449 -17.301 -21.810  0.00  0.00    +0.090 C 
BRANCH  12  13
ATOM     13  C   UNL     1      36.163 -18.643 -21.727  0.00  0.00    +0.036 C 
BRANCH  13  14
ATOM     14  C   UNL     1      35.521 -19.601 -20.753  0.00  0.00    -0.022 C 
ATOM     15  C   UNL     1      34.132 -19.708 -20.693  0.00  0.00    -0.004 C 
ATOM     16  C   UNL     1      36.318 -20.378 -19.912  0.00  0.00    -0.004 C 
ATOM     17  C   UNL     1      33.538 -20.594 -19.793  0.00  0.00    -0.000 C 
ATOM     18  C   UNL     1      35.725 -21.263 -19.012  0.00  0.00    -0.000 C 
ATOM     19  C   UNL     1      34.335 -21.371 -18.952  0.00  0.00    -0.000 C 
ENDBRANCH  13  14
ENDBRANCH  12  13
ENDBRANCH  11  12
ENDBRANCH   3   7
BRANCH   2  20
ATOM     20  C   UNL     1      31.970 -13.086 -21.028  0.00  0.00    +0.116 C 
BRANCH  20  21
ATOM     21  C   UNL     1      32.074 -11.610 -20.770  0.00  0.00    -0.003 C 
ATOM     22  C   UNL     1      32.262 -10.729 -21.835  0.00  0.00    -0.003 C 
ATOM     23  C   UNL     1      31.984 -11.120 -19.467  0.00  0.00    -0.003 C 
ATOM     24  C   UNL     1      32.361  -9.358 -21.596  0.00  0.00    +0.002 C 
ATOM     25  C   UNL     1      32.082  -9.749 -19.229  0.00  0.00    +0.002 C 
ATOM     26  C   UNL     1      32.271  -8.868 -20.294  0.00  0.00    +0.031 C 
BRANCH  26  29
ATOM     27  N   UNL     1      31.482  -6.538 -20.626  0.00  0.00    -0.343 N 
ATOM     28  N   UNL     1      33.326  -6.974 -19.259  0.00  0.00    -0.285 NA
ATOM     29  C   UNL     1      32.372  -7.439 -20.046  0.00  0.00    +0.117 C 
ATOM     30  H   UNL     1      31.570  -5.574 -20.445  0.00  0.00    +0.144 HD
ATOM     31  H   UNL     1      30.767  -6.864 -21.218  0.00  0.00    +0.144 HD
ATOM     32  H   UNL     1      33.397  -6.007 -19.090  0.00  0.00    +0.188 HD
ENDBRANCH  26  29
ENDBRANCH  20  21
ENDBRANCH   2  20
TORSDOF 7
ENDMDL
MODEL 4
REMARK VINA RESULT:     -10.4      7.363     11.477
REMARK  Name = 25113615
REMARK  7 active torsions:
REMARK  status: ('A' for Active; 'I' for Inactive)
REMARK    1  A    between atoms: N_2  and  C_20
REMARK    2  A    between atoms: C_3  and  C_7
REMARK    3  A    between atoms: C_11  and  C_12
REMARK    4  A    between atoms: C_12  and  C_13
REMARK    5  A    between atoms: C_13  and  C_14
REMARK    6  A    between atoms: C_20  and  C_21
REMARK    7  A    between atoms: C_26  and  C_29
REMARK                            x       y       z     vdW  Elec       q    Type
REMARK                         _______ _______ _______ _____ _____    ______ ____
ROOT
ATOM      1  O   UNL     1      35.649 -14.865 -22.577  0.00  0.00    -0.273 OA
ATOM      2  N   UNL     1      34.939 -17.080 -22.693  0.00  0.00    -0.299 N 
ATOM      3  C   UNL     1      34.818 -15.715 -22.890  0.00  0.00    +0.241 C 
ATOM      4  H   UNL     1      34.203 -17.663 -22.987  0.00  0.00    +0.150 HD
ENDROOT
BRANCH   3   7
ATOM      5  O   UNL     1      33.375 -11.681 -23.664  0.00  0.00    -0.275 OA
ATOM      6  N   UNL     1      33.623 -13.955 -23.991  0.00  0.00    -0.273 N 
ATOM      7  C   UNL     1      33.533 -15.351 -23.570  0.00  0.00    +0.152 C 
ATOM      8  C   UNL     1      33.373 -16.132 -24.872  0.00  0.00    +0.031 C 
ATOM      9  C   UNL     1      34.109 -15.269 -25.895  0.00  0.00    +0.024 C 
ATOM     10  C   UNL     1      33.811 -13.853 -25.432  0.00  0.00    +0.094 C 
ATOM     11  C   UNL     1      33.416 -12.828 -23.213  0.00  0.00    +0.226 C 
BRANCH  11  12
ATOM     12  C   UNL     1      33.231 -13.066 -21.735  0.00  0.00    +0.090 C 
BRANCH  12  13
ATOM     13  C   UNL     1      31.846 -12.620 -21.290  0.00  0.00    +0.036 C 
BRANCH  13  14
ATOM     14  C   UNL     1      31.838 -11.260 -20.638  0.00  0.00    -0.022 C 
ATOM     15  C   UNL     1      31.577 -10.122 -21.400  0.00  0.00    -0.004 C 
ATOM     16  C   UNL     1      32.093 -11.140 -19.272  0.00  0.00    -0.004 C 
ATOM     17  C   UNL     1      31.569  -8.863 -20.798  0.00  0.00    -0.000 C 
ATOM     18  C   UNL     1      32.086  -9.882 -18.669  0.00  0.00    -0.000 C 
ATOM     19  C   UNL     1      31.824  -8.744 -19.432  0.00  0.00    -0.000 C 
ENDBRANCH  13  14
ENDBRANCH  12  13
ENDBRANCH  11  12
ENDBRANCH   3   7
BRANCH   2  20
ATOM     20  C   UNL     1      36.096 -17.690 -22.078  0.00  0.00    +0.116 C 
BRANCH  20  21
ATOM     21  C   UNL     1      35.715 -18.817 -21.162  0.00  0.00    -0.003 C 
ATOM     22  C   UNL     1      36.687 -19.433 -20.373  0.00  0.00    -0.003 C 
ATOM     23  C   UNL     1      34.389 -19.251 -21.102  0.00  0.00    -0.003 C 
ATOM     24  C   UNL     1      36.333 -20.482 -19.524  0.00  0.00    +0.002 C 
ATOM     25  C   UNL     1      34.037 -20.300 -20.253  0.00  0.00    +0.002 C 
ATOM     26  C   UNL     1      35.009 -20.915 -19.464  0.00  0.00    +0.031 C 
BRANCH  26  29
ATOM     27  N   UNL     1      33.466 -22.731 -18.767  0.00  0.00    -0.343 N 
ATOM     28  N   UNL     1      35.429 -22.328 -17.566  0.00  0.00    -0.285 NA
ATOM     29  C   UNL     1      34.641 -22.008 -18.578  0.00  0.00    +0.117 C 
ATOM     30  H   UNL     1      33.236 -23.467 -18.155  0.00  0.00    +0.144 HD
ATOM     31  H   UNL     1      32.864 -22.506 -19.513  0.00  0.00    +0.144 HD
ATOM     32  H   UNL     1      35.181 -23.067 -16.965  0.00  0.00    +0.188 HD
ENDBRANCH  26  29
ENDBRANCH  20  21
ENDBRANCH   2  20
TORSDOF 7
ENDMDL
MODEL 5
REMARK VINA RESULT:     -10.2      2.468      6.247
REMARK  Name = 25113615
REMARK  7 active torsions:
REMARK  status: ('A' for Active; 'I' for Inactive)
REMARK    1  A    between atoms: N_2  and  C_20
REMARK    2  A    between atoms: C_3  and  C_7
REMARK    3  A    between atoms: C_11  and  C_12
REMARK    4  A    between atoms: C_12  and  C_13
REMARK    5  A    between atoms: C_13  and  C_14
REMARK    6  A    between atoms: C_20  and  C_21
REMARK    7  A    between atoms: C_26  and  C_29
REMARK                            x       y       z     vdW  Elec       q    Type
REMARK                         _______ _______ _______ _____ _____    ______ ____
ROOT
ATOM      1  O   UNL     1      36.627 -24.523 -14.986  0.00  0.00    -0.273 OA
ATOM      2  N   UNL     1      36.753 -22.242 -15.439  0.00  0.00    -0.299 N 
ATOM      3  C   UNL     1      36.485 -23.349 -14.651  0.00  0.00    +0.241 C 
ATOM      4  H   UNL     1      36.598 -21.348 -15.058  0.00  0.00    +0.150 HD
ENDROOT
BRANCH   3   7
ATOM      5  O   UNL     1      33.039 -25.022 -12.583  0.00  0.00    -0.275 OA
ATOM      6  N   UNL     1      35.109 -24.021 -12.809  0.00  0.00    -0.273 N 
ATOM      7  C   UNL     1      36.005 -22.969 -13.283  0.00  0.00    +0.152 C 
ATOM      8  C   UNL     1      37.160 -22.974 -12.285  0.00  0.00    +0.031 C 
ATOM      9  C   UNL     1      37.216 -24.426 -11.816  0.00  0.00    +0.024 C 
ATOM     10  C   UNL     1      35.753 -24.838 -11.789  0.00  0.00    +0.094 C 
ATOM     11  C   UNL     1      33.771 -24.191 -13.124  0.00  0.00    +0.226 C 
BRANCH  11  12
ATOM     12  C   UNL     1      33.221 -23.282 -14.194  0.00  0.00    +0.090 C 
BRANCH  12  13
ATOM     13  C   UNL     1      31.909 -22.656 -13.743  0.00  0.00    +0.036 C 
BRANCH  13  14
ATOM     14  C   UNL     1      30.707 -23.194 -14.479  0.00  0.00    -0.022 C 
ATOM     15  C   UNL     1      30.257 -22.559 -15.636  0.00  0.00    -0.004 C 
ATOM     16  C   UNL     1      30.045 -24.324 -14.001  0.00  0.00    -0.004 C 
ATOM     17  C   UNL     1      29.145 -23.056 -16.318  0.00  0.00    -0.000 C 
ATOM     18  C   UNL     1      28.933 -24.821 -14.682  0.00  0.00    -0.000 C 
ATOM     19  C   UNL     1      28.483 -24.186 -15.840  0.00  0.00    -0.000 C 
ENDBRANCH  13  14
ENDBRANCH  12  13
ENDBRANCH  11  12
ENDBRANCH   3   7
BRANCH   2  20
ATOM     20  C   UNL     1      37.250 -22.338 -16.792  0.00  0.00    +0.116 C 
BRANCH  20  21
ATOM     21  C   UNL     1      36.282 -21.763 -17.787  0.00  0.00    -0.003 C 
ATOM     22  C   UNL     1      34.935 -22.121 -17.734  0.00  0.00    -0.003 C 
ATOM     23  C   UNL     1      36.731 -20.874 -18.765  0.00  0.00    -0.003 C 
ATOM     24  C   UNL     1      34.036 -21.589 -18.659  0.00  0.00    +0.002 C 
ATOM     25  C   UNL     1      35.831 -20.343 -19.689  0.00  0.00    +0.002 C 
ATOM     26  C   UNL     1      34.484 -20.701 -19.636  0.00  0.00    +0.031 C 
BRANCH  26  29
ATOM     27  N   UNL     1      33.988 -19.467 -21.733  0.00  0.00    -0.343 N 
ATOM     28  N   UNL     1      32.246 -20.279 -20.404  0.00  0.00    -0.285 NA
ATOM     29  C   UNL     1      33.546 -20.146 -20.599  0.00  0.00    +0.117 C 
ATOM     30  H   UNL     1      33.336 -19.099 -22.371  0.00  0.00    +0.144 HD
ATOM     31  H   UNL     1      34.952 -19.354 -21.895  0.00  0.00    +0.144 HD
ATOM     32  H   UNL     1      31.610 -19.904 -21.054  0.00  0.00    +0.188 HD
ENDBRANCH  26  29
ENDBRANCH  20  21
ENDBRANCH   2  20
TORSDOF 7
ENDMDL
MODEL 6
REMARK VINA RESULT:     -10.0     10.217     14.192
REMARK  Name = 25113615
REMARK  7 active torsions:
REMARK  status: ('A' for Active; 'I' for Inactive)
REMARK    1  A    between atoms: N_2  and  C_20
REMARK    2  A    between atoms: C_3  and  C_7
REMARK    3  A    between atoms: C_11  and  C_12
REMARK    4  A    between atoms: C_12  and  C_13
REMARK    5  A    between atoms: C_13  and  C_14
REMARK    6  A    between atoms: C_20  and  C_21
REMARK    7  A    between atoms: C_26  and  C_29
REMARK                            x       y       z     vdW  Elec       q    Type
REMARK                         _______ _______ _______ _____ _____    ______ ____
ROOT
ATOM      1  O   UNL     1      32.881 -13.729 -21.988  0.00  0.00    -0.273 OA
ATOM      2  N   UNL     1      32.991 -11.431 -22.346  0.00  0.00    -0.299 N 
ATOM      3  C   UNL     1      33.304 -12.754 -22.605  0.00  0.00    +0.241 C 
ATOM      4  H   UNL     1      33.395 -10.734 -22.911  0.00  0.00    +0.150 HD
ENDROOT
BRANCH   3   7
ATOM      5  O   UNL     1      33.294 -16.007 -25.499  0.00  0.00    -0.275 OA
ATOM      6  N   UNL     1      33.644 -13.868 -24.699  0.00  0.00    -0.273 N 
ATOM      7  C   UNL     1      34.230 -12.900 -23.774  0.00  0.00    +0.152 C 
ATOM      8  C   UNL     1      34.298 -11.601 -24.574  0.00  0.00    +0.031 C 
ATOM      9  C   UNL     1      33.124 -11.721 -25.544  0.00  0.00    +0.024 C 
ATOM     10  C   UNL     1      33.099 -13.204 -25.876  0.00  0.00    +0.094 C 
ATOM     11  C   UNL     1      33.694 -15.249 -24.612  0.00  0.00    +0.226 C 
BRANCH  11  12
ATOM     12  C   UNL     1      34.283 -15.814 -23.345  0.00  0.00    +0.090 C 
BRANCH  12  13
ATOM     13  C   UNL     1      35.205 -16.984 -23.658  0.00  0.00    +0.036 C 
BRANCH  13  14
ATOM     14  C   UNL     1      35.332 -17.964 -22.517  0.00  0.00    -0.022 C 
ATOM     15  C   UNL     1      34.287 -18.843 -22.232  0.00  0.00    -0.004 C 
ATOM     16  C   UNL     1      36.495 -17.991 -21.748  0.00  0.00    -0.004 C 
ATOM     17  C   UNL     1      34.404 -19.750 -21.178  0.00  0.00    -0.000 C 
ATOM     18  C   UNL     1      36.613 -18.898 -20.694  0.00  0.00    -0.000 C 
ATOM     19  C   UNL     1      35.567 -19.777 -20.409  0.00  0.00    -0.000 C 
ENDBRANCH  13  14
ENDBRANCH  12  13
ENDBRANCH  11  12
ENDBRANCH   3   7
BRANCH   2  20
ATOM     20  C   UNL     1      32.098 -11.024 -21.284  0.00  0.00    +0.116 C 
BRANCH  20  21
ATOM     21  C   UNL     1      31.863  -9.541 -21.287  0.00  0.00    -0.003 C 
ATOM     22  C   UNL     1      31.422  -8.908 -22.449  0.00  0.00    -0.003 C 
ATOM     23  C   UNL     1      32.089  -8.796 -20.129  0.00  0.00    -0.003 C 
ATOM     24  C   UNL     1      31.206  -7.530 -22.453  0.00  0.00    +0.002 C 
ATOM     25  C   UNL     1      31.872  -7.418 -20.134  0.00  0.00    +0.002 C 
ATOM     26  C   UNL     1      31.431  -6.785 -21.296  0.00  0.00    +0.031 C 
BRANCH  26  29
ATOM     27  N   UNL     1      29.937  -4.815 -21.530  0.00  0.00    -0.343 N 
ATOM     28  N   UNL     1      32.212  -4.522 -21.087  0.00  0.00    -0.285 NA
ATOM     29  C   UNL     1      31.204  -5.349 -21.300  0.00  0.00    +0.117 C 
ATOM     30  H   UNL     1      29.807  -3.840 -21.530  0.00  0.00    +0.144 HD
ATOM     31  H   UNL     1      29.174  -5.414 -21.695  0.00  0.00    +0.144 HD
ATOM     32  H   UNL     1      32.061  -3.550 -21.090  0.00  0.00    +0.188 HD
ENDBRANCH  26  29
ENDBRANCH  20  21
ENDBRANCH   2  20
TORSDOF 7
ENDMDL
MODEL 7
REMARK VINA RESULT:      -9.8      8.341     12.351
REMARK  Name = 25113615
REMARK  7 active torsions:
REMARK  status: ('A' for Active; 'I' for Inactive)
REMARK    1  A    between atoms: N_2  and  C_20
REMARK    2  A    between atoms: C_3  and  C_7
REMARK    3  A    between atoms: C_11  and  C_12
REMARK    4  A    between atoms: C_12  and  C_13
REMARK    5  A    between atoms: C_13  and  C_14
REMARK    6  A    between atoms: C_20  and  C_21
REMARK    7  A    between atoms: C_26  and  C_29
REMARK                            x       y       z     vdW  Elec       q    Type
REMARK                         _______ _______ _______ _____ _____    ______ ____
ROOT
ATOM      1  O   UNL     1      34.664 -14.940 -20.707  0.00  0.00    -0.273 OA
ATOM      2  N   UNL     1      33.291 -13.999 -22.335  0.00  0.00    -0.299 N 
ATOM      3  C   UNL     1      34.356 -14.759 -21.882  0.00  0.00    +0.241 C 
ATOM      4  H   UNL     1      33.145 -13.928 -23.306  0.00  0.00    +0.150 HD
ENDROOT
BRANCH   3   7
ATOM      5  O   UNL     1      34.031 -18.895 -23.204  0.00  0.00    -0.275 OA
ATOM      6  N   UNL     1      34.438 -16.627 -23.380  0.00  0.00    -0.273 N 
ATOM      7  C   UNL     1      35.121 -15.391 -23.006  0.00  0.00    +0.152 C 
ATOM      8  C   UNL     1      35.052 -14.523 -24.260  0.00  0.00    +0.031 C 
ATOM      9  C   UNL     1      33.763 -14.981 -24.938  0.00  0.00    +0.024 C 
ATOM     10  C   UNL     1      33.727 -16.472 -24.642  0.00  0.00    +0.094 C 
ATOM     11  C   UNL     1      34.529 -17.860 -22.756  0.00  0.00    +0.226 C 
BRANCH  11  12
ATOM     12  C   UNL     1      35.294 -17.890 -21.456  0.00  0.00    +0.090 C 
BRANCH  12  13
ATOM     13  C   UNL     1      35.951 -19.248 -21.254  0.00  0.00    +0.036 C 
BRANCH  13  14
ATOM     14  C   UNL     1      35.194 -20.141 -20.301  0.00  0.00    -0.022 C 
ATOM     15  C   UNL     1      35.885 -21.039 -19.489  0.00  0.00    -0.004 C 
ATOM     16  C   UNL     1      33.802 -20.068 -20.233  0.00  0.00    -0.004 C 
ATOM     17  C   UNL     1      35.186 -21.865 -18.607  0.00  0.00    -0.000 C 
ATOM     18  C   UNL     1      33.103 -20.893 -19.353  0.00  0.00    -0.000 C 
ATOM     19  C   UNL     1      33.795 -21.792 -18.540  0.00  0.00    -0.000 C 
ENDBRANCH  13  14
ENDBRANCH  12  13
ENDBRANCH  11  12
ENDBRANCH   3   7
BRANCH   2  20
ATOM     20  C   UNL     1      32.384 -13.304 -21.450  0.00  0.00    +0.116 C 
BRANCH  20  21
ATOM     21  C   UNL     1      32.310 -11.837 -21.761  0.00  0.00    -0.003 C 
ATOM     22  C   UNL     1      33.077 -11.306 -22.798  0.00  0.00    -0.003 C 
ATOM     23  C   UNL     1      31.477 -11.005 -21.012  0.00  0.00    -0.003 C 
ATOM     24  C   UNL     1      33.011  -9.942 -23.086  0.00  0.00    +0.002 C 
ATOM     25  C   UNL     1      31.412  -9.642 -21.300  0.00  0.00    +0.002 C 
ATOM     26  C   UNL     1      32.179  -9.111 -22.337  0.00  0.00    +0.031 C 
BRANCH  26  29
ATOM     27  N   UNL     1      30.949  -6.955 -22.406  0.00  0.00    -0.343 N 
ATOM     28  N   UNL     1      33.161  -7.073 -23.148  0.00  0.00    -0.285 NA
ATOM     29  C   UNL     1      32.109  -7.690 -22.639  0.00  0.00    +0.117 C 
ATOM     30  H   UNL     1      30.923  -5.994 -22.618  0.00  0.00    +0.144 HD
ATOM     31  H   UNL     1      30.153  -7.397 -22.031  0.00  0.00    +0.144 HD
ATOM     32  H   UNL     1      33.116  -6.111 -23.353  0.00  0.00    +0.188 HD
ENDBRANCH  26  29
ENDBRANCH  20  21
ENDBRANCH   2  20
TORSDOF 7
ENDMDL
MODEL 8
REMARK VINA RESULT:      -9.8      2.756      6.811
REMARK  Name = 25113615
REMARK  7 active torsions:
REMARK  status: ('A' for Active; 'I' for Inactive)
REMARK    1  A    between atoms: N_2  and  C_20
REMARK    2  A    between atoms: C_3  and  C_7
REMARK    3  A    between atoms: C_11  and  C_12
REMARK    4  A    between atoms: C_12  and  C_13
REMARK    5  A    between atoms: C_13  and  C_14
REMARK    6  A    between atoms: C_20  and  C_21
REMARK    7  A    between atoms: C_26  and  C_29
REMARK                            x       y       z     vdW  Elec       q    Type
REMARK                         _______ _______ _______ _____ _____    ______ ____
ROOT
ATOM      1  O   UNL     1      35.133 -24.719 -15.737  0.00  0.00    -0.273 OA
ATOM      2  N   UNL     1      34.058 -22.822 -16.556  0.00  0.00    -0.299 N 
ATOM      3  C   UNL     1      34.576 -23.637 -15.563  0.00  0.00    +0.241 C 
ATOM      4  H   UNL     1      33.632 -21.975 -16.291  0.00  0.00    +0.150 HD
ENDROOT
BRANCH   3   7
ATOM      5  O   UNL     1      31.761 -24.960 -12.516  0.00  0.00    -0.275 OA
ATOM      6  N   UNL     1      33.685 -24.007 -13.370  0.00  0.00    -0.273 N 
ATOM      7  C   UNL     1      34.409 -23.044 -14.197  0.00  0.00    +0.152 C 
ATOM      8  C   UNL     1      35.762 -22.890 -13.507  0.00  0.00    +0.031 C 
ATOM      9  C   UNL     1      35.978 -24.248 -12.844  0.00  0.00    +0.024 C 
ATOM     10  C   UNL     1      34.576 -24.651 -12.414  0.00  0.00    +0.094 C 
ATOM     11  C   UNL     1      32.318 -24.225 -13.336  0.00  0.00    +0.226 C 
BRANCH  11  12
ATOM     12  C   UNL     1      31.504 -23.499 -14.376  0.00  0.00    +0.090 C 
BRANCH  12  13
ATOM     13  C   UNL     1      30.209 -22.974 -13.772  0.00  0.00    +0.036 C 
BRANCH  13  14
ATOM     14  C   UNL     1      29.091 -22.846 -14.777  0.00  0.00    -0.022 C 
ATOM     15  C   UNL     1      27.900 -22.214 -14.420  0.00  0.00    -0.004 C 
ATOM     16  C   UNL     1      29.247 -23.362 -16.064  0.00  0.00    -0.004 C 
ATOM     17  C   UNL     1      26.866 -22.095 -15.348  0.00  0.00    -0.000 C 
ATOM     18  C   UNL     1      28.213 -23.244 -16.992  0.00  0.00    -0.000 C 
ATOM     19  C   UNL     1      27.022 -22.610 -16.635  0.00  0.00    -0.000 C 
ENDBRANCH  13  14
ENDBRANCH  12  13
ENDBRANCH  11  12
ENDBRANCH   3   7
BRANCH   2  20
ATOM     20  C   UNL     1      34.113 -23.156 -17.961  0.00  0.00    +0.116 C 
BRANCH  20  21
ATOM     21  C   UNL     1      34.395 -21.951 -18.812  0.00  0.00    -0.003 C 
ATOM     22  C   UNL     1      33.339 -21.206 -19.336  0.00  0.00    -0.003 C 
ATOM     23  C   UNL     1      35.713 -21.579 -19.081  0.00  0.00    -0.003 C 
ATOM     24  C   UNL     1      33.600 -20.089 -20.130  0.00  0.00    +0.002 C 
ATOM     25  C   UNL     1      35.974 -20.461 -19.874  0.00  0.00    +0.002 C 
ATOM     26  C   UNL     1      34.917 -19.716 -20.398  0.00  0.00    +0.031 C 
BRANCH  26  29
ATOM     27  N   UNL     1      35.179 -18.629 -22.615  0.00  0.00    -0.343 N 
ATOM     28  N   UNL     1      35.456 -17.388 -20.654  0.00  0.00    -0.285 NA
ATOM     29  C   UNL     1      35.189 -18.550 -21.224  0.00  0.00    +0.117 C 
ATOM     30  H   UNL     1      35.366 -17.827 -23.154  0.00  0.00    +0.144 HD
ATOM     31  H   UNL     1      34.985 -19.486 -23.058  0.00  0.00    +0.144 HD
ATOM     32  H   UNL     1      35.641 -16.598 -21.211  0.00  0.00    +0.188 HD
ENDBRANCH  26  29
ENDBRANCH  20  21
ENDBRANCH   2  20
TORSDOF 7
ENDMDL
MODEL 9
REMARK VINA RESULT:      -9.5     11.376     15.287
REMARK  Name = 25113615
REMARK  7 active torsions:
REMARK  status: ('A' for Active; 'I' for Inactive)
REMARK    1  A    between atoms: N_2  and  C_20
REMARK    2  A    between atoms: C_3  and  C_7
REMARK    3  A    between atoms: C_11  and  C_12
REMARK    4  A    between atoms: C_12  and  C_13
REMARK    5  A    between atoms: C_13  and  C_14
REMARK    6  A    between atoms: C_20  and  C_21
REMARK    7  A    between atoms: C_26  and  C_29
REMARK                            x       y       z     vdW  Elec       q    Type
REMARK                         _______ _______ _______ _____ _____    ______ ____
ROOT
ATOM      1  O   UNL     1      33.848 -11.357 -23.203  0.00  0.00    -0.273 OA
ATOM      2  N   UNL     1      32.515  -9.608 -22.439  0.00  0.00    -0.299 N 
ATOM      3  C   UNL     1      32.871 -10.938 -22.588  0.00  0.00    +0.241 C 
ATOM      4  H   UNL     1      31.705  -9.395 -21.921  0.00  0.00    +0.150 HD
ENDROOT
BRANCH   3   7
ATOM      5  O   UNL     1      33.971 -14.493 -20.329  0.00  0.00    -0.275 OA
ATOM      6  N   UNL     1      32.702 -12.659 -20.930  0.00  0.00    -0.273 N 
ATOM      7  C   UNL     1      31.927 -11.861 -21.878  0.00  0.00    +0.152 C 
ATOM      8  C   UNL     1      30.954 -11.072 -21.006  0.00  0.00    +0.031 C 
ATOM      9  C   UNL     1      31.711 -10.904 -19.691  0.00  0.00    +0.024 C 
ATOM     10  C   UNL     1      32.474 -12.213 -19.561  0.00  0.00    +0.094 C 
ATOM     11  C   UNL     1      33.452 -13.791 -21.200  0.00  0.00    +0.226 C 
BRANCH  11  12
ATOM     12  C   UNL     1      33.613 -14.149 -22.656  0.00  0.00    +0.090 C 
BRANCH  12  13
ATOM     13  C   UNL     1      34.946 -14.844 -22.892  0.00  0.00    +0.036 C 
BRANCH  13  14
ATOM     14  C   UNL     1      34.813 -16.330 -23.115  0.00  0.00    -0.022 C 
ATOM     15  C   UNL     1      34.183 -16.809 -24.263  0.00  0.00    -0.004 C 
ATOM     16  C   UNL     1      35.318 -17.225 -22.172  0.00  0.00    -0.004 C 
ATOM     17  C   UNL     1      34.059 -18.184 -24.471  0.00  0.00    -0.000 C 
ATOM     18  C   UNL     1      35.194 -18.599 -22.379  0.00  0.00    -0.000 C 
ATOM     19  C   UNL     1      34.565 -19.079 -23.528  0.00  0.00    -0.000 C 
ENDBRANCH  13  14
ENDBRANCH  12  13
ENDBRANCH  11  12
ENDBRANCH   3   7
BRANCH   2  20
ATOM     20  C   UNL     1      33.274  -8.518 -23.008  0.00  0.00    +0.116 C 
BRANCH  20  21
ATOM     21  C   UNL     1      32.725  -7.181 -22.604  0.00  0.00    -0.003 C 
ATOM     22  C   UNL     1      31.683  -7.106 -21.679  0.00  0.00    -0.003 C 
ATOM     23  C   UNL     1      33.254  -6.012 -23.154  0.00  0.00    -0.003 C 
ATOM     24  C   UNL     1      31.171  -5.864 -21.305  0.00  0.00    +0.002 C 
ATOM     25  C   UNL     1      32.741  -4.771 -22.779  0.00  0.00    +0.002 C 
ATOM     26  C   UNL     1      31.700  -4.696 -21.854  0.00  0.00    +0.031 C 
BRANCH  26  29
ATOM     27  N   UNL     1      29.795  -3.151 -21.468  0.00  0.00    -0.343 N 
ATOM     28  N   UNL     1      31.988  -2.434 -21.097  0.00  0.00    -0.285 NA
ATOM     29  C   UNL     1      31.166  -3.402 -21.463  0.00  0.00    +0.117 C 
ATOM     30  H   UNL     1      29.456  -2.267 -21.200  0.00  0.00    +0.144 HD
ATOM     31  H   UNL     1      29.167  -3.857 -21.740  0.00  0.00    +0.144 HD
ATOM     32  H   UNL     1      31.629  -1.557 -20.832  0.00  0.00    +0.188 HD
ENDBRANCH  26  29
ENDBRANCH  20  21
ENDBRANCH   2  20
TORSDOF 7
ENDMDL
