MODEL 1
REMARK VINA RESULT:     -11.8      0.000      0.000
REMARK  Name = 25147644
REMARK  4 active torsions:
REMARK  status: ('A' for Active; 'I' for Inactive)
REMARK    1  A    between atoms: C_3  and  N_11
REMARK    2  A    between atoms: C_4  and  C_23
REMARK    3  A    between atoms: C_12  and  C_15
REMARK    4  A    between atoms: C_23  and  C_25
REMARK                            x       y       z     vdW  Elec       q    Type
REMARK                         _______ _______ _______ _____ _____    ______ ____
ROOT
ATOM      1  N   UNL     1      32.405 -23.872 -13.063  0.00  0.00    +0.390 N 
ATOM      2  C   UNL     1      31.154 -23.774 -15.344  0.00  0.00    +0.012 C 
ATOM      3  C   UNL     1      32.683 -23.832 -15.550  0.00  0.00    +0.053 C 
ATOM      4  C   UNL     1      33.379 -23.676 -14.173  0.00  0.00    -0.035 C 
ATOM      5  C   UNL     1      30.804 -22.562 -14.462  0.00  0.00    -0.021 C 
ATOM      6  C   UNL     1      30.768 -25.037 -14.556  0.00  0.00    -0.021 C 
ATOM      7  C   UNL     1      31.467 -22.723 -13.082  0.00  0.00    -0.077 C 
ATOM      8  C   UNL     1      31.611 -25.106 -13.270  0.00  0.00    -0.077 C 
ATOM      9  H   UNL     1      32.910 -23.944 -12.180  0.00  0.00    -0.080 HD
ENDROOT
BRANCH   3  11
ATOM     10  O   UNL     1      33.598 -24.314 -18.229  0.00  0.00    -0.267 OA
ATOM     11  N   UNL     1      33.146 -22.843 -16.493  0.00  0.00    -0.302 N 
ATOM     12  C   UNL     1      33.570 -23.174 -17.771  0.00  0.00    +0.280 C 
ATOM     13  H   UNL     1      33.161 -21.898 -16.218  0.00  0.00    +0.150 HD
BRANCH  12  15
ATOM     14  O   UNL     1      35.374 -21.778 -18.629  0.00  0.00    -0.449 OA
ATOM     15  C   UNL     1      34.042 -22.043 -18.613  0.00  0.00    +0.198 C 
ATOM     16  C   UNL     1      33.360 -21.165 -19.422  0.00  0.00    +0.045 C 
ATOM     17  C   UNL     1      34.334 -20.295 -19.979  0.00  0.00    +0.038 C 
ATOM     18  C   UNL     1      35.556 -20.714 -19.460  0.00  0.00    +0.146 C 
ATOM     19  C   UNL     1      34.320 -19.201 -20.862  0.00  0.00    +0.003 C 
ATOM     20  C   UNL     1      36.778 -20.116 -19.759  0.00  0.00    +0.037 C 
ATOM     21  C   UNL     1      35.535 -18.579 -21.181  0.00  0.00    +0.000 C 
ATOM     22  C   UNL     1      36.740 -19.031 -20.639  0.00  0.00    +0.003 C 
ENDBRANCH  12  15
ENDBRANCH   3  11
BRANCH   4  23
ATOM     23  C   UNL     1      34.585 -24.610 -14.040  0.00  0.00    +0.009 C 
BRANCH  23  25
ATOM     24  N   UNL     1      37.567 -22.844 -12.524  0.00  0.00    -0.243 NA
ATOM     25  C   UNL     1      35.563 -24.104 -13.018  0.00  0.00    -0.005 C 
ATOM     26  C   UNL     1      35.407 -24.400 -11.668  0.00  0.00    -0.001 C 
ATOM     27  C   UNL     1      36.650 -23.329 -13.391  0.00  0.00    +0.095 C 
ATOM     28  C   UNL     1      36.330 -23.919 -10.746  0.00  0.00    +0.020 C 
ATOM     29  C   UNL     1      37.383 -23.152 -11.220  0.00  0.00    +0.099 C 
ENDBRANCH  23  25
ENDBRANCH   4  23
TORSDOF 4
ENDMDL
MODEL 2
REMARK VINA RESULT:     -10.9      1.610      2.086
REMARK  Name = 25147644
REMARK  4 active torsions:
REMARK  status: ('A' for Active; 'I' for Inactive)
REMARK    1  A    between atoms: C_3  and  N_11
REMARK    2  A    between atoms: C_4  and  C_23
REMARK    3  A    between atoms: C_12  and  C_15
REMARK    4  A    between atoms: C_23  and  C_25
REMARK                            x       y       z     vdW  Elec       q    Type
REMARK                         _______ _______ _______ _____ _____    ______ ____
ROOT
ATOM      1  N   UNL     1      30.715 -23.426 -13.486  0.00  0.00    +0.390 N 
ATOM      2  C   UNL     1      30.547 -23.890 -16.041  0.00  0.00    +0.012 C 
ATOM      3  C   UNL     1      32.018 -23.730 -15.600  0.00  0.00    +0.053 C 
ATOM      4  C   UNL     1      32.048 -23.251 -14.126  0.00  0.00    -0.035 C 
ATOM      5  C   UNL     1      29.758 -22.628 -15.649  0.00  0.00    -0.021 C 
ATOM      6  C   UNL     1      29.968 -25.060 -15.228  0.00  0.00    -0.021 C 
ATOM      7  C   UNL     1      29.783 -22.461 -14.119  0.00  0.00    -0.077 C 
ATOM      8  C   UNL     1      30.188 -24.789 -13.729  0.00  0.00    -0.077 C 
ATOM      9  H   UNL     1      30.802 -23.276 -12.480  0.00  0.00    -0.080 HD
ENDROOT
BRANCH   3  11
ATOM     10  O   UNL     1      33.544 -24.463 -17.920  0.00  0.00    -0.267 OA
ATOM     11  N   UNL     1      32.755 -22.840 -16.463  0.00  0.00    -0.302 N 
ATOM     12  C   UNL     1      33.466 -23.289 -17.566  0.00  0.00    +0.280 C 
ATOM     13  H   UNL     1      32.753 -21.876 -16.261  0.00  0.00    +0.150 HD
BRANCH  12  15
ATOM     14  O   UNL     1      33.477 -21.488 -19.207  0.00  0.00    -0.449 OA
ATOM     15  C   UNL     1      34.193 -22.249 -18.338  0.00  0.00    +0.198 C 
ATOM     16  C   UNL     1      35.519 -21.883 -18.349  0.00  0.00    +0.045 C 
ATOM     17  C   UNL     1      35.635 -20.824 -19.287  0.00  0.00    +0.038 C 
ATOM     18  C   UNL     1      34.352 -20.619 -19.786  0.00  0.00    +0.146 C 
ATOM     19  C   UNL     1      36.679 -20.017 -19.770  0.00  0.00    +0.003 C 
ATOM     20  C   UNL     1      34.030 -19.659 -20.743  0.00  0.00    +0.037 C 
ATOM     21  C   UNL     1      36.386 -19.041 -20.732  0.00  0.00    +0.000 C 
ATOM     22  C   UNL     1      35.084 -18.867 -21.208  0.00  0.00    +0.003 C 
ENDBRANCH  12  15
ENDBRANCH   3  11
BRANCH   4  23
ATOM     23  C   UNL     1      33.156 -23.945 -13.328  0.00  0.00    +0.009 C 
BRANCH  23  25
ATOM     24  N   UNL     1      36.457 -24.759 -14.984  0.00  0.00    -0.243 NA
ATOM     25  C   UNL     1      34.499 -23.762 -13.975  0.00  0.00    -0.005 C 
ATOM     26  C   UNL     1      35.034 -22.494 -14.169  0.00  0.00    -0.001 C 
ATOM     27  C   UNL     1      35.243 -24.853 -14.397  0.00  0.00    +0.095 C 
ATOM     28  C   UNL     1      36.282 -22.356 -14.770  0.00  0.00    +0.020 C 
ATOM     29  C   UNL     1      36.947 -23.509 -15.156  0.00  0.00    +0.099 C 
ENDBRANCH  23  25
ENDBRANCH   4  23
TORSDOF 4
ENDMDL
MODEL 3
REMARK VINA RESULT:     -10.9      1.555      4.341
REMARK  Name = 25147644
REMARK  4 active torsions:
REMARK  status: ('A' for Active; 'I' for Inactive)
REMARK    1  A    between atoms: C_3  and  N_11
REMARK    2  A    between atoms: C_4  and  C_23
REMARK    3  A    between atoms: C_12  and  C_15
REMARK    4  A    between atoms: C_23  and  C_25
REMARK                            x       y       z     vdW  Elec       q    Type
REMARK                         _______ _______ _______ _____ _____    ______ ____
ROOT
ATOM      1  N   UNL     1      35.758 -25.442 -12.961  0.00  0.00    +0.390 N 
ATOM      2  C   UNL     1      37.362 -23.567 -13.790  0.00  0.00    +0.012 C 
ATOM      3  C   UNL     1      35.894 -23.090 -13.805  0.00  0.00    +0.053 C 
ATOM      4  C   UNL     1      34.972 -24.301 -13.508  0.00  0.00    -0.035 C 
ATOM      5  C   UNL     1      37.495 -24.836 -14.650  0.00  0.00    -0.021 C 
ATOM      6  C   UNL     1      37.680 -23.965 -12.338  0.00  0.00    -0.021 C 
ATOM      7  C   UNL     1      36.622 -25.955 -14.052  0.00  0.00    -0.077 C 
ATOM      8  C   UNL     1      36.641 -24.994 -11.859  0.00  0.00    -0.077 C 
ATOM      9  H   UNL     1      35.118 -26.154 -12.608  0.00  0.00    -0.080 HD
ENDROOT
BRANCH   3  11
ATOM     10  O   UNL     1      34.561 -24.297 -16.044  0.00  0.00    -0.267 OA
ATOM     11  N   UNL     1      35.541 -22.446 -15.047  0.00  0.00    -0.302 N 
ATOM     12  C   UNL     1      34.895 -23.116 -16.076  0.00  0.00    +0.280 C 
ATOM     13  H   UNL     1      35.768 -21.496 -15.168  0.00  0.00    +0.150 HD
BRANCH  12  15
ATOM     14  O   UNL     1      35.687 -21.778 -17.952  0.00  0.00    -0.449 OA
ATOM     15  C   UNL     1      34.625 -22.318 -17.301  0.00  0.00    +0.198 C 
ATOM     16  C   UNL     1      33.449 -22.002 -17.940  0.00  0.00    +0.045 C 
ATOM     17  C   UNL     1      33.804 -21.213 -19.065  0.00  0.00    +0.038 C 
ATOM     18  C   UNL     1      35.191 -21.104 -19.027  0.00  0.00    +0.146 C 
ATOM     19  C   UNL     1      33.110 -20.577 -20.109  0.00  0.00    +0.003 C 
ATOM     20  C   UNL     1      35.946 -20.401 -19.964  0.00  0.00    +0.037 C 
ATOM     21  C   UNL     1      33.842 -19.862 -21.067  0.00  0.00    +0.000 C 
ATOM     22  C   UNL     1      35.234 -19.778 -20.994  0.00  0.00    +0.003 C 
ENDBRANCH  12  15
ENDBRANCH   3  11
BRANCH   4  23
ATOM     23  C   UNL     1      33.813 -23.917 -12.584  0.00  0.00    +0.009 C 
BRANCH  23  25
ATOM     24  N   UNL     1      30.533 -25.244 -13.920  0.00  0.00    -0.243 NA
ATOM     25  C   UNL     1      32.494 -23.973 -13.302  0.00  0.00    -0.005 C 
ATOM     26  C   UNL     1      32.009 -22.871 -13.995  0.00  0.00    -0.001 C 
ATOM     27  C   UNL     1      31.726 -25.126 -13.295  0.00  0.00    +0.095 C 
ATOM     28  C   UNL     1      30.785 -22.953 -14.652  0.00  0.00    +0.020 C 
ATOM     29  C   UNL     1      30.092 -24.151 -14.585  0.00  0.00    +0.099 C 
ENDBRANCH  23  25
ENDBRANCH   4  23
TORSDOF 4
ENDMDL
