MODEL 1
REMARK VINA RESULT:     -12.5      0.000      0.000
REMARK  Name = 448605
REMARK  6 active torsions:
REMARK  status: ('A' for Active; 'I' for Inactive)
REMARK    1  A    between atoms: C_3  and  N_11
REMARK    2  A    between atoms: C_4  and  C_27
REMARK    3  A    between atoms: C_9  and  C_21
REMARK    4  A    between atoms: N_26  and  C_29
REMARK    5  A    between atoms: C_30  and  C_35
REMARK    6  A    between atoms: C_35  and  N_36
REMARK                            x       y       z     vdW  Elec       q    Type
REMARK                         _______ _______ _______ _____ _____    ______ ____
ROOT
ATOM      1  C   UNL     1      34.228 -22.999 -15.886  0.00  0.00    +0.014 C 
ATOM      2  C   UNL     1      33.259 -22.703 -16.876  0.00  0.00    +0.001 C 
ATOM      3  C   UNL     1      35.563 -22.624 -16.099  0.00  0.00    +0.057 C 
ATOM      4  C   UNL     1      34.988 -21.675 -18.244  0.00  0.00    +0.055 C 
ATOM      5  C   UNL     1      33.656 -22.040 -18.049  0.00  0.00    +0.005 C 
ATOM      6  C   UNL     1      35.940 -21.966 -17.271  0.00  0.00    +0.020 C 
ATOM      7  C   UNL     1      33.831 -23.661 -14.714  0.00  0.00    +0.004 C 
ATOM      8  C   UNL     1      31.923 -23.079 -16.663  0.00  0.00    +0.000 C 
ATOM      9  C   UNL     1      32.498 -24.027 -14.518  0.00  0.00    +0.031 C 
ATOM     10  C   UNL     1      31.546 -23.736 -15.491  0.00  0.00    +0.003 C 
ENDROOT
BRANCH   3  11
ATOM     11  N   UNL     1      36.573 -22.895 -15.143  0.00  0.00    -0.257 N 
ATOM     12  N   UNL     1      36.535 -25.240 -15.072  0.00  0.00    -0.180 NA
ATOM     13  N   UNL     1      38.064 -23.985 -13.696  0.00  0.00    -0.203 NA
ATOM     14  C   UNL     1      37.080 -24.093 -14.614  0.00  0.00    +0.091 C 
ATOM     15  C   UNL     1      37.046 -26.371 -14.543  0.00  0.00    +0.108 C 
ATOM     16  C   UNL     1      38.527 -25.155 -13.208  0.00  0.00    +0.165 C 
ATOM     17  C   UNL     1      38.052 -26.390 -13.599  0.00  0.00    +0.022 C 
ATOM     18  H   UNL     1      37.000 -22.087 -14.778  0.00  0.00    +0.164 HD
ENDBRANCH   3  11
BRANCH   9  21
ATOM     19  N   UNL     1      30.775 -25.064 -13.062  0.00  0.00    -0.343 N 
ATOM     20  N   UNL     1      33.011 -25.008 -12.386  0.00  0.00    -0.285 NA
ATOM     21  C   UNL     1      32.103 -24.712 -13.298  0.00  0.00    +0.117 C 
ATOM     22  H   UNL     1      30.530 -25.527 -12.229  0.00  0.00    +0.144 HD
ATOM     23  H   UNL     1      30.082 -24.849 -13.728  0.00  0.00    +0.144 HD
ATOM     24  H   UNL     1      32.746 -25.472 -11.559  0.00  0.00    +0.188 HD
ENDBRANCH   9  21
BRANCH   4  27
ATOM     25  O   UNL     1      36.356 -21.412 -20.107  0.00  0.00    -0.270 OA
ATOM     26  N   UNL     1      34.591 -19.891 -19.831  0.00  0.00    -0.280 N 
ATOM     27  C   UNL     1      35.382 -20.989 -19.464  0.00  0.00    +0.250 C 
ATOM     28  H   UNL     1      33.852 -19.673 -19.220  0.00  0.00    +0.155 HD
BRANCH  26  29
ATOM     29  C   UNL     1      34.717 -19.054 -20.967  0.00  0.00    +0.051 C 
ATOM     30  C   UNL     1      34.962 -17.419 -23.187  0.00  0.00    -0.044 C 
ATOM     31  C   UNL     1      34.239 -19.496 -22.188  0.00  0.00    +0.014 C 
ATOM     32  C   UNL     1      35.316 -17.813 -20.830  0.00  0.00    +0.014 C 
ATOM     33  C   UNL     1      34.363 -18.672 -23.307  0.00  0.00    -0.005 C 
ATOM     34  C   UNL     1      35.439 -16.990 -21.948  0.00  0.00    -0.005 C 
BRANCH  30  35
ATOM     35  C   UNL     1      35.094 -16.538 -24.383  0.00  0.00    -0.059 C 
BRANCH  35  36
ATOM     36  N   UNL     1      33.843 -15.929 -24.755  0.00  0.00    +0.383 N 
ATOM     37  H   UNL     1      33.073 -16.435 -24.317  0.00  0.00    -0.089 HD
ATOM     38  H   UNL     1      33.737 -15.962 -25.770  0.00  0.00    -0.089 HD
ATOM     39  H   UNL     1      33.832 -14.957 -24.444  0.00  0.00    -0.089 HD
ENDBRANCH  35  36
ENDBRANCH  30  35
ENDBRANCH  26  29
ENDBRANCH   4  27
TORSDOF 6
ENDMDL
MODEL 2
REMARK VINA RESULT:     -12.2      1.733      4.537
REMARK  Name = 448605
REMARK  6 active torsions:
REMARK  status: ('A' for Active; 'I' for Inactive)
REMARK    1  A    between atoms: C_3  and  N_11
REMARK    2  A    between atoms: C_4  and  C_27
REMARK    3  A    between atoms: C_9  and  C_21
REMARK    4  A    between atoms: N_26  and  C_29
REMARK    5  A    between atoms: C_30  and  C_35
REMARK    6  A    between atoms: C_35  and  N_36
REMARK                            x       y       z     vdW  Elec       q    Type
REMARK                         _______ _______ _______ _____ _____    ______ ____
ROOT
ATOM      1  C   UNL     1      34.924 -23.154 -15.987  0.00  0.00    +0.014 C 
ATOM      2  C   UNL     1      35.921 -22.370 -16.618  0.00  0.00    +0.001 C 
ATOM      3  C   UNL     1      33.625 -23.171 -16.518  0.00  0.00    +0.057 C 
ATOM      4  C   UNL     1      34.289 -21.655 -18.276  0.00  0.00    +0.055 C 
ATOM      5  C   UNL     1      35.586 -21.626 -17.763  0.00  0.00    +0.005 C 
ATOM      6  C   UNL     1      33.310 -22.426 -17.655  0.00  0.00    +0.020 C 
ATOM      7  C   UNL     1      35.258 -23.897 -14.844  0.00  0.00    +0.004 C 
ATOM      8  C   UNL     1      37.220 -22.353 -16.087  0.00  0.00    +0.000 C 
ATOM      9  C   UNL     1      36.556 -23.869 -14.329  0.00  0.00    +0.031 C 
ATOM     10  C   UNL     1      37.535 -23.098 -14.950  0.00  0.00    +0.003 C 
ENDROOT
BRANCH   3  11
ATOM     11  N   UNL     1      32.591 -23.938 -15.927  0.00  0.00    -0.257 N 
ATOM     12  N   UNL     1      30.719 -22.577 -16.309  0.00  0.00    -0.180 NA
ATOM     13  N   UNL     1      30.503 -24.682 -15.156  0.00  0.00    -0.203 NA
ATOM     14  C   UNL     1      31.210 -23.723 -15.792  0.00  0.00    +0.091 C 
ATOM     15  C   UNL     1      29.389 -22.403 -16.162  0.00  0.00    +0.108 C 
ATOM     16  C   UNL     1      29.180 -24.443 -15.043  0.00  0.00    +0.165 C 
ATOM     17  C   UNL     1      28.562 -23.310 -15.532  0.00  0.00    +0.022 C 
ATOM     18  H   UNL     1      32.902 -24.785 -15.534  0.00  0.00    +0.164 HD
ENDBRANCH   3  11
BRANCH   9  21
ATOM     19  N   UNL     1      38.177 -24.653 -12.620  0.00  0.00    -0.343 N 
ATOM     20  N   UNL     1      35.953 -25.364 -12.548  0.00  0.00    -0.285 NA
ATOM     21  C   UNL     1      36.886 -24.645 -13.145  0.00  0.00    +0.117 C 
ATOM     22  H   UNL     1      38.379 -25.185 -11.818  0.00  0.00    +0.144 HD
ATOM     23  H   UNL     1      38.888 -24.125 -13.052  0.00  0.00    +0.144 HD
ATOM     24  H   UNL     1      36.174 -25.890 -11.745  0.00  0.00    +0.188 HD
ENDBRANCH   9  21
BRANCH   4  27
ATOM     25  O   UNL     1      32.833 -21.001 -19.968  0.00  0.00    -0.270 OA
ATOM     26  N   UNL     1      34.965 -20.021 -19.928  0.00  0.00    -0.280 N 
ATOM     27  C   UNL     1      33.960 -20.879 -19.461  0.00  0.00    +0.250 C 
ATOM     28  H   UNL     1      35.808 -20.034 -19.422  0.00  0.00    +0.155 HD
BRANCH  26  29
ATOM     29  C   UNL     1      34.925 -19.135 -21.034  0.00  0.00    +0.051 C 
ATOM     30  C   UNL     1      34.846 -17.406 -23.194  0.00  0.00    -0.044 C 
ATOM     31  C   UNL     1      34.522 -19.614 -22.269  0.00  0.00    +0.014 C 
ATOM     32  C   UNL     1      35.289 -17.811 -20.854  0.00  0.00    +0.014 C 
ATOM     33  C   UNL     1      34.483 -18.743 -23.357  0.00  0.00    -0.005 C 
ATOM     34  C   UNL     1      35.249 -16.941 -21.942  0.00  0.00    -0.005 C 
BRANCH  30  35
ATOM     35  C   UNL     1      34.803 -16.474 -24.358  0.00  0.00    -0.059 C 
BRANCH  35  36
ATOM     36  N   UNL     1      34.131 -15.239 -24.046  0.00  0.00    +0.383 N 
ATOM     37  H   UNL     1      33.896 -15.219 -23.054  0.00  0.00    -0.089 HD
ATOM     38  H   UNL     1      33.276 -15.168 -24.599  0.00  0.00    -0.089 HD
ATOM     39  H   UNL     1      34.744 -14.454 -24.266  0.00  0.00    -0.089 HD
ENDBRANCH  35  36
ENDBRANCH  30  35
ENDBRANCH  26  29
ENDBRANCH   4  27
TORSDOF 6
ENDMDL
MODEL 3
REMARK VINA RESULT:     -12.0      1.901      4.593
REMARK  Name = 448605
REMARK  6 active torsions:
REMARK  status: ('A' for Active; 'I' for Inactive)
REMARK    1  A    between atoms: C_3  and  N_11
REMARK    2  A    between atoms: C_4  and  C_27
REMARK    3  A    between atoms: C_9  and  C_21
REMARK    4  A    between atoms: N_26  and  C_29
REMARK    5  A    between atoms: C_30  and  C_35
REMARK    6  A    between atoms: C_35  and  N_36
REMARK                            x       y       z     vdW  Elec       q    Type
REMARK                         _______ _______ _______ _____ _____    ______ ____
ROOT
ATOM      1  C   UNL     1      34.883 -23.519 -14.882  0.00  0.00    +0.014 C 
ATOM      2  C   UNL     1      35.949 -22.873 -15.554  0.00  0.00    +0.001 C 
ATOM      3  C   UNL     1      33.614 -23.551 -15.481  0.00  0.00    +0.057 C 
ATOM      4  C   UNL     1      34.444 -22.320 -17.384  0.00  0.00    +0.055 C 
ATOM      5  C   UNL     1      35.713 -22.279 -16.805  0.00  0.00    +0.005 C 
ATOM      6  C   UNL     1      33.397 -22.956 -16.724  0.00  0.00    +0.020 C 
ATOM      7  C   UNL     1      35.119 -24.113 -13.632  0.00  0.00    +0.004 C 
ATOM      8  C   UNL     1      37.219 -22.841 -14.955  0.00  0.00    +0.000 C 
ATOM      9  C   UNL     1      36.388 -24.072 -13.052  0.00  0.00    +0.031 C 
ATOM     10  C   UNL     1      37.436 -23.437 -13.713  0.00  0.00    +0.003 C 
ENDROOT
BRANCH   3  11
ATOM     11  N   UNL     1      32.512 -24.184 -14.853  0.00  0.00    -0.257 N 
ATOM     12  N   UNL     1      30.701 -23.098 -15.875  0.00  0.00    -0.180 NA
ATOM     13  N   UNL     1      30.342 -24.808 -14.215  0.00  0.00    -0.203 NA
ATOM     14  C   UNL     1      31.124 -24.023 -14.987  0.00  0.00    +0.091 C 
ATOM     15  C   UNL     1      29.362 -22.970 -15.978  0.00  0.00    +0.108 C 
ATOM     16  C   UNL     1      29.014 -24.627 -14.369  0.00  0.00    +0.165 C 
ATOM     17  C   UNL     1      28.461 -23.714 -15.244  0.00  0.00    +0.022 C 
ATOM     18  H   UNL     1      32.771 -24.868 -14.194  0.00  0.00    +0.164 HD
ENDBRANCH   3  11
BRANCH   9  21
ATOM     19  N   UNL     1      36.789 -23.926 -10.606  0.00  0.00    -0.343 N 
ATOM     20  N   UNL     1      36.666 -26.009 -11.658  0.00  0.00    -0.285 NA
ATOM     21  C   UNL     1      36.616 -24.693 -11.757  0.00  0.00    +0.117 C 
ATOM     22  H   UNL     1      36.943 -24.366  -9.740  0.00  0.00    +0.144 HD
ATOM     23  H   UNL     1      36.759 -22.943 -10.660  0.00  0.00    +0.144 HD
ATOM     24  H   UNL     1      36.820 -26.431 -10.781  0.00  0.00    +0.188 HD
ENDBRANCH   9  21
BRANCH   4  27
ATOM     25  O   UNL     1      33.248 -22.067 -19.363  0.00  0.00    -0.270 OA
ATOM     26  N   UNL     1      35.126 -20.698 -19.046  0.00  0.00    -0.280 N 
ATOM     27  C   UNL     1      34.217 -21.700 -18.680  0.00  0.00    +0.250 C 
ATOM     28  H   UNL     1      35.846 -20.517 -18.400  0.00  0.00    +0.155 HD
BRANCH  26  29
ATOM     29  C   UNL     1      35.144 -19.910 -20.223  0.00  0.00    +0.051 C 
ATOM     30  C   UNL     1      35.177 -18.370 -22.524  0.00  0.00    -0.044 C 
ATOM     31  C   UNL     1      34.005 -19.840 -21.007  0.00  0.00    +0.014 C 
ATOM     32  C   UNL     1      36.300 -19.228 -20.564  0.00  0.00    +0.014 C 
ATOM     33  C   UNL     1      34.022 -19.065 -22.166  0.00  0.00    -0.005 C 
ATOM     34  C   UNL     1      36.316 -18.452 -21.722  0.00  0.00    -0.005 C 
BRANCH  30  35
ATOM     35  C   UNL     1      35.195 -17.541 -23.763  0.00  0.00    -0.059 C 
BRANCH  35  36
ATOM     36  N   UNL     1      35.520 -16.163 -23.496  0.00  0.00    +0.383 N 
ATOM     37  H   UNL     1      35.813 -16.064 -22.524  0.00  0.00    -0.089 HD
ATOM     38  H   UNL     1      34.699 -15.581 -23.665  0.00  0.00    -0.089 HD
ATOM     39  H   UNL     1      36.278 -15.868 -24.111  0.00  0.00    -0.089 HD
ENDBRANCH  35  36
ENDBRANCH  30  35
ENDBRANCH  26  29
ENDBRANCH   4  27
TORSDOF 6
ENDMDL
MODEL 4
REMARK VINA RESULT:     -10.5      3.088      8.242
REMARK  Name = 448605
REMARK  6 active torsions:
REMARK  status: ('A' for Active; 'I' for Inactive)
REMARK    1  A    between atoms: C_3  and  N_11
REMARK    2  A    between atoms: C_4  and  C_27
REMARK    3  A    between atoms: C_9  and  C_21
REMARK    4  A    between atoms: N_26  and  C_29
REMARK    5  A    between atoms: C_30  and  C_35
REMARK    6  A    between atoms: C_35  and  N_36
REMARK                            x       y       z     vdW  Elec       q    Type
REMARK                         _______ _______ _______ _____ _____    ______ ____
ROOT
ATOM      1  C   UNL     1      30.809 -23.059 -15.789  0.00  0.00    +0.014 C 
ATOM      2  C   UNL     1      30.822 -23.772 -14.565  0.00  0.00    +0.001 C 
ATOM      3  C   UNL     1      32.026 -22.748 -16.415  0.00  0.00    +0.057 C 
ATOM      4  C   UNL     1      33.254 -23.832 -14.642  0.00  0.00    +0.055 C 
ATOM      5  C   UNL     1      32.054 -24.151 -14.005  0.00  0.00    +0.005 C 
ATOM      6  C   UNL     1      33.240 -23.132 -15.845  0.00  0.00    +0.020 C 
ATOM      7  C   UNL     1      29.578 -22.681 -16.349  0.00  0.00    +0.004 C 
ATOM      8  C   UNL     1      29.606 -24.083 -13.938  0.00  0.00    +0.000 C 
ATOM      9  C   UNL     1      28.378 -23.000 -15.712  0.00  0.00    +0.031 C 
ATOM     10  C   UNL     1      28.392 -23.700 -14.509  0.00  0.00    +0.003 C 
ENDROOT
BRANCH   3  11
ATOM     11  N   UNL     1      32.069 -22.038 -17.641  0.00  0.00    -0.257 N 
ATOM     12  N   UNL     1      34.380 -21.898 -18.021  0.00  0.00    -0.180 NA
ATOM     13  N   UNL     1      32.810 -20.937 -19.576  0.00  0.00    -0.203 NA
ATOM     14  C   UNL     1      33.133 -21.606 -18.448  0.00  0.00    +0.091 C 
ATOM     15  C   UNL     1      35.378 -21.468 -18.821  0.00  0.00    +0.108 C 
ATOM     16  C   UNL     1      33.856 -20.536 -20.328  0.00  0.00    +0.165 C 
ATOM     17  C   UNL     1      35.174 -20.776 -19.997  0.00  0.00    +0.022 C 
ATOM     18  H   UNL     1      31.181 -21.801 -17.993  0.00  0.00    +0.164 HD
ENDBRANCH   3  11
BRANCH   9  21
ATOM     19  N   UNL     1      26.120 -21.981 -15.547  0.00  0.00    -0.343 N 
ATOM     20  N   UNL     1      26.883 -22.830 -17.586  0.00  0.00    -0.285 NA
ATOM     21  C   UNL     1      27.111 -22.601 -16.305  0.00  0.00    +0.117 C 
ATOM     22  H   UNL     1      25.269 -21.719 -15.969  0.00  0.00    +0.144 HD
ATOM     23  H   UNL     1      26.269 -21.804 -14.590  0.00  0.00    +0.144 HD
ATOM     24  H   UNL     1      26.026 -22.561 -17.989  0.00  0.00    +0.188 HD
ENDBRANCH   9  21
BRANCH   4  27
ATOM     25  O   UNL     1      34.557 -24.520 -12.842  0.00  0.00    -0.270 OA
ATOM     26  N   UNL     1      35.616 -24.280 -14.922  0.00  0.00    -0.280 N 
ATOM     27  C   UNL     1      34.520 -24.232 -14.049  0.00  0.00    +0.250 C 
ATOM     28  H   UNL     1      35.433 -24.021 -15.853  0.00  0.00    +0.155 HD
BRANCH  26  29
ATOM     29  C   UNL     1      36.953 -24.653 -14.638  0.00  0.00    +0.051 C 
ATOM     30  C   UNL     1      39.566 -25.382 -14.084  0.00  0.00    -0.044 C 
ATOM     31  C   UNL     1      37.969 -23.737 -14.849  0.00  0.00    +0.014 C 
ATOM     32  C   UNL     1      37.213 -25.925 -14.157  0.00  0.00    +0.014 C 
ATOM     33  C   UNL     1      39.286 -24.104 -14.570  0.00  0.00    -0.005 C 
ATOM     34  C   UNL     1      38.529 -26.291 -13.878  0.00  0.00    -0.005 C 
BRANCH  30  35
ATOM     35  C   UNL     1      40.973 -25.773 -13.786  0.00  0.00    -0.059 C 
BRANCH  35  36
ATOM     36  N   UNL     1      41.100 -27.178 -13.491  0.00  0.00    +0.383 N 
ATOM     37  H   UNL     1      40.696 -27.724 -14.251  0.00  0.00    -0.089 HD
ATOM     38  H   UNL     1      40.608 -27.389 -12.622  0.00  0.00    -0.089 HD
ATOM     39  H   UNL     1      42.087 -27.415 -13.388  0.00  0.00    -0.089 HD
ENDBRANCH  35  36
ENDBRANCH  30  35
ENDBRANCH  26  29
ENDBRANCH   4  27
TORSDOF 6
ENDMDL
MODEL 5
REMARK VINA RESULT:      -9.7     10.123     17.448
REMARK  Name = 448605
REMARK  6 active torsions:
REMARK  status: ('A' for Active; 'I' for Inactive)
REMARK    1  A    between atoms: C_3  and  N_11
REMARK    2  A    between atoms: C_4  and  C_27
REMARK    3  A    between atoms: C_9  and  C_21
REMARK    4  A    between atoms: N_26  and  C_29
REMARK    5  A    between atoms: C_30  and  C_35
REMARK    6  A    between atoms: C_35  and  N_36
REMARK                            x       y       z     vdW  Elec       q    Type
REMARK                         _______ _______ _______ _____ _____    ______ ____
ROOT
ATOM      1  C   UNL     1      32.370  -6.020 -22.628  0.00  0.00    +0.014 C 
ATOM      2  C   UNL     1      31.383  -6.778 -21.953  0.00  0.00    +0.001 C 
ATOM      3  C   UNL     1      33.439  -6.683 -23.250  0.00  0.00    +0.057 C 
ATOM      4  C   UNL     1      32.566  -8.820 -22.543  0.00  0.00    +0.055 C 
ATOM      5  C   UNL     1      31.496  -8.178 -21.920  0.00  0.00    +0.005 C 
ATOM      6  C   UNL     1      33.536  -8.075 -23.208  0.00  0.00    +0.020 C 
ATOM      7  C   UNL     1      32.257  -4.621 -22.661  0.00  0.00    +0.004 C 
ATOM      8  C   UNL     1      30.314  -6.114 -21.330  0.00  0.00    +0.000 C 
ATOM      9  C   UNL     1      31.187  -3.977 -22.037  0.00  0.00    +0.031 C 
ATOM     10  C   UNL     1      30.217  -4.723 -21.374  0.00  0.00    +0.003 C 
ENDROOT
BRANCH   3  11
ATOM     11  N   UNL     1      34.453  -5.974 -23.940  0.00  0.00    -0.257 N 
ATOM     12  N   UNL     1      33.271  -5.139 -25.786  0.00  0.00    -0.180 NA
ATOM     13  N   UNL     1      35.619  -4.674 -25.508  0.00  0.00    -0.203 NA
ATOM     14  C   UNL     1      34.447  -5.229 -25.130  0.00  0.00    +0.091 C 
ATOM     15  C   UNL     1      33.301  -4.417 -26.925  0.00  0.00    +0.108 C 
ATOM     16  C   UNL     1      35.577  -3.966 -26.656  0.00  0.00    +0.165 C 
ATOM     17  C   UNL     1      34.436  -3.801 -27.413  0.00  0.00    +0.022 C 
ATOM     18  H   UNL     1      35.333  -6.011 -23.499  0.00  0.00    +0.164 HD
ENDBRANCH   3  11
BRANCH   9  21
ATOM     19  N   UNL     1      30.089  -1.893 -22.822  0.00  0.00    -0.343 N 
ATOM     20  N   UNL     1      31.949  -1.786 -21.412  0.00  0.00    -0.285 NA
ATOM     21  C   UNL     1      31.084  -2.527 -22.081  0.00  0.00    +0.117 C 
ATOM     22  H   UNL     1      30.037  -0.911 -22.838  0.00  0.00    +0.144 HD
ATOM     23  H   UNL     1      29.436  -2.429 -23.330  0.00  0.00    +0.144 HD
ATOM     24  H   UNL     1      31.881  -0.804 -21.440  0.00  0.00    +0.188 HD
ENDBRANCH   9  21
BRANCH   4  27
ATOM     25  O   UNL     1      32.067 -10.891 -21.609  0.00  0.00    -0.270 OA
ATOM     26  N   UNL     1      33.439 -10.860 -23.512  0.00  0.00    -0.280 N 
ATOM     27  C   UNL     1      32.668 -10.271 -22.500  0.00  0.00    +0.250 C 
ATOM     28  H   UNL     1      33.857 -10.237 -24.149  0.00  0.00    +0.155 HD
BRANCH  26  29
ATOM     29  C   UNL     1      33.696 -12.235 -23.738  0.00  0.00    +0.051 C 
ATOM     30  C   UNL     1      34.197 -14.921 -24.178  0.00  0.00    -0.044 C 
ATOM     31  C   UNL     1      34.315 -12.978 -22.748  0.00  0.00    +0.014 C 
ATOM     32  C   UNL     1      33.322 -12.804 -24.943  0.00  0.00    +0.014 C 
ATOM     33  C   UNL     1      34.568 -14.332 -22.969  0.00  0.00    -0.005 C 
ATOM     34  C   UNL     1      33.574 -14.157 -25.164  0.00  0.00    -0.005 C 
BRANCH  30  35
ATOM     35  C   UNL     1      34.467 -16.369 -24.415  0.00  0.00    -0.059 C 
BRANCH  35  36
ATOM     36  N   UNL     1      35.287 -16.949 -23.382  0.00  0.00    +0.383 N 
ATOM     37  H   UNL     1      34.874 -17.829 -23.073  0.00  0.00    -0.089 HD
ATOM     38  H   UNL     1      35.346 -16.306 -22.593  0.00  0.00    -0.089 HD
ATOM     39  H   UNL     1      36.222 -17.123 -23.749  0.00  0.00    -0.089 HD
ENDBRANCH  35  36
ENDBRANCH  30  35
ENDBRANCH  26  29
ENDBRANCH   4  27
TORSDOF 6
ENDMDL
