MODEL 1
REMARK VINA RESULT:     -12.7      0.000      0.000
REMARK  Name = 12087505
REMARK  3 active torsions:
REMARK  status: ('A' for Active; 'I' for Inactive)
REMARK    1  A    between atoms: C_1  and  S_18
REMARK    2  A    between atoms: C_4  and  N_9
REMARK    3  A    between atoms: S_18  and  N_21
REMARK                            x       y       z     vdW  Elec       q    Type
REMARK                         _______ _______ _______ _____ _____    ______ ____
ROOT
ATOM      1  C   UNL     1      35.012 -20.954 -19.412  0.00  0.00    +0.123 C 
ATOM      2  C   UNL     1      34.555 -20.039 -20.346  0.00  0.00    +0.035 C 
ATOM      3  C   UNL     1      36.343 -20.992 -19.031  0.00  0.00    +0.020 C 
ATOM      4  C   UNL     1      35.454 -19.136 -20.914  0.00  0.00    +0.053 C 
ATOM      5  C   UNL     1      37.243 -20.088 -19.597  0.00  0.00    +0.003 C 
ATOM      6  C   UNL     1      36.797 -19.160 -20.539  0.00  0.00    +0.015 C 
ENDROOT
BRANCH   4   9
ATOM      7  S   UNL     1      33.585 -14.561 -24.749  0.00  0.00    -0.051 S 
ATOM      8  O   UNL     1      35.306 -16.160 -20.761  0.00  0.00    -0.252 OA
ATOM      9  N   UNL     1      35.009 -18.208 -21.856  0.00  0.00    -0.268 N 
ATOM     10  N   UNL     1      34.435 -16.251 -22.935  0.00  0.00    -0.248 N 
ATOM     11  N   UNL     1      34.479 -13.899 -22.416  0.00  0.00    -0.222 NA
ATOM     12  C   UNL     1      34.953 -16.796 -21.750  0.00  0.00    +0.310 C 
ATOM     13  C   UNL     1      34.230 -14.897 -23.208  0.00  0.00    +0.167 C 
ATOM     14  C   UNL     1      33.628 -12.894 -24.351  0.00  0.00    +0.059 C 
ATOM     15  C   UNL     1      34.132 -12.736 -23.075  0.00  0.00    +0.108 C 
ATOM     16  H   UNL     1      34.690 -18.584 -22.708  0.00  0.00    +0.156 HD
ATOM     17  H   UNL     1      34.193 -16.888 -23.646  0.00  0.00    +0.158 HD
ENDBRANCH   4   9
BRANCH   1  18
ATOM     18  S   UNL     1      33.875 -22.099 -18.695  0.00  0.00    +0.063 S 
ATOM     19  O   UNL     1      32.597 -21.433 -18.568  0.00  0.00    -0.153 OA
ATOM     20  O   UNL     1      33.997 -23.353 -19.408  0.00  0.00    -0.153 OA
BRANCH  18  21
ATOM     21  N   UNL     1      34.571 -22.273 -17.140  0.00  0.00    -0.152 NA
ATOM     22  N   UNL     1      35.858 -23.124 -14.760  0.00  0.00    -0.290 N 
ATOM     23  C   UNL     1      33.906 -23.267 -16.250  0.00  0.00    +0.117 C 
ATOM     24  C   UNL     1      36.051 -22.440 -17.115  0.00  0.00    +0.117 C 
ATOM     25  C   UNL     1      34.391 -23.071 -14.816  0.00  0.00    +0.111 C 
ATOM     26  C   UNL     1      36.565 -22.238 -15.692  0.00  0.00    +0.111 C 
ATOM     27  N   UNL     1      35.826 -23.137 -12.364  0.00  0.00    -0.229 NA
ATOM     28  C   UNL     1      36.452 -23.459 -13.538  0.00  0.00    +0.132 C 
ATOM     29  C   UNL     1      37.686 -24.122 -13.554  0.00  0.00    +0.034 C 
ATOM     30  C   UNL     1      38.288 -24.460 -12.347  0.00  0.00    +0.004 C 
ATOM     31  C   UNL     1      36.441 -23.483 -11.211  0.00  0.00    +0.100 C 
ATOM     32  C   UNL     1      37.660 -24.140 -11.149  0.00  0.00    +0.021 C 
ENDBRANCH  18  21
ENDBRANCH   1  18
TORSDOF 3
ENDMDL
MODEL 2
REMARK VINA RESULT:     -12.4      2.268     10.918
REMARK  Name = 12087505
REMARK  3 active torsions:
REMARK  status: ('A' for Active; 'I' for Inactive)
REMARK    1  A    between atoms: C_1  and  S_18
REMARK    2  A    between atoms: C_4  and  N_9
REMARK    3  A    between atoms: S_18  and  N_21
REMARK                            x       y       z     vdW  Elec       q    Type
REMARK                         _______ _______ _______ _____ _____    ______ ____
ROOT
ATOM      1  C   UNL     1      34.918 -19.484 -21.256  0.00  0.00    +0.123 C 
ATOM      2  C   UNL     1      35.642 -20.040 -20.215  0.00  0.00    +0.035 C 
ATOM      3  C   UNL     1      33.539 -19.599 -21.318  0.00  0.00    +0.020 C 
ATOM      4  C   UNL     1      34.968 -20.728 -19.206  0.00  0.00    +0.053 C 
ATOM      5  C   UNL     1      32.864 -20.287 -20.309  0.00  0.00    +0.003 C 
ATOM      6  C   UNL     1      33.580 -20.851 -19.252  0.00  0.00    +0.015 C 
ENDROOT
BRANCH   4   9
ATOM      7  S   UNL     1      37.718 -23.602 -14.377  0.00  0.00    -0.051 S 
ATOM      8  O   UNL     1      34.208 -22.907 -17.314  0.00  0.00    -0.252 OA
ATOM      9  N   UNL     1      35.683 -21.293 -18.149  0.00  0.00    -0.268 N 
ATOM     10  N   UNL     1      36.320 -22.587 -16.348  0.00  0.00    -0.248 N 
ATOM     11  N   UNL     1      35.335 -24.355 -15.041  0.00  0.00    -0.222 NA
ATOM     12  C   UNL     1      35.291 -22.330 -17.267  0.00  0.00    +0.310 C 
ATOM     13  C   UNL     1      36.303 -23.538 -15.325  0.00  0.00    +0.167 C 
ATOM     14  C   UNL     1      36.990 -24.859 -13.464  0.00  0.00    +0.059 C 
ATOM     15  C   UNL     1      35.730 -25.122 -13.962  0.00  0.00    +0.108 C 
ATOM     16  H   UNL     1      36.581 -20.919 -17.994  0.00  0.00    +0.156 HD
ATOM     17  H   UNL     1      37.135 -22.042 -16.432  0.00  0.00    +0.158 HD
ENDBRANCH   4   9
BRANCH   1  18
ATOM     18  S   UNL     1      35.770 -18.615 -22.535  0.00  0.00    +0.063 S 
ATOM     19  O   UNL     1      37.135 -18.413 -22.100  0.00  0.00    -0.153 OA
ATOM     20  O   UNL     1      35.476 -19.269 -23.792  0.00  0.00    -0.153 OA
BRANCH  18  21
ATOM     21  N   UNL     1      34.940 -17.117 -22.480  0.00  0.00    -0.152 NA
ATOM     22  N   UNL     1      34.122 -14.402 -22.482  0.00  0.00    -0.290 N 
ATOM     23  C   UNL     1      35.288 -16.236 -21.330  0.00  0.00    +0.117 C 
ATOM     24  C   UNL     1      34.921 -16.348 -23.756  0.00  0.00    +0.117 C 
ATOM     25  C   UNL     1      34.250 -15.124 -21.209  0.00  0.00    +0.111 C 
ATOM     26  C   UNL     1      33.881 -15.235 -23.667  0.00  0.00    +0.111 C 
ATOM     27  N   UNL     1      32.741 -12.729 -21.464  0.00  0.00    -0.229 NA
ATOM     28  C   UNL     1      33.625 -13.094 -22.443  0.00  0.00    +0.132 C 
ATOM     29  C   UNL     1      34.053 -12.187 -23.421  0.00  0.00    +0.034 C 
ATOM     30  C   UNL     1      33.567 -10.884 -23.395  0.00  0.00    +0.004 C 
ATOM     31  C   UNL     1      32.292 -11.454 -21.470  0.00  0.00    +0.100 C 
ATOM     32  C   UNL     1      32.671 -10.502 -22.404  0.00  0.00    +0.021 C 
ENDBRANCH  18  21
ENDBRANCH   1  18
TORSDOF 3
ENDMDL
MODEL 3
REMARK VINA RESULT:     -11.6      3.130     10.606
REMARK  Name = 12087505
REMARK  3 active torsions:
REMARK  status: ('A' for Active; 'I' for Inactive)
REMARK    1  A    between atoms: C_1  and  S_18
REMARK    2  A    between atoms: C_4  and  N_9
REMARK    3  A    between atoms: S_18  and  N_21
REMARK                            x       y       z     vdW  Elec       q    Type
REMARK                         _______ _______ _______ _____ _____    ______ ____
ROOT
ATOM      1  C   UNL     1      35.021 -19.481 -20.924  0.00  0.00    +0.123 C 
ATOM      2  C   UNL     1      35.160 -20.248 -19.780  0.00  0.00    +0.035 C 
ATOM      3  C   UNL     1      33.809 -19.388 -21.588  0.00  0.00    +0.020 C 
ATOM      4  C   UNL     1      34.055 -20.941 -19.284  0.00  0.00    +0.053 C 
ATOM      5  C   UNL     1      32.703 -20.080 -21.092  0.00  0.00    +0.003 C 
ATOM      6  C   UNL     1      32.827 -20.856 -19.940  0.00  0.00    +0.015 C 
ENDROOT
BRANCH   4   9
ATOM      7  S   UNL     1      34.029 -24.442 -14.100  0.00  0.00    -0.051 S 
ATOM      8  O   UNL     1      31.954 -22.155 -17.548  0.00  0.00    -0.252 OA
ATOM      9  N   UNL     1      34.178 -21.717 -18.131  0.00  0.00    -0.268 N 
ATOM     10  N   UNL     1      33.726 -22.989 -16.260  0.00  0.00    -0.248 N 
ATOM     11  N   UNL     1      31.752 -23.788 -15.134  0.00  0.00    -0.222 NA
ATOM     12  C   UNL     1      33.155 -22.280 -17.328  0.00  0.00    +0.310 C 
ATOM     13  C   UNL     1      33.039 -23.679 -15.258  0.00  0.00    +0.167 C 
ATOM     14  C   UNL     1      32.605 -24.997 -13.320  0.00  0.00    +0.059 C 
ATOM     15  C   UNL     1      31.497 -24.552 -14.012  0.00  0.00    +0.108 C 
ATOM     16  H   UNL     1      35.100 -21.897 -17.835  0.00  0.00    +0.156 HD
ATOM     17  H   UNL     1      34.709 -23.002 -16.212  0.00  0.00    +0.158 HD
ENDBRANCH   4   9
BRANCH   1  18
ATOM     18  S   UNL     1      36.420 -18.606 -21.554  0.00  0.00    +0.063 S 
ATOM     19  O   UNL     1      37.471 -18.679 -20.562  0.00  0.00    -0.153 OA
ATOM     20  O   UNL     1      36.645 -19.045 -22.914  0.00  0.00    -0.153 OA
BRANCH  18  21
ATOM     21  N   UNL     1      35.787 -17.014 -21.580  0.00  0.00    -0.152 NA
ATOM     22  N   UNL     1      34.199 -14.665 -21.604  0.00  0.00    -0.290 N 
ATOM     23  C   UNL     1      35.010 -16.655 -22.800  0.00  0.00    +0.117 C 
ATOM     24  C   UNL     1      35.069 -16.590 -20.345  0.00  0.00    +0.117 C 
ATOM     25  C   UNL     1      34.813 -15.143 -22.850  0.00  0.00    +0.111 C 
ATOM     26  C   UNL     1      34.867 -15.077 -20.364  0.00  0.00    +0.111 C 
ATOM     27  N   UNL     1      33.877 -12.478 -22.531  0.00  0.00    -0.229 NA
ATOM     28  C   UNL     1      33.503 -13.451 -21.645  0.00  0.00    +0.132 C 
ATOM     29  C   UNL     1      32.430 -13.267 -20.763  0.00  0.00    +0.034 C 
ATOM     30  C   UNL     1      31.729 -12.066 -20.791  0.00  0.00    +0.004 C 
ATOM     31  C   UNL     1      33.172 -11.325 -22.530  0.00  0.00    +0.100 C 
ATOM     32  C   UNL     1      32.100 -11.072 -21.689  0.00  0.00    +0.021 C 
ENDBRANCH  18  21
ENDBRANCH   1  18
TORSDOF 3
ENDMDL
MODEL 4
REMARK VINA RESULT:     -11.4      5.938     14.455
REMARK  Name = 12087505
REMARK  3 active torsions:
REMARK  status: ('A' for Active; 'I' for Inactive)
REMARK    1  A    between atoms: C_1  and  S_18
REMARK    2  A    between atoms: C_4  and  N_9
REMARK    3  A    between atoms: S_18  and  N_21
REMARK                            x       y       z     vdW  Elec       q    Type
REMARK                         _______ _______ _______ _____ _____    ______ ____
ROOT
ATOM      1  C   UNL     1      32.738 -11.122 -22.360  0.00  0.00    +0.123 C 
ATOM      2  C   UNL     1      32.952 -12.487 -22.272  0.00  0.00    +0.035 C 
ATOM      3  C   UNL     1      33.244 -10.379 -23.413  0.00  0.00    +0.020 C 
ATOM      4  C   UNL     1      33.692 -13.128 -23.266  0.00  0.00    +0.053 C 
ATOM      5  C   UNL     1      33.984 -11.019 -24.408  0.00  0.00    +0.003 C 
ATOM      6  C   UNL     1      34.207 -12.394 -24.334  0.00  0.00    +0.015 C 
ENDROOT
BRANCH   4   9
ATOM      7  S   UNL     1      34.945 -19.199 -22.425  0.00  0.00    -0.051 S 
ATOM      8  O   UNL     1      35.007 -14.753 -21.138  0.00  0.00    -0.252 OA
ATOM      9  N   UNL     1      33.915 -14.503 -23.193  0.00  0.00    -0.268 N 
ATOM     10  N   UNL     1      34.558 -16.608 -22.498  0.00  0.00    -0.248 N 
ATOM     11  N   UNL     1      35.673 -17.542 -20.579  0.00  0.00    -0.222 NA
ATOM     12  C   UNL     1      34.546 -15.245 -22.163  0.00  0.00    +0.310 C 
ATOM     13  C   UNL     1      35.092 -17.648 -21.735  0.00  0.00    +0.167 C 
ATOM     14  C   UNL     1      35.741 -19.835 -21.046  0.00  0.00    +0.059 C 
ATOM     15  C   UNL     1      36.050 -18.809 -20.176  0.00  0.00    +0.108 C 
ATOM     16  H   UNL     1      33.592 -15.029 -23.961  0.00  0.00    +0.156 HD
ATOM     17  H   UNL     1      34.148 -16.855 -23.359  0.00  0.00    +0.158 HD
ENDBRANCH   4   9
BRANCH   1  18
ATOM     18  S   UNL     1      31.803 -10.310 -21.101  0.00  0.00    +0.063 S 
ATOM     19  O   UNL     1      30.413 -10.666 -21.283  0.00  0.00    -0.153 OA
ATOM     20  O   UNL     1      32.472 -10.532 -19.837  0.00  0.00    -0.153 OA
BRANCH  18  21
ATOM     21  N   UNL     1      32.027  -8.678 -21.571  0.00  0.00    -0.152 NA
ATOM     22  N   UNL     1      31.930  -5.872 -21.969  0.00  0.00    -0.290 N 
ATOM     23  C   UNL     1      30.906  -8.076 -22.346  0.00  0.00    +0.117 C 
ATOM     24  C   UNL     1      32.485  -7.758 -20.492  0.00  0.00    +0.117 C 
ATOM     25  C   UNL     1      31.373  -6.773 -22.987  0.00  0.00    +0.111 C 
ATOM     26  C   UNL     1      32.969  -6.448 -21.107  0.00  0.00    +0.111 C 
ATOM     27  N   UNL     1      32.055  -4.071 -23.545  0.00  0.00    -0.229 NA
ATOM     28  C   UNL     1      31.946  -4.501 -22.251  0.00  0.00    +0.132 C 
ATOM     29  C   UNL     1      31.848  -3.599 -21.183  0.00  0.00    +0.034 C 
ATOM     30  C   UNL     1      31.863  -2.234 -21.447  0.00  0.00    +0.004 C 
ATOM     31  C   UNL     1      32.064  -2.736 -23.763  0.00  0.00    +0.100 C 
ATOM     32  C   UNL     1      31.972  -1.786 -22.758  0.00  0.00    +0.021 C 
ENDBRANCH  18  21
ENDBRANCH   1  18
TORSDOF 3
ENDMDL
MODEL 5
REMARK VINA RESULT:     -11.2      2.374     11.057
REMARK  Name = 12087505
REMARK  3 active torsions:
REMARK  status: ('A' for Active; 'I' for Inactive)
REMARK    1  A    between atoms: C_1  and  S_18
REMARK    2  A    between atoms: C_4  and  N_9
REMARK    3  A    between atoms: S_18  and  N_21
REMARK                            x       y       z     vdW  Elec       q    Type
REMARK                         _______ _______ _______ _____ _____    ______ ____
ROOT
ATOM      1  C   UNL     1      35.240 -19.026 -22.349  0.00  0.00    +0.123 C 
ATOM      2  C   UNL     1      34.714 -19.801 -21.329  0.00  0.00    +0.035 C 
ATOM      3  C   UNL     1      36.509 -18.479 -22.258  0.00  0.00    +0.020 C 
ATOM      4  C   UNL     1      35.480 -20.037 -20.187  0.00  0.00    +0.053 C 
ATOM      5  C   UNL     1      37.276 -18.715 -21.117  0.00  0.00    +0.003 C 
ATOM      6  C   UNL     1      36.760 -19.495 -20.081  0.00  0.00    +0.015 C 
ENDROOT
BRANCH   4   9
ATOM      7  S   UNL     1      33.717 -23.634 -15.382  0.00  0.00    -0.051 S 
ATOM      8  O   UNL     1      36.887 -21.559 -18.041  0.00  0.00    -0.252 OA
ATOM      9  N   UNL     1      34.965 -20.817 -19.151  0.00  0.00    -0.268 N 
ATOM     10  N   UNL     1      34.751 -22.183 -17.303  0.00  0.00    -0.248 N 
ATOM     11  N   UNL     1      36.248 -23.263 -15.755  0.00  0.00    -0.222 NA
ATOM     12  C   UNL     1      35.664 -21.529 -18.145  0.00  0.00    +0.310 C 
ATOM     13  C   UNL     1      35.062 -22.982 -16.201  0.00  0.00    +0.167 C 
ATOM     14  C   UNL     1      34.808 -24.390 -14.295  0.00  0.00    +0.059 C 
ATOM     15  C   UNL     1      36.104 -24.079 -14.651  0.00  0.00    +0.108 C 
ATOM     16  H   UNL     1      33.982 -20.883 -19.115  0.00  0.00    +0.156 HD
ATOM     17  H   UNL     1      33.796 -22.067 -17.512  0.00  0.00    +0.158 HD
ENDBRANCH   4   9
BRANCH   1  18
ATOM     18  S   UNL     1      34.271 -18.724 -23.794  0.00  0.00    +0.063 S 
ATOM     19  O   UNL     1      34.985 -19.270 -24.928  0.00  0.00    -0.153 OA
ATOM     20  O   UNL     1      32.909 -19.121 -23.507  0.00  0.00    -0.153 OA
BRANCH  18  21
ATOM     21  N   UNL     1      34.351 -17.014 -23.854  0.00  0.00    -0.152 NA
ATOM     22  N   UNL     1      33.919 -14.214 -23.725  0.00  0.00    -0.290 N 
ATOM     23  C   UNL     1      33.410 -16.363 -24.809  0.00  0.00    +0.117 C 
ATOM     24  C   UNL     1      34.335 -16.325 -22.533  0.00  0.00    +0.117 C 
ATOM     25  C   UNL     1      33.822 -14.908 -25.016  0.00  0.00    +0.111 C 
ATOM     26  C   UNL     1      34.754 -14.869 -22.710  0.00  0.00    +0.111 C 
ATOM     27  N   UNL     1      34.188 -12.097 -24.815  0.00  0.00    -0.229 NA
ATOM     28  C   UNL     1      33.792 -12.820 -23.723  0.00  0.00    +0.132 C 
ATOM     29  C   UNL     1      33.256 -12.200 -22.587  0.00  0.00    +0.034 C 
ATOM     30  C   UNL     1      33.125 -10.816 -22.570  0.00  0.00    +0.004 C 
ATOM     31  C   UNL     1      34.043 -10.754 -24.763  0.00  0.00    +0.100 C 
ATOM     32  C   UNL     1      33.522 -10.072 -23.674  0.00  0.00    +0.021 C 
ENDBRANCH  18  21
ENDBRANCH   1  18
TORSDOF 3
ENDMDL
MODEL 6
REMARK VINA RESULT:     -11.2      7.006     15.131
REMARK  Name = 12087505
REMARK  3 active torsions:
REMARK  status: ('A' for Active; 'I' for Inactive)
REMARK    1  A    between atoms: C_1  and  S_18
REMARK    2  A    between atoms: C_4  and  N_9
REMARK    3  A    between atoms: S_18  and  N_21
REMARK                            x       y       z     vdW  Elec       q    Type
REMARK                         _______ _______ _______ _____ _____    ______ ____
ROOT
ATOM      1  C   UNL     1      32.790 -10.190 -22.269  0.00  0.00    +0.123 C 
ATOM      2  C   UNL     1      32.791 -11.551 -22.528  0.00  0.00    +0.035 C 
ATOM      3  C   UNL     1      33.641  -9.328 -22.939  0.00  0.00    +0.020 C 
ATOM      4  C   UNL     1      33.667 -12.063 -23.486  0.00  0.00    +0.053 C 
ATOM      5  C   UNL     1      34.517  -9.838 -23.898  0.00  0.00    +0.003 C 
ATOM      6  C   UNL     1      34.529 -11.207 -24.171  0.00  0.00    +0.015 C 
ENDROOT
BRANCH   4   9
ATOM      7  S   UNL     1      34.079 -18.257 -24.262  0.00  0.00    -0.051 S 
ATOM      8  O   UNL     1      35.083 -14.291 -22.096  0.00  0.00    -0.252 OA
ATOM      9  N   UNL     1      33.680 -13.431 -23.760  0.00  0.00    -0.268 N 
ATOM     10  N   UNL     1      34.099 -15.699 -23.691  0.00  0.00    -0.248 N 
ATOM     11  N   UNL     1      35.391 -17.188 -22.308  0.00  0.00    -0.222 NA
ATOM     12  C   UNL     1      34.366 -14.465 -23.077  0.00  0.00    +0.310 C 
ATOM     13  C   UNL     1      34.596 -16.945 -23.304  0.00  0.00    +0.167 C 
ATOM     14  C   UNL     1      35.008 -19.292 -23.259  0.00  0.00    +0.059 C 
ATOM     15  C   UNL     1      35.633 -18.548 -22.279  0.00  0.00    +0.108 C 
ATOM     16  H   UNL     1      33.140 -13.715 -24.533  0.00  0.00    +0.156 HD
ATOM     17  H   UNL     1      33.502 -15.683 -24.473  0.00  0.00    +0.158 HD
ENDBRANCH   4   9
BRANCH   1  18
ATOM     18  S   UNL     1      31.684  -9.543 -21.054  0.00  0.00    +0.063 S 
ATOM     19  O   UNL     1      30.492 -10.364 -21.058  0.00  0.00    -0.153 OA
ATOM     20  O   UNL     1      32.436  -9.323 -19.838  0.00  0.00    -0.153 OA
BRANCH  18  21
ATOM     21  N   UNL     1      31.318  -8.027 -21.764  0.00  0.00    -0.152 NA
ATOM     22  N   UNL     1      31.310  -5.511 -23.073  0.00  0.00    -0.290 N 
ATOM     23  C   UNL     1      31.947  -6.846 -21.108  0.00  0.00    +0.117 C 
ATOM     24  C   UNL     1      31.471  -7.960 -23.244  0.00  0.00    +0.117 C 
ATOM     25  C   UNL     1      31.274  -5.570 -21.606  0.00  0.00    +0.111 C 
ATOM     26  C   UNL     1      30.797  -6.696 -23.772  0.00  0.00    +0.111 C 
ATOM     27  N   UNL     1      30.504  -3.255 -23.063  0.00  0.00    -0.229 NA
ATOM     28  C   UNL     1      31.209  -4.253 -23.678  0.00  0.00    +0.132 C 
ATOM     29  C   UNL     1      31.841  -4.053 -24.912  0.00  0.00    +0.034 C 
ATOM     30  C   UNL     1      31.749  -2.808 -25.526  0.00  0.00    +0.004 C 
ATOM     31  C   UNL     1      30.438  -2.058 -23.689  0.00  0.00    +0.100 C 
ATOM     32  C   UNL     1      31.037  -1.786 -24.909  0.00  0.00    +0.021 C 
ENDBRANCH  18  21
ENDBRANCH   1  18
TORSDOF 3
ENDMDL
MODEL 7
REMARK VINA RESULT:     -10.8      7.059     11.203
REMARK  Name = 12087505
REMARK  3 active torsions:
REMARK  status: ('A' for Active; 'I' for Inactive)
REMARK    1  A    between atoms: C_1  and  S_18
REMARK    2  A    between atoms: C_4  and  N_9
REMARK    3  A    between atoms: S_18  and  N_21
REMARK                            x       y       z     vdW  Elec       q    Type
REMARK                         _______ _______ _______ _____ _____    ______ ____
ROOT
ATOM      1  C   UNL     1      32.798 -10.900 -22.757  0.00  0.00    +0.123 C 
ATOM      2  C   UNL     1      32.757  -9.522 -22.624  0.00  0.00    +0.035 C 
ATOM      3  C   UNL     1      32.122 -11.729 -21.879  0.00  0.00    +0.020 C 
ATOM      4  C   UNL     1      32.018  -8.958 -21.584  0.00  0.00    +0.053 C 
ATOM      5  C   UNL     1      31.381 -11.166 -20.838  0.00  0.00    +0.003 C 
ATOM      6  C   UNL     1      31.330  -9.780 -20.692  0.00  0.00    +0.015 C 
ENDROOT
BRANCH   4   9
ATOM      7  S   UNL     1      31.517  -2.724 -21.439  0.00  0.00    -0.051 S 
ATOM      8  O   UNL     1      30.889  -6.872 -23.394  0.00  0.00    -0.252 OA
ATOM      9  N   UNL     1      31.965  -7.571 -21.437  0.00  0.00    -0.268 N 
ATOM     10  N   UNL     1      31.582  -5.322 -21.778  0.00  0.00    -0.248 N 
ATOM     11  N   UNL     1      30.569  -3.970 -23.496  0.00  0.00    -0.222 NA
ATOM     12  C   UNL     1      31.420  -6.606 -22.320  0.00  0.00    +0.310 C 
ATOM     13  C   UNL     1      31.172  -4.118 -22.356  0.00  0.00    +0.167 C 
ATOM     14  C   UNL     1      30.790  -1.788 -22.678  0.00  0.00    +0.059 C 
ATOM     15  C   UNL     1      30.346  -2.620 -23.686  0.00  0.00    +0.108 C 
ATOM     16  H   UNL     1      32.362  -7.215 -20.609  0.00  0.00    +0.156 HD
ATOM     17  H   UNL     1      32.029  -5.264 -20.903  0.00  0.00    +0.158 HD
ENDBRANCH   4   9
BRANCH   1  18
ATOM     18  S   UNL     1      33.736 -11.614 -24.072  0.00  0.00    +0.063 S 
ATOM     19  O   UNL     1      32.907 -11.614 -25.258  0.00  0.00    -0.153 OA
ATOM     20  O   UNL     1      35.043 -10.993 -24.075  0.00  0.00    -0.153 OA
BRANCH  18  21
ATOM     21  N   UNL     1      33.883 -13.219 -23.493  0.00  0.00    -0.152 NA
ATOM     22  N   UNL     1      34.718 -15.802 -22.672  0.00  0.00    -0.290 N 
ATOM     23  C   UNL     1      34.274 -14.233 -24.513  0.00  0.00    +0.117 C 
ATOM     24  C   UNL     1      34.682 -13.380 -22.246  0.00  0.00    +0.117 C 
ATOM     25  C   UNL     1      34.030 -15.633 -23.959  0.00  0.00    +0.111 C 
ATOM     26  C   UNL     1      34.447 -14.771 -21.663  0.00  0.00    +0.111 C 
ATOM     27  N   UNL     1      34.231 -18.148 -22.651  0.00  0.00    -0.229 NA
ATOM     28  C   UNL     1      35.027 -17.105 -22.264  0.00  0.00    +0.132 C 
ATOM     29  C   UNL     1      36.157 -17.303 -21.461  0.00  0.00    +0.034 C 
ATOM     30  C   UNL     1      36.477 -18.592 -21.047  0.00  0.00    +0.004 C 
ATOM     31  C   UNL     1      34.573 -19.387 -22.230  0.00  0.00    +0.100 C 
ATOM     32  C   UNL     1      35.676 -19.659 -21.435  0.00  0.00    +0.021 C 
ENDBRANCH  18  21
ENDBRANCH   1  18
TORSDOF 3
ENDMDL
MODEL 8
REMARK VINA RESULT:     -10.8      3.858      7.197
REMARK  Name = 12087505
REMARK  3 active torsions:
REMARK  status: ('A' for Active; 'I' for Inactive)
REMARK    1  A    between atoms: C_1  and  S_18
REMARK    2  A    between atoms: C_4  and  N_9
REMARK    3  A    between atoms: S_18  and  N_21
REMARK                            x       y       z     vdW  Elec       q    Type
REMARK                         _______ _______ _______ _____ _____    ______ ____
ROOT
ATOM      1  C   UNL     1      36.876 -24.072 -13.327  0.00  0.00    +0.123 C 
ATOM      2  C   UNL     1      36.732 -23.181 -14.377  0.00  0.00    +0.035 C 
ATOM      3  C   UNL     1      37.980 -24.902 -13.231  0.00  0.00    +0.020 C 
ATOM      4  C   UNL     1      37.720 -23.118 -15.359  0.00  0.00    +0.053 C 
ATOM      5  C   UNL     1      38.970 -24.839 -14.213  0.00  0.00    +0.003 C 
ATOM      6  C   UNL     1      38.839 -23.946 -15.277  0.00  0.00    +0.015 C 
ENDROOT
BRANCH   4   9
ATOM      7  S   UNL     1      36.600 -19.315 -20.198  0.00  0.00    -0.051 S 
ATOM      8  O   UNL     1      35.405 -22.605 -17.170  0.00  0.00    -0.252 OA
ATOM      9  N   UNL     1      37.591 -22.225 -16.424  0.00  0.00    -0.268 N 
ATOM     10  N   UNL     1      36.775 -21.014 -18.211  0.00  0.00    -0.248 N 
ATOM     11  N   UNL     1      34.707 -20.904 -19.440  0.00  0.00    -0.222 NA
ATOM     12  C   UNL     1      36.472 -22.007 -17.266  0.00  0.00    +0.310 C 
ATOM     13  C   UNL     1      35.927 -20.527 -19.208  0.00  0.00    +0.167 C 
ATOM     14  C   UNL     1      35.115 -19.259 -21.055  0.00  0.00    +0.059 C 
ATOM     15  C   UNL     1      34.233 -20.171 -20.511  0.00  0.00    +0.108 C 
ATOM     16  H   UNL     1      38.384 -21.673 -16.616  0.00  0.00    +0.156 HD
ATOM     17  H   UNL     1      37.677 -20.621 -18.165  0.00  0.00    +0.158 HD
ENDBRANCH   4   9
BRANCH   1  18
ATOM     18  S   UNL     1      35.624 -24.154 -12.084  0.00  0.00    +0.063 S 
ATOM     19  O   UNL     1      35.774 -25.413 -11.387  0.00  0.00    -0.153 OA
ATOM     20  O   UNL     1      35.625 -22.897 -11.367  0.00  0.00    -0.153 OA
BRANCH  18  21
ATOM     21  N   UNL     1      34.228 -24.228 -13.075  0.00  0.00    -0.152 NA
ATOM     22  N   UNL     1      31.718 -23.901 -14.353  0.00  0.00    -0.290 N 
ATOM     23  C   UNL     1      32.982 -24.677 -12.391  0.00  0.00    +0.117 C 
ATOM     24  C   UNL     1      33.973 -23.024 -13.914  0.00  0.00    +0.117 C 
ATOM     25  C   UNL     1      31.927 -25.029 -13.436  0.00  0.00    +0.111 C 
ATOM     26  C   UNL     1      32.928 -23.352 -14.977  0.00  0.00    +0.111 C 
ATOM     27  N   UNL     1      29.824 -24.982 -15.346  0.00  0.00    -0.229 NA
ATOM     28  C   UNL     1      30.497 -23.832 -15.034  0.00  0.00    +0.132 C 
ATOM     29  C   UNL     1      29.994 -22.571 -15.379  0.00  0.00    +0.034 C 
ATOM     30  C   UNL     1      28.783 -22.487 -16.055  0.00  0.00    +0.004 C 
ATOM     31  C   UNL     1      28.648 -24.860 -16.003  0.00  0.00    +0.100 C 
ATOM     32  C   UNL     1      28.090 -23.648 -16.377  0.00  0.00    +0.021 C 
ENDBRANCH  18  21
ENDBRANCH   1  18
TORSDOF 3
ENDMDL
MODEL 9
REMARK VINA RESULT:     -10.7      4.729      8.260
REMARK  Name = 12087505
REMARK  3 active torsions:
REMARK  status: ('A' for Active; 'I' for Inactive)
REMARK    1  A    between atoms: C_1  and  S_18
REMARK    2  A    between atoms: C_4  and  N_9
REMARK    3  A    between atoms: S_18  and  N_21
REMARK                            x       y       z     vdW  Elec       q    Type
REMARK                         _______ _______ _______ _____ _____    ______ ____
ROOT
ATOM      1  C   UNL     1      33.716 -13.959 -23.141  0.00  0.00    +0.123 C 
ATOM      2  C   UNL     1      33.914 -12.657 -23.570  0.00  0.00    +0.035 C 
ATOM      3  C   UNL     1      33.034 -14.236 -21.968  0.00  0.00    +0.020 C 
ATOM      4  C   UNL     1      33.414 -11.603 -22.806  0.00  0.00    +0.053 C 
ATOM      5  C   UNL     1      32.533 -13.182 -21.203  0.00  0.00    +0.003 C 
ATOM      6  C   UNL     1      32.723 -11.865 -21.624  0.00  0.00    +0.015 C 
ENDROOT
BRANCH   4   9
ATOM      7  S   UNL     1      33.811  -5.555 -24.358  0.00  0.00    -0.051 S 
ATOM      8  O   UNL     1      31.905  -9.125 -22.110  0.00  0.00    -0.252 OA
ATOM      9  N   UNL     1      33.604 -10.286 -23.226  0.00  0.00    -0.268 N 
ATOM     10  N   UNL     1      33.399  -8.007 -23.528  0.00  0.00    -0.248 N 
ATOM     11  N   UNL     1      31.940  -6.268 -22.722  0.00  0.00    -0.222 NA
ATOM     12  C   UNL     1      32.866  -9.128 -22.874  0.00  0.00    +0.310 C 
ATOM     13  C   UNL     1      32.941  -6.692 -23.433  0.00  0.00    +0.167 C 
ATOM     14  C   UNL     1      32.757  -4.339 -23.766  0.00  0.00    +0.059 C 
ATOM     15  C   UNL     1      31.831  -4.905 -22.913  0.00  0.00    +0.108 C 
ATOM     16  H   UNL     1      34.351 -10.141 -23.852  0.00  0.00    +0.156 HD
ATOM     17  H   UNL     1      34.175  -8.165 -24.114  0.00  0.00    +0.158 HD
ENDBRANCH   4   9
BRANCH   1  18
ATOM     18  S   UNL     1      34.351 -15.294 -24.107  0.00  0.00    +0.063 S 
ATOM     19  O   UNL     1      33.350 -15.644 -25.091  0.00  0.00    -0.153 OA
ATOM     20  O   UNL     1      35.701 -14.954 -24.503  0.00  0.00    -0.153 OA
BRANCH  18  21
ATOM     21  N   UNL     1      34.414 -16.521 -22.913  0.00  0.00    -0.152 NA
ATOM     22  N   UNL     1      35.037 -18.706 -21.216  0.00  0.00    -0.290 N 
ATOM     23  C   UNL     1      34.290 -17.916 -23.422  0.00  0.00    +0.117 C 
ATOM     24  C   UNL     1      35.531 -16.406 -21.935  0.00  0.00    +0.117 C 
ATOM     25  C   UNL     1      34.012 -18.860 -22.257  0.00  0.00    +0.111 C 
ATOM     26  C   UNL     1      35.273 -17.334 -20.751  0.00  0.00    +0.111 C 
ATOM     27  N   UNL     1      34.209 -20.618 -20.033  0.00  0.00    -0.229 NA
ATOM     28  C   UNL     1      35.245 -19.779 -20.342  0.00  0.00    +0.132 C 
ATOM     29  C   UNL     1      36.525 -19.963 -19.803  0.00  0.00    +0.034 C 
ATOM     30  C   UNL     1      36.746 -21.025 -18.932  0.00  0.00    +0.004 C 
ATOM     31  C   UNL     1      34.463 -21.640 -19.184  0.00  0.00    +0.100 C 
ATOM     32  C   UNL     1      35.702 -21.884 -18.612  0.00  0.00    +0.021 C 
ENDBRANCH  18  21
ENDBRANCH   1  18
TORSDOF 3
ENDMDL
