MODEL 1
REMARK VINA RESULT:     -11.9      0.000      0.000
REMARK  Name = 447994
REMARK  10 active torsions:
REMARK  status: ('A' for Active; 'I' for Inactive)
REMARK    1  A    between atoms: C_2  and  C_10
REMARK    2  A    between atoms: C_3  and  C_17
REMARK    3  A    between atoms: C_12  and  C_14
REMARK    4  A    between atoms: C_14  and  O_15
REMARK    5  A    between atoms: C_18  and  C_19
REMARK    6  A    between atoms: C_19  and  O_20
REMARK    7  A    between atoms: O_20  and  C_21
REMARK    8  A    between atoms: C_22  and  C_30
REMARK    9  A    between atoms: C_23  and  O_27
REMARK   10  A    between atoms: C_30  and  O_31
REMARK                            x       y       z     vdW  Elec       q    Type
REMARK                         _______ _______ _______ _____ _____    ______ ____
ROOT
ATOM      1  F   UNL     1      37.485 -17.887 -21.991  0.00  0.00    -0.204 F 
ATOM      2  C   UNL     1      35.295 -18.774 -21.727  0.00  0.00    +0.065 C 
ATOM      3  C   UNL     1      34.891 -20.396 -19.982  0.00  0.00    +0.000 C 
ATOM      4  C   UNL     1      34.424 -19.624 -21.045  0.00  0.00    +0.005 C 
ATOM      5  C   UNL     1      36.635 -18.698 -21.346  0.00  0.00    +0.143 C 
ATOM      6  C   UNL     1      36.231 -20.319 -19.601  0.00  0.00    +0.002 C 
ATOM      7  C   UNL     1      37.103 -19.470 -20.283  0.00  0.00    +0.030 C 
ENDROOT
BRANCH   2  10
ATOM      8  O   UNL     1      34.335 -18.677 -23.884  0.00  0.00    -0.353 OA
ATOM      9  N   UNL     1      33.902 -17.785 -24.858  0.00  0.00    -0.070 NA
ATOM     10  C   UNL     1      34.807 -17.977 -22.826  0.00  0.00    +0.179 C 
ATOM     11  C   UNL     1      34.702 -16.638 -23.061  0.00  0.00    +0.069 C 
ATOM     12  C   UNL     1      34.131 -16.574 -24.343  0.00  0.00    +0.198 C 
BRANCH  12  14
ATOM     13  O   UNL     1      34.239 -15.121 -26.221  0.00  0.00    -0.243 OA
ATOM     14  C   UNL     1      33.795 -15.401 -25.096  0.00  0.00    +0.359 C 
BRANCH  14  15
ATOM     15  O   UNL     1      32.909 -14.550 -24.482  0.00  0.00    -0.476 OA
ATOM     16  H   UNL     1      32.850 -13.656 -24.757  0.00  0.00    +0.295 HD
ENDBRANCH  14  15
ENDBRANCH  12  14
ENDBRANCH   2  10
BRANCH   3  17
ATOM     17  C   UNL     1      33.983 -21.282 -19.270  0.00  0.00    -0.001 C 
ATOM     18  C   UNL     1      34.343 -22.260 -18.409  0.00  0.00    +0.021 C 
BRANCH  18  19
ATOM     19  C   UNL     1      33.370 -23.137 -17.689  0.00  0.00    +0.232 C 
BRANCH  19  20
ATOM     20  O   UNL     1      34.057 -23.826 -16.654  0.00  0.00    -0.470 OA
BRANCH  20  21
ATOM     21  C   UNL     1      33.528 -23.735 -15.392  0.00  0.00    +0.148 C 
ATOM     22  C   UNL     1      34.212 -24.250 -14.296  0.00  0.00    +0.143 C 
ATOM     23  C   UNL     1      33.656 -24.145 -13.022  0.00  0.00    +0.143 C 
ATOM     24  C   UNL     1      32.294 -23.115 -15.227  0.00  0.00    +0.037 C 
ATOM     25  C   UNL     1      32.420 -23.524 -12.849  0.00  0.00    +0.037 C 
ATOM     26  C   UNL     1      31.739 -23.009 -13.953  0.00  0.00    +0.006 C 
BRANCH  23  27
ATOM     27  O   UNL     1      34.306 -24.640 -11.931  0.00  0.00    -0.505 OA
ATOM     28  H   UNL     1      33.852 -24.729 -11.116  0.00  0.00    +0.292 HD
ENDBRANCH  23  27
BRANCH  22  30
ATOM     29  O   UNL     1      35.665 -25.998 -15.019  0.00  0.00    -0.245 OA
ATOM     30  C   UNL     1      35.507 -24.899 -14.477  0.00  0.00    +0.347 C 
BRANCH  30  31
ATOM     31  O   UNL     1      36.521 -24.136 -13.971  0.00  0.00    -0.441 OA
ATOM     32  C   UNL     1      37.017 -23.088 -14.811  0.00  0.00    +0.256 C 
ENDBRANCH  30  31
ENDBRANCH  22  30
ENDBRANCH  20  21
ENDBRANCH  19  20
ENDBRANCH  18  19
ENDBRANCH   3  17
TORSDOF 10
ENDMDL
MODEL 2
REMARK VINA RESULT:     -11.7      2.629      3.491
REMARK  Name = 447994
REMARK  10 active torsions:
REMARK  status: ('A' for Active; 'I' for Inactive)
REMARK    1  A    between atoms: C_2  and  C_10
REMARK    2  A    between atoms: C_3  and  C_17
REMARK    3  A    between atoms: C_12  and  C_14
REMARK    4  A    between atoms: C_14  and  O_15
REMARK    5  A    between atoms: C_18  and  C_19
REMARK    6  A    between atoms: C_19  and  O_20
REMARK    7  A    between atoms: O_20  and  C_21
REMARK    8  A    between atoms: C_22  and  C_30
REMARK    9  A    between atoms: C_23  and  O_27
REMARK   10  A    between atoms: C_30  and  O_31
REMARK                            x       y       z     vdW  Elec       q    Type
REMARK                         _______ _______ _______ _____ _____    ______ ____
ROOT
ATOM      1  F   UNL     1      32.112 -20.067 -20.801  0.00  0.00    -0.204 F 
ATOM      2  C   UNL     1      34.421 -19.997 -20.239  0.00  0.00    +0.065 C 
ATOM      3  C   UNL     1      35.260 -21.504 -18.547  0.00  0.00    +0.000 C 
ATOM      4  C   UNL     1      35.480 -20.486 -19.475  0.00  0.00    +0.005 C 
ATOM      5  C   UNL     1      33.140 -20.526 -20.075  0.00  0.00    +0.143 C 
ATOM      6  C   UNL     1      33.979 -22.032 -18.383  0.00  0.00    +0.002 C 
ATOM      7  C   UNL     1      32.919 -21.543 -19.147  0.00  0.00    +0.030 C 
ENDROOT
BRANCH   2  10
ATOM      8  O   UNL     1      35.239 -17.829 -20.702  0.00  0.00    -0.353 OA
ATOM      9  N   UNL     1      35.400 -16.909 -21.732  0.00  0.00    -0.070 NA
ATOM     10  C   UNL     1      34.653 -18.944 -21.198  0.00  0.00    +0.179 C 
ATOM     11  C   UNL     1      34.416 -18.800 -22.533  0.00  0.00    +0.069 C 
ATOM     12  C   UNL     1      34.901 -17.511 -22.815  0.00  0.00    +0.198 C 
BRANCH  12  14
ATOM     13  O   UNL     1      34.330 -17.226 -25.104  0.00  0.00    -0.243 OA
ATOM     14  C   UNL     1      34.908 -16.833 -24.078  0.00  0.00    +0.359 C 
BRANCH  14  15
ATOM     15  O   UNL     1      35.626 -15.663 -24.105  0.00  0.00    -0.476 OA
ATOM     16  H   UNL     1      35.775 -15.223 -24.919  0.00  0.00    +0.295 HD
ENDBRANCH  14  15
ENDBRANCH  12  14
ENDBRANCH   2  10
BRANCH   3  17
ATOM     17  C   UNL     1      36.365 -22.014 -17.750  0.00  0.00    -0.001 C 
ATOM     18  C   UNL     1      36.487 -21.912 -16.407  0.00  0.00    +0.021 C 
BRANCH  18  19
ATOM     19  C   UNL     1      37.636 -22.467 -15.629  0.00  0.00    +0.232 C 
BRANCH  19  20
ATOM     20  O   UNL     1      37.340 -23.809 -15.272  0.00  0.00    -0.470 OA
BRANCH  20  21
ATOM     21  C   UNL     1      37.069 -24.053 -13.950  0.00  0.00    +0.148 C 
ATOM     22  C   UNL     1      37.164 -25.339 -13.431  0.00  0.00    +0.143 C 
ATOM     23  C   UNL     1      36.886 -25.564 -12.084  0.00  0.00    +0.143 C 
ATOM     24  C   UNL     1      36.700 -22.987 -13.135  0.00  0.00    +0.037 C 
ATOM     25  C   UNL     1      36.515 -24.501 -11.261  0.00  0.00    +0.037 C 
ATOM     26  C   UNL     1      36.422 -23.212 -11.787  0.00  0.00    +0.006 C 
BRANCH  23  27
ATOM     27  O   UNL     1      36.972 -26.815 -11.549  0.00  0.00    -0.505 OA
ATOM     28  H   UNL     1      37.794 -27.133 -11.231  0.00  0.00    +0.292 HD
ENDBRANCH  23  27
BRANCH  22  30
ATOM     29  O   UNL     1      36.840 -26.925 -15.183  0.00  0.00    -0.245 OA
ATOM     30  C   UNL     1      37.553 -26.452 -14.292  0.00  0.00    +0.347 C 
BRANCH  30  31
ATOM     31  O   UNL     1      38.806 -26.903 -13.986  0.00  0.00    -0.441 OA
ATOM     32  C   UNL     1      39.886 -25.985 -14.186  0.00  0.00    +0.256 C 
ENDBRANCH  30  31
ENDBRANCH  22  30
ENDBRANCH  20  21
ENDBRANCH  19  20
ENDBRANCH  18  19
ENDBRANCH   3  17
TORSDOF 10
ENDMDL
MODEL 3
REMARK VINA RESULT:     -11.5      0.902      1.247
REMARK  Name = 447994
REMARK  10 active torsions:
REMARK  status: ('A' for Active; 'I' for Inactive)
REMARK    1  A    between atoms: C_2  and  C_10
REMARK    2  A    between atoms: C_3  and  C_17
REMARK    3  A    between atoms: C_12  and  C_14
REMARK    4  A    between atoms: C_14  and  O_15
REMARK    5  A    between atoms: C_18  and  C_19
REMARK    6  A    between atoms: C_19  and  O_20
REMARK    7  A    between atoms: O_20  and  C_21
REMARK    8  A    between atoms: C_22  and  C_30
REMARK    9  A    between atoms: C_23  and  O_27
REMARK   10  A    between atoms: C_30  and  O_31
REMARK                            x       y       z     vdW  Elec       q    Type
REMARK                         _______ _______ _______ _____ _____    ______ ____
ROOT
ATOM      1  F   UNL     1      37.523 -17.927 -22.024  0.00  0.00    -0.204 F 
ATOM      2  C   UNL     1      35.327 -18.779 -21.704  0.00  0.00    +0.065 C 
ATOM      3  C   UNL     1      34.934 -20.367 -19.926  0.00  0.00    +0.000 C 
ATOM      4  C   UNL     1      34.457 -19.605 -20.992  0.00  0.00    +0.005 C 
ATOM      5  C   UNL     1      36.675 -18.715 -21.350  0.00  0.00    +0.143 C 
ATOM      6  C   UNL     1      36.282 -20.303 -19.572  0.00  0.00    +0.002 C 
ATOM      7  C   UNL     1      37.153 -19.477 -20.284  0.00  0.00    +0.030 C 
ENDROOT
BRANCH   2  10
ATOM      8  O   UNL     1      34.369 -18.703 -23.863  0.00  0.00    -0.353 OA
ATOM      9  N   UNL     1      33.925 -17.820 -24.841  0.00  0.00    -0.070 NA
ATOM     10  C   UNL     1      34.829 -17.993 -22.806  0.00  0.00    +0.179 C 
ATOM     11  C   UNL     1      34.705 -16.656 -23.046  0.00  0.00    +0.069 C 
ATOM     12  C   UNL     1      34.135 -16.604 -24.329  0.00  0.00    +0.198 C 
BRANCH  12  14
ATOM     13  O   UNL     1      34.249 -15.139 -26.198  0.00  0.00    -0.243 OA
ATOM     14  C   UNL     1      33.783 -15.438 -25.087  0.00  0.00    +0.359 C 
BRANCH  14  15
ATOM     15  O   UNL     1      32.855 -14.619 -24.494  0.00  0.00    -0.476 OA
ATOM     16  H   UNL     1      33.091 -14.107 -23.745  0.00  0.00    +0.295 HD
ENDBRANCH  14  15
ENDBRANCH  12  14
ENDBRANCH   2  10
BRANCH   3  17
ATOM     17  C   UNL     1      34.028 -21.228 -19.183  0.00  0.00    -0.001 C 
ATOM     18  C   UNL     1      34.385 -22.291 -18.428  0.00  0.00    +0.021 C 
BRANCH  18  19
ATOM     19  C   UNL     1      33.416 -23.140 -17.669  0.00  0.00    +0.232 C 
BRANCH  19  20
ATOM     20  O   UNL     1      33.427 -22.738 -16.307  0.00  0.00    -0.470 OA
BRANCH  20  21
ATOM     21  C   UNL     1      32.488 -23.307 -15.485  0.00  0.00    +0.148 C 
ATOM     22  C   UNL     1      32.872 -24.012 -14.350  0.00  0.00    +0.143 C 
ATOM     23  C   UNL     1      31.900 -24.581 -13.528  0.00  0.00    +0.143 C 
ATOM     24  C   UNL     1      31.143 -23.164 -15.808  0.00  0.00    +0.037 C 
ATOM     25  C   UNL     1      30.549 -24.442 -13.845  0.00  0.00    +0.037 C 
ATOM     26  C   UNL     1      30.171 -23.733 -14.985  0.00  0.00    +0.006 C 
BRANCH  23  27
ATOM     27  O   UNL     1      32.249 -25.277 -12.409  0.00  0.00    -0.505 OA
ATOM     28  H   UNL     1      32.417 -24.821 -11.607  0.00  0.00    +0.292 HD
ENDBRANCH  23  27
BRANCH  22  30
ATOM     29  O   UNL     1      34.820 -23.660 -13.020  0.00  0.00    -0.245 OA
ATOM     30  C   UNL     1      34.286 -24.157 -14.017  0.00  0.00    +0.347 C 
BRANCH  30  31
ATOM     31  O   UNL     1      34.941 -24.913 -14.948  0.00  0.00    -0.441 OA
ATOM     32  C   UNL     1      36.252 -25.370 -14.596  0.00  0.00    +0.256 C 
ENDBRANCH  30  31
ENDBRANCH  22  30
ENDBRANCH  20  21
ENDBRANCH  19  20
ENDBRANCH  18  19
ENDBRANCH   3  17
TORSDOF 10
ENDMDL
MODEL 4
REMARK VINA RESULT:     -11.2      2.767      3.943
REMARK  Name = 447994
REMARK  10 active torsions:
REMARK  status: ('A' for Active; 'I' for Inactive)
REMARK    1  A    between atoms: C_2  and  C_10
REMARK    2  A    between atoms: C_3  and  C_17
REMARK    3  A    between atoms: C_12  and  C_14
REMARK    4  A    between atoms: C_14  and  O_15
REMARK    5  A    between atoms: C_18  and  C_19
REMARK    6  A    between atoms: C_19  and  O_20
REMARK    7  A    between atoms: O_20  and  C_21
REMARK    8  A    between atoms: C_22  and  C_30
REMARK    9  A    between atoms: C_23  and  O_27
REMARK   10  A    between atoms: C_30  and  O_31
REMARK                            x       y       z     vdW  Elec       q    Type
REMARK                         _______ _______ _______ _____ _____    ______ ____
ROOT
ATOM      1  F   UNL     1      32.174 -20.176 -20.630  0.00  0.00    -0.204 F 
ATOM      2  C   UNL     1      34.497 -20.054 -20.134  0.00  0.00    +0.065 C 
ATOM      3  C   UNL     1      35.416 -21.533 -18.460  0.00  0.00    +0.000 C 
ATOM      4  C   UNL     1      35.587 -20.516 -19.398  0.00  0.00    +0.005 C 
ATOM      5  C   UNL     1      33.233 -20.609 -19.931  0.00  0.00    +0.143 C 
ATOM      6  C   UNL     1      34.152 -22.089 -18.257  0.00  0.00    +0.002 C 
ATOM      7  C   UNL     1      33.060 -21.626 -18.993  0.00  0.00    +0.030 C 
ENDROOT
BRANCH   2  10
ATOM      8  O   UNL     1      35.160 -17.836 -20.610  0.00  0.00    -0.353 OA
ATOM      9  N   UNL     1      35.283 -16.923 -21.651  0.00  0.00    -0.070 NA
ATOM     10  C   UNL     1      34.679 -19.002 -21.104  0.00  0.00    +0.179 C 
ATOM     11  C   UNL     1      34.476 -18.897 -22.448  0.00  0.00    +0.069 C 
ATOM     12  C   UNL     1      34.869 -17.579 -22.738  0.00  0.00    +0.198 C 
BRANCH  12  14
ATOM     13  O   UNL     1      34.226 -17.297 -25.008  0.00  0.00    -0.243 OA
ATOM     14  C   UNL     1      34.866 -16.922 -24.012  0.00  0.00    +0.359 C 
BRANCH  14  15
ATOM     15  O   UNL     1      35.648 -15.797 -24.088  0.00  0.00    -0.476 OA
ATOM     16  H   UNL     1      35.381 -15.010 -23.653  0.00  0.00    +0.295 HD
ENDBRANCH  14  15
ENDBRANCH  12  14
ENDBRANCH   2  10
BRANCH   3  17
ATOM     17  C   UNL     1      36.553 -22.016 -17.693  0.00  0.00    -0.001 C 
ATOM     18  C   UNL     1      36.674 -21.981 -16.346  0.00  0.00    +0.021 C 
BRANCH  18  19
ATOM     19  C   UNL     1      37.859 -22.503 -15.600  0.00  0.00    +0.232 C 
BRANCH  19  20
ATOM     20  O   UNL     1      37.466 -22.796 -14.267  0.00  0.00    -0.470 OA
BRANCH  20  21
ATOM     21  C   UNL     1      37.379 -24.120 -13.923  0.00  0.00    +0.148 C 
ATOM     22  C   UNL     1      37.553 -24.524 -12.604  0.00  0.00    +0.143 C 
ATOM     23  C   UNL     1      37.459 -25.876 -12.277  0.00  0.00    +0.143 C 
ATOM     24  C   UNL     1      37.111 -25.053 -14.919  0.00  0.00    +0.037 C 
ATOM     25  C   UNL     1      37.190 -26.817 -13.270  0.00  0.00    +0.037 C 
ATOM     26  C   UNL     1      37.016 -26.405 -14.591  0.00  0.00    +0.006 C 
BRANCH  23  27
ATOM     27  O   UNL     1      37.624 -26.300 -10.991  0.00  0.00    -0.505 OA
ATOM     28  H   UNL     1      36.876 -26.460 -10.451  0.00  0.00    +0.292 HD
ENDBRANCH  23  27
BRANCH  22  30
ATOM     29  O   UNL     1      38.965 -23.279 -11.139  0.00  0.00    -0.245 OA
ATOM     30  C   UNL     1      37.834 -23.539 -11.564  0.00  0.00    +0.347 C 
BRANCH  30  31
ATOM     31  O   UNL     1      36.688 -22.943 -11.121  0.00  0.00    -0.441 OA
ATOM     32  C   UNL     1      35.962 -23.628 -10.095  0.00  0.00    +0.256 C 
ENDBRANCH  30  31
ENDBRANCH  22  30
ENDBRANCH  20  21
ENDBRANCH  19  20
ENDBRANCH  18  19
ENDBRANCH   3  17
TORSDOF 10
ENDMDL
MODEL 5
REMARK VINA RESULT:     -11.2      7.064      8.332
REMARK  Name = 447994
REMARK  10 active torsions:
REMARK  status: ('A' for Active; 'I' for Inactive)
REMARK    1  A    between atoms: C_2  and  C_10
REMARK    2  A    between atoms: C_3  and  C_17
REMARK    3  A    between atoms: C_12  and  C_14
REMARK    4  A    between atoms: C_14  and  O_15
REMARK    5  A    between atoms: C_18  and  C_19
REMARK    6  A    between atoms: C_19  and  O_20
REMARK    7  A    between atoms: O_20  and  C_21
REMARK    8  A    between atoms: C_22  and  C_30
REMARK    9  A    between atoms: C_23  and  O_27
REMARK   10  A    between atoms: C_30  and  O_31
REMARK                            x       y       z     vdW  Elec       q    Type
REMARK                         _______ _______ _______ _____ _____    ______ ____
ROOT
ATOM      1  F   UNL     1      28.870 -25.306 -13.699  0.00  0.00    -0.204 F 
ATOM      2  C   UNL     1      30.187 -23.742 -14.913  0.00  0.00    +0.065 C 
ATOM      3  C   UNL     1      32.540 -23.546 -14.401  0.00  0.00    +0.000 C 
ATOM      4  C   UNL     1      31.428 -23.151 -15.145  0.00  0.00    +0.005 C 
ATOM      5  C   UNL     1      30.056 -24.728 -13.935  0.00  0.00    +0.143 C 
ATOM      6  C   UNL     1      32.409 -24.532 -13.423  0.00  0.00    +0.002 C 
ATOM      7  C   UNL     1      31.167 -25.124 -13.190  0.00  0.00    +0.030 C 
ENDROOT
BRANCH   2  10
ATOM      8  O   UNL     1      28.602 -24.232 -16.596  0.00  0.00    -0.353 OA
ATOM      9  N   UNL     1      27.501 -23.704 -17.259  0.00  0.00    -0.070 NA
ATOM     10  C   UNL     1      29.040 -23.331 -15.685  0.00  0.00    +0.179 C 
ATOM     11  C   UNL     1      28.262 -22.211 -15.717  0.00  0.00    +0.069 C 
ATOM     12  C   UNL     1      27.317 -22.497 -16.717  0.00  0.00    +0.198 C 
BRANCH  12  14
ATOM     13  O   UNL     1      25.569 -20.908 -16.457  0.00  0.00    -0.243 OA
ATOM     14  C   UNL     1      26.244 -21.663 -17.175  0.00  0.00    +0.359 C 
BRANCH  14  15
ATOM     15  O   UNL     1      25.980 -21.741 -18.520  0.00  0.00    -0.476 OA
ATOM     16  H   UNL     1      25.104 -21.887 -18.818  0.00  0.00    +0.295 HD
ENDBRANCH  14  15
ENDBRANCH  12  14
ENDBRANCH   2  10
BRANCH   3  17
ATOM     17  C   UNL     1      33.835 -22.930 -14.643  0.00  0.00    -0.001 C 
ATOM     18  C   UNL     1      34.842 -23.462 -15.372  0.00  0.00    +0.021 C 
BRANCH  18  19
ATOM     19  C   UNL     1      36.153 -22.782 -15.605  0.00  0.00    +0.232 C 
BRANCH  19  20
ATOM     20  O   UNL     1      37.188 -23.593 -15.068  0.00  0.00    -0.470 OA
BRANCH  20  21
ATOM     21  C   UNL     1      37.129 -23.863 -13.725  0.00  0.00    +0.148 C 
ATOM     22  C   UNL     1      37.191 -25.172 -13.261  0.00  0.00    +0.143 C 
ATOM     23  C   UNL     1      37.130 -25.424 -11.891  0.00  0.00    +0.143 C 
ATOM     24  C   UNL     1      37.008 -22.802 -12.834  0.00  0.00    +0.037 C 
ATOM     25  C   UNL     1      37.010 -24.365 -10.992  0.00  0.00    +0.037 C 
ATOM     26  C   UNL     1      36.949 -23.054 -11.464  0.00  0.00    +0.006 C 
BRANCH  23  27
ATOM     27  O   UNL     1      37.190 -26.698 -11.409  0.00  0.00    -0.505 OA
ATOM     28  H   UNL     1      37.923 -27.244 -11.616  0.00  0.00    +0.292 HD
ENDBRANCH  23  27
BRANCH  22  30
ATOM     29  O   UNL     1      36.412 -26.668 -14.949  0.00  0.00    -0.245 OA
ATOM     30  C   UNL     1      37.318 -26.281 -14.202  0.00  0.00    +0.347 C 
BRANCH  30  31
ATOM     31  O   UNL     1      38.566 -26.836 -14.152  0.00  0.00    -0.441 OA
ATOM     32  C   UNL     1      39.674 -25.934 -14.251  0.00  0.00    +0.256 C 
ENDBRANCH  30  31
ENDBRANCH  22  30
ENDBRANCH  20  21
ENDBRANCH  19  20
ENDBRANCH  18  19
ENDBRANCH   3  17
TORSDOF 10
ENDMDL
MODEL 6
REMARK VINA RESULT:     -11.0      2.168      3.322
REMARK  Name = 447994
REMARK  10 active torsions:
REMARK  status: ('A' for Active; 'I' for Inactive)
REMARK    1  A    between atoms: C_2  and  C_10
REMARK    2  A    between atoms: C_3  and  C_17
REMARK    3  A    between atoms: C_12  and  C_14
REMARK    4  A    between atoms: C_14  and  O_15
REMARK    5  A    between atoms: C_18  and  C_19
REMARK    6  A    between atoms: C_19  and  O_20
REMARK    7  A    between atoms: O_20  and  C_21
REMARK    8  A    between atoms: C_22  and  C_30
REMARK    9  A    between atoms: C_23  and  O_27
REMARK   10  A    between atoms: C_30  and  O_31
REMARK                            x       y       z     vdW  Elec       q    Type
REMARK                         _______ _______ _______ _____ _____    ______ ____
ROOT
ATOM      1  F   UNL     1      37.514 -18.280 -21.477  0.00  0.00    -0.204 F 
ATOM      2  C   UNL     1      35.260 -19.034 -21.411  0.00  0.00    +0.065 C 
ATOM      3  C   UNL     1      34.623 -20.675 -19.755  0.00  0.00    +0.000 C 
ATOM      4  C   UNL     1      34.288 -19.846 -20.825  0.00  0.00    +0.005 C 
ATOM      5  C   UNL     1      36.568 -19.053 -20.926  0.00  0.00    +0.143 C 
ATOM      6  C   UNL     1      35.931 -20.694 -19.271  0.00  0.00    +0.002 C 
ATOM      7  C   UNL     1      36.904 -19.883 -19.856  0.00  0.00    +0.030 C 
ENDROOT
BRANCH   2  10
ATOM      8  O   UNL     1      34.476 -18.816 -23.629  0.00  0.00    -0.353 OA
ATOM      9  N   UNL     1      34.177 -17.872 -24.604  0.00  0.00    -0.070 NA
ATOM     10  C   UNL     1      34.909 -18.178 -22.517  0.00  0.00    +0.179 C 
ATOM     11  C   UNL     1      34.909 -16.829 -22.716  0.00  0.00    +0.069 C 
ATOM     12  C   UNL     1      34.443 -16.693 -24.035  0.00  0.00    +0.198 C 
BRANCH  12  14
ATOM     13  O   UNL     1      34.185 -15.398 -26.011  0.00  0.00    -0.243 OA
ATOM     14  C   UNL     1      34.241 -15.480 -24.774  0.00  0.00    +0.359 C 
BRANCH  14  15
ATOM     15  O   UNL     1      34.105 -14.349 -24.008  0.00  0.00    -0.476 OA
ATOM     16  H   UNL     1      33.326 -14.214 -23.505  0.00  0.00    +0.295 HD
ENDBRANCH  14  15
ENDBRANCH  12  14
ENDBRANCH   2  10
BRANCH   3  17
ATOM     17  C   UNL     1      33.609 -21.520 -19.144  0.00  0.00    -0.001 C 
ATOM     18  C   UNL     1      33.782 -22.305 -18.056  0.00  0.00    +0.021 C 
BRANCH  18  19
ATOM     19  C   UNL     1      32.703 -23.147 -17.455  0.00  0.00    +0.232 C 
BRANCH  19  20
ATOM     20  O   UNL     1      32.230 -22.510 -16.277  0.00  0.00    -0.470 OA
BRANCH  20  21
ATOM     21  C   UNL     1      31.910 -23.322 -15.220  0.00  0.00    +0.148 C 
ATOM     22  C   UNL     1      30.586 -23.649 -14.950  0.00  0.00    +0.143 C 
ATOM     23  C   UNL     1      30.283 -24.476 -13.870  0.00  0.00    +0.143 C 
ATOM     24  C   UNL     1      32.936 -23.814 -14.420  0.00  0.00    +0.037 C 
ATOM     25  C   UNL     1      31.307 -24.974 -13.065  0.00  0.00    +0.037 C 
ATOM     26  C   UNL     1      32.634 -24.643 -13.340  0.00  0.00    +0.006 C 
BRANCH  23  27
ATOM     27  O   UNL     1      28.993 -24.814 -13.584  0.00  0.00    -0.505 OA
ATOM     28  H   UNL     1      28.590 -24.500 -12.799  0.00  0.00    +0.292 HD
ENDBRANCH  23  27
BRANCH  22  30
ATOM     29  O   UNL     1      29.317 -23.478 -16.963  0.00  0.00    -0.245 OA
ATOM     30  C   UNL     1      29.514 -23.129 -15.794  0.00  0.00    +0.347 C 
BRANCH  30  31
ATOM     31  O   UNL     1      28.756 -22.209 -15.126  0.00  0.00    -0.441 OA
ATOM     32  C   UNL     1      27.337 -22.306 -15.289  0.00  0.00    +0.256 C 
ENDBRANCH  30  31
ENDBRANCH  22  30
ENDBRANCH  20  21
ENDBRANCH  19  20
ENDBRANCH  18  19
ENDBRANCH   3  17
TORSDOF 10
ENDMDL
MODEL 7
REMARK VINA RESULT:     -10.9      1.159      2.264
REMARK  Name = 447994
REMARK  10 active torsions:
REMARK  status: ('A' for Active; 'I' for Inactive)
REMARK    1  A    between atoms: C_2  and  C_10
REMARK    2  A    between atoms: C_3  and  C_17
REMARK    3  A    between atoms: C_12  and  C_14
REMARK    4  A    between atoms: C_14  and  O_15
REMARK    5  A    between atoms: C_18  and  C_19
REMARK    6  A    between atoms: C_19  and  O_20
REMARK    7  A    between atoms: O_20  and  C_21
REMARK    8  A    between atoms: C_22  and  C_30
REMARK    9  A    between atoms: C_23  and  O_27
REMARK   10  A    between atoms: C_30  and  O_31
REMARK                            x       y       z     vdW  Elec       q    Type
REMARK                         _______ _______ _______ _____ _____    ______ ____
ROOT
ATOM      1  F   UNL     1      37.511 -18.067 -21.756  0.00  0.00    -0.204 F 
ATOM      2  C   UNL     1      35.348 -19.023 -21.504  0.00  0.00    +0.065 C 
ATOM      3  C   UNL     1      34.990 -20.670 -19.773  0.00  0.00    +0.000 C 
ATOM      4  C   UNL     1      34.502 -19.905 -20.831  0.00  0.00    +0.005 C 
ATOM      5  C   UNL     1      36.684 -18.909 -21.119  0.00  0.00    +0.143 C 
ATOM      6  C   UNL     1      36.326 -20.556 -19.389  0.00  0.00    +0.002 C 
ATOM      7  C   UNL     1      37.173 -19.675 -20.062  0.00  0.00    +0.030 C 
ENDROOT
BRANCH   2  10
ATOM      8  O   UNL     1      34.334 -18.938 -23.637  0.00  0.00    -0.353 OA
ATOM      9  N   UNL     1      33.884 -18.052 -24.608  0.00  0.00    -0.070 NA
ATOM     10  C   UNL     1      34.838 -18.232 -22.598  0.00  0.00    +0.179 C 
ATOM     11  C   UNL     1      34.738 -16.895 -22.843  0.00  0.00    +0.069 C 
ATOM     12  C   UNL     1      34.135 -16.838 -24.111  0.00  0.00    +0.198 C 
BRANCH  12  14
ATOM     13  O   UNL     1      33.808 -15.586 -26.105  0.00  0.00    -0.243 OA
ATOM     14  C   UNL     1      33.789 -15.669 -24.866  0.00  0.00    +0.359 C 
BRANCH  14  15
ATOM     15  O   UNL     1      33.415 -14.582 -24.116  0.00  0.00    -0.476 OA
ATOM     16  H   UNL     1      33.324 -13.741 -24.520  0.00  0.00    +0.295 HD
ENDBRANCH  14  15
ENDBRANCH  12  14
ENDBRANCH   2  10
BRANCH   3  17
ATOM     17  C   UNL     1      34.108 -21.589 -19.071  0.00  0.00    -0.001 C 
ATOM     18  C   UNL     1      34.461 -22.402 -18.049  0.00  0.00    +0.021 C 
BRANCH  18  19
ATOM     19  C   UNL     1      33.513 -23.321 -17.348  0.00  0.00    +0.232 C 
BRANCH  19  20
ATOM     20  O   UNL     1      33.299 -22.836 -16.030  0.00  0.00    -0.470 OA
BRANCH  20  21
ATOM     21  C   UNL     1      34.195 -23.233 -15.071  0.00  0.00    +0.148 C 
ATOM     22  C   UNL     1      33.759 -23.840 -13.899  0.00  0.00    +0.143 C 
ATOM     23  C   UNL     1      34.688 -24.236 -12.938  0.00  0.00    +0.143 C 
ATOM     24  C   UNL     1      35.552 -23.019 -15.294  0.00  0.00    +0.037 C 
ATOM     25  C   UNL     1      36.049 -24.025 -13.154  0.00  0.00    +0.037 C 
ATOM     26  C   UNL     1      36.481 -23.416 -14.333  0.00  0.00    +0.006 C 
BRANCH  23  27
ATOM     27  O   UNL     1      34.288 -24.835 -11.780  0.00  0.00    -0.505 OA
ATOM     28  H   UNL     1      34.398 -24.392 -10.961  0.00  0.00    +0.292 HD
ENDBRANCH  23  27
BRANCH  22  30
ATOM     29  O   UNL     1      31.822 -25.174 -13.500  0.00  0.00    -0.245 OA
ATOM     30  C   UNL     1      32.334 -24.062 -13.672  0.00  0.00    +0.347 C 
BRANCH  30  31
ATOM     31  O   UNL     1      31.640 -22.886 -13.672  0.00  0.00    -0.441 OA
ATOM     32  C   UNL     1      30.332 -22.912 -14.253  0.00  0.00    +0.256 C 
ENDBRANCH  30  31
ENDBRANCH  22  30
ENDBRANCH  20  21
ENDBRANCH  19  20
ENDBRANCH  18  19
ENDBRANCH   3  17
TORSDOF 10
ENDMDL
MODEL 8
REMARK VINA RESULT:     -10.8      5.022     11.799
REMARK  Name = 447994
REMARK  10 active torsions:
REMARK  status: ('A' for Active; 'I' for Inactive)
REMARK    1  A    between atoms: C_2  and  C_10
REMARK    2  A    between atoms: C_3  and  C_17
REMARK    3  A    between atoms: C_12  and  C_14
REMARK    4  A    between atoms: C_14  and  O_15
REMARK    5  A    between atoms: C_18  and  C_19
REMARK    6  A    between atoms: C_19  and  O_20
REMARK    7  A    between atoms: O_20  and  C_21
REMARK    8  A    between atoms: C_22  and  C_30
REMARK    9  A    between atoms: C_23  and  O_27
REMARK   10  A    between atoms: C_30  and  O_31
REMARK                            x       y       z     vdW  Elec       q    Type
REMARK                         _______ _______ _______ _____ _____    ______ ____
ROOT
ATOM      1  F   UNL     1      34.612 -19.537 -23.793  0.00  0.00    -0.204 F 
ATOM      2  C   UNL     1      35.081 -17.736 -22.314  0.00  0.00    +0.065 C 
ATOM      3  C   UNL     1      34.650 -15.475 -23.048  0.00  0.00    +0.000 C 
ATOM      4  C   UNL     1      35.092 -16.363 -22.068  0.00  0.00    +0.005 C 
ATOM      5  C   UNL     1      34.628 -18.221 -23.541  0.00  0.00    +0.143 C 
ATOM      6  C   UNL     1      34.197 -15.960 -24.275  0.00  0.00    +0.002 C 
ATOM      7  C   UNL     1      34.186 -17.334 -24.522  0.00  0.00    +0.030 C 
ENDROOT
BRANCH   2  10
ATOM      8  O   UNL     1      36.740 -18.351 -20.747  0.00  0.00    -0.353 OA
ATOM      9  N   UNL     1      37.049 -19.311 -19.791  0.00  0.00    -0.070 NA
ATOM     10  C   UNL     1      35.539 -18.651 -21.297  0.00  0.00    +0.179 C 
ATOM     11  C   UNL     1      35.033 -19.786 -20.736  0.00  0.00    +0.069 C 
ATOM     12  C   UNL     1      36.015 -20.157 -19.802  0.00  0.00    +0.198 C 
BRANCH  12  14
ATOM     13  O   UNL     1      36.745 -21.430 -17.933  0.00  0.00    -0.243 OA
ATOM     14  C   UNL     1      36.005 -21.287 -18.920  0.00  0.00    +0.359 C 
BRANCH  14  15
ATOM     15  O   UNL     1      35.089 -22.260 -19.233  0.00  0.00    -0.476 OA
ATOM     16  H   UNL     1      35.218 -23.140 -18.935  0.00  0.00    +0.295 HD
ENDBRANCH  14  15
ENDBRANCH  12  14
ENDBRANCH   2  10
BRANCH   3  17
ATOM     17  C   UNL     1      34.661 -14.043 -22.793  0.00  0.00    -0.001 C 
ATOM     18  C   UNL     1      34.043 -13.100 -23.539  0.00  0.00    +0.021 C 
BRANCH  18  19
ATOM     19  C   UNL     1      34.071 -11.638 -23.227  0.00  0.00    +0.232 C 
BRANCH  19  20
ATOM     20  O   UNL     1      32.738 -11.189 -23.027  0.00  0.00    -0.470 OA
BRANCH  20  21
ATOM     21  C   UNL     1      32.398 -10.805 -21.756  0.00  0.00    +0.148 C 
ATOM     22  C   UNL     1      32.268  -9.460 -21.430  0.00  0.00    +0.143 C 
ATOM     23  C   UNL     1      31.921  -9.092 -20.132  0.00  0.00    +0.143 C 
ATOM     24  C   UNL     1      32.185 -11.788 -20.795  0.00  0.00    +0.037 C 
ATOM     25  C   UNL     1      31.704 -10.072 -19.164  0.00  0.00    +0.037 C 
ATOM     26  C   UNL     1      31.836 -11.421 -19.496  0.00  0.00    +0.006 C 
BRANCH  23  27
ATOM     27  O   UNL     1      31.784  -7.780 -19.786  0.00  0.00    -0.505 OA
ATOM     28  H   UNL     1      32.285  -7.124 -20.231  0.00  0.00    +0.292 HD
ENDBRANCH  23  27
BRANCH  22  30
ATOM     29  O   UNL     1      31.670  -8.118 -23.310  0.00  0.00    -0.245 OA
ATOM     30  C   UNL     1      32.493  -8.433 -22.444  0.00  0.00    +0.347 C 
BRANCH  30  31
ATOM     31  O   UNL     1      33.729  -7.866 -22.312  0.00  0.00    -0.441 OA
ATOM     32  C   UNL     1      33.789  -6.437 -22.374  0.00  0.00    +0.256 C 
ENDBRANCH  30  31
ENDBRANCH  22  30
ENDBRANCH  20  21
ENDBRANCH  19  20
ENDBRANCH  18  19
ENDBRANCH   3  17
TORSDOF 10
ENDMDL
MODEL 9
REMARK VINA RESULT:     -10.6      4.829     11.592
REMARK  Name = 447994
REMARK  10 active torsions:
REMARK  status: ('A' for Active; 'I' for Inactive)
REMARK    1  A    between atoms: C_2  and  C_10
REMARK    2  A    between atoms: C_3  and  C_17
REMARK    3  A    between atoms: C_12  and  C_14
REMARK    4  A    between atoms: C_14  and  O_15
REMARK    5  A    between atoms: C_18  and  C_19
REMARK    6  A    between atoms: C_19  and  O_20
REMARK    7  A    between atoms: O_20  and  C_21
REMARK    8  A    between atoms: C_22  and  C_30
REMARK    9  A    between atoms: C_23  and  O_27
REMARK   10  A    between atoms: C_30  and  O_31
REMARK                            x       y       z     vdW  Elec       q    Type
REMARK                         _______ _______ _______ _____ _____    ______ ____
ROOT
ATOM      1  F   UNL     1      34.554 -19.418 -23.880  0.00  0.00    -0.204 F 
ATOM      2  C   UNL     1      35.079 -17.578 -22.469  0.00  0.00    +0.065 C 
ATOM      3  C   UNL     1      34.584 -15.339 -23.231  0.00  0.00    +0.000 C 
ATOM      4  C   UNL     1      35.087 -16.199 -22.256  0.00  0.00    +0.005 C 
ATOM      5  C   UNL     1      34.568 -18.096 -23.659  0.00  0.00    +0.143 C 
ATOM      6  C   UNL     1      34.073 -15.858 -24.421  0.00  0.00    +0.002 C 
ATOM      7  C   UNL     1      34.065 -17.236 -24.636  0.00  0.00    +0.030 C 
ENDROOT
BRANCH   2  10
ATOM      8  O   UNL     1      36.859 -18.191 -21.041  0.00  0.00    -0.353 OA
ATOM      9  N   UNL     1      37.225 -19.119 -20.073  0.00  0.00    -0.070 NA
ATOM     10  C   UNL     1      35.600 -18.464 -21.457  0.00  0.00    +0.179 C 
ATOM     11  C   UNL     1      35.108 -19.549 -20.794  0.00  0.00    +0.069 C 
ATOM     12  C   UNL     1      36.163 -19.919 -19.942  0.00  0.00    +0.198 C 
BRANCH  12  14
ATOM     13  O   UNL     1      36.725 -20.967 -17.885  0.00  0.00    -0.243 OA
ATOM     14  C   UNL     1      36.197 -21.006 -19.008  0.00  0.00    +0.359 C 
BRANCH  14  15
ATOM     15  O   UNL     1      35.586 -22.159 -19.435  0.00  0.00    -0.476 OA
ATOM     16  H   UNL     1      34.652 -22.228 -19.418  0.00  0.00    +0.295 HD
ENDBRANCH  14  15
ENDBRANCH  12  14
ENDBRANCH   2  10
BRANCH   3  17
ATOM     17  C   UNL     1      34.591 -13.902 -23.009  0.00  0.00    -0.001 C 
ATOM     18  C   UNL     1      34.244 -12.958 -23.913  0.00  0.00    +0.021 C 
BRANCH  18  19
ATOM     19  C   UNL     1      34.254 -11.490 -23.633  0.00  0.00    +0.232 C 
BRANCH  19  20
ATOM     20  O   UNL     1      33.017 -11.131 -23.034  0.00  0.00    -0.470 OA
BRANCH  20  21
ATOM     21  C   UNL     1      32.967  -9.921 -22.392  0.00  0.00    +0.148 C 
ATOM     22  C   UNL     1      32.216  -9.763 -21.232  0.00  0.00    +0.143 C 
ATOM     23  C   UNL     1      32.180  -8.524 -20.595  0.00  0.00    +0.143 C 
ATOM     24  C   UNL     1      33.684  -8.853 -22.921  0.00  0.00    +0.037 C 
ATOM     25  C   UNL     1      32.897  -7.449 -21.119  0.00  0.00    +0.037 C 
ATOM     26  C   UNL     1      33.649  -7.614 -22.282  0.00  0.00    +0.006 C 
BRANCH  23  27
ATOM     27  O   UNL     1      31.453  -8.342 -19.456  0.00  0.00    -0.505 OA
ATOM     28  H   UNL     1      31.889  -8.185 -18.641  0.00  0.00    +0.292 HD
ENDBRANCH  23  27
BRANCH  22  30
ATOM     29  O   UNL     1      30.236 -10.996 -20.731  0.00  0.00    -0.245 OA
ATOM     30  C   UNL     1      31.467 -10.889 -20.682  0.00  0.00    +0.347 C 
BRANCH  30  31
ATOM     31  O   UNL     1      32.298 -11.808 -20.109  0.00  0.00    -0.441 OA
ATOM     32  C   UNL     1      32.002 -13.186 -20.358  0.00  0.00    +0.256 C 
ENDBRANCH  30  31
ENDBRANCH  22  30
ENDBRANCH  20  21
ENDBRANCH  19  20
ENDBRANCH  18  19
ENDBRANCH   3  17
TORSDOF 10
ENDMDL
