MODEL 1
REMARK VINA RESULT:     -11.4      0.000      0.000
REMARK  Name = 4449
REMARK  10 active torsions:
REMARK  status: ('A' for Active; 'I' for Inactive)
REMARK    1  A    between atoms: N_2  and  C_9
REMARK    2  A    between atoms: N_3  and  C_26
REMARK    3  A    between atoms: C_6  and  C_7
REMARK    4  A    between atoms: C_9  and  C_10
REMARK    5  A    between atoms: C_10  and  C_11
REMARK    6  A    between atoms: C_11  and  N_12
REMARK    7  A    between atoms: N_13  and  C_20
REMARK    8  A    between atoms: C_26  and  C_27
REMARK    9  A    between atoms: C_27  and  O_28
REMARK   10  A    between atoms: O_28  and  C_29
REMARK                            x       y       z     vdW  Elec       q    Type
REMARK                         _______ _______ _______ _____ _____    ______ ____
ROOT
ATOM      1  O   UNL     1      34.186 -11.557 -25.475  0.00  0.00    -0.245 OA
ATOM      2  N   UNL     1      33.265 -13.397 -24.330  0.00  0.00    -0.201 N 
ATOM      3  N   UNL     1      33.408 -11.466 -23.268  0.00  0.00    -0.263 N 
ATOM      4  N   UNL     1      32.754 -13.595 -23.075  0.00  0.00    -0.152 NA
ATOM      5  C   UNL     1      33.686 -12.066 -24.483  0.00  0.00    +0.348 A 
ATOM      6  C   UNL     1      32.866 -12.434 -22.498  0.00  0.00    +0.144 A 
ENDROOT
BRANCH   6   7
ATOM      7  C   UNL     1      32.428 -12.163 -21.098  0.00  0.00    +0.066 C 
ATOM      8  C   UNL     1      32.154 -13.460 -20.366  0.00  0.00    +0.008 C 
ENDBRANCH   6   7
BRANCH   2   9
ATOM      9  C   UNL     1      33.322 -14.459 -25.297  0.00  0.00    +0.130 C 
BRANCH   9  10
ATOM     10  C   UNL     1      33.746 -15.790 -24.677  0.00  0.00    +0.004 C 
BRANCH  10  11
ATOM     11  C   UNL     1      35.163 -15.794 -24.094  0.00  0.00    -0.075 C 
BRANCH  11  12
ATOM     12  N   UNL     1      35.411 -16.976 -23.270  0.00  0.00    +0.389 N 
ATOM     13  N   UNL     1      34.811 -18.954 -21.299  0.00  0.00    -0.312 N 
ATOM     14  C   UNL     1      34.407 -18.011 -23.538  0.00  0.00    -0.055 C 
ATOM     15  C   UNL     1      35.397 -16.624 -21.845  0.00  0.00    -0.055 C 
ATOM     16  C   UNL     1      34.688 -19.277 -22.723  0.00  0.00    +0.068 C 
ATOM     17  C   UNL     1      35.713 -17.842 -20.974  0.00  0.00    +0.068 C 
ATOM     18  H   UNL     1      36.333 -17.342 -23.510  0.00  0.00    -0.080 HD
BRANCH  13  20
ATOM     19 CL   UNL     1      36.904 -21.975 -17.732  0.00  0.00    -0.082 Cl
ATOM     20  C   UNL     1      34.638 -19.961 -20.342  0.00  0.00    +0.049 C 
ATOM     21  C   UNL     1      35.730 -20.414 -19.602  0.00  0.00    +0.026 C 
ATOM     22  C   UNL     1      33.373 -20.506 -20.125  0.00  0.00    +0.015 C 
ATOM     23  C   UNL     1      35.557 -21.413 -18.645  0.00  0.00    +0.059 C 
ATOM     24  C   UNL     1      33.200 -21.506 -19.168  0.00  0.00    +0.002 C 
ATOM     25  C   UNL     1      34.292 -21.960 -18.427  0.00  0.00    +0.011 C 
ENDBRANCH  13  20
ENDBRANCH  11  12
ENDBRANCH  10  11
ENDBRANCH   9  10
ENDBRANCH   2   9
BRANCH   3  26
ATOM     26  C   UNL     1      33.661 -10.080 -22.925  0.00  0.00    +0.159 C 
BRANCH  26  27
ATOM     27  C   UNL     1      32.507  -9.184 -23.336  0.00  0.00    +0.230 C 
BRANCH  27  28
ATOM     28  O   UNL     1      31.784  -8.785 -22.179  0.00  0.00    -0.473 OA
BRANCH  28  29
ATOM     29  C   UNL     1      31.754  -7.444 -21.901  0.00  0.00    +0.139 C 
ATOM     30  C   UNL     1      32.763  -6.869 -21.128  0.00  0.00    +0.037 C 
ATOM     31  C   UNL     1      30.716  -6.653 -22.391  0.00  0.00    +0.037 C 
ATOM     32  C   UNL     1      32.732  -5.504 -20.845  0.00  0.00    +0.003 C 
ATOM     33  C   UNL     1      30.685  -5.287 -22.109  0.00  0.00    +0.003 C 
ATOM     34  C   UNL     1      31.693  -4.713 -21.336  0.00  0.00    +0.000 C 
ENDBRANCH  28  29
ENDBRANCH  27  28
ENDBRANCH  26  27
ENDBRANCH   3  26
TORSDOF 10
ENDMDL
MODEL 2
REMARK VINA RESULT:     -11.2      4.218     11.638
REMARK  Name = 4449
REMARK  10 active torsions:
REMARK  status: ('A' for Active; 'I' for Inactive)
REMARK    1  A    between atoms: N_2  and  C_9
REMARK    2  A    between atoms: N_3  and  C_26
REMARK    3  A    between atoms: C_6  and  C_7
REMARK    4  A    between atoms: C_9  and  C_10
REMARK    5  A    between atoms: C_10  and  C_11
REMARK    6  A    between atoms: C_11  and  N_12
REMARK    7  A    between atoms: N_13  and  C_20
REMARK    8  A    between atoms: C_26  and  C_27
REMARK    9  A    between atoms: C_27  and  O_28
REMARK   10  A    between atoms: O_28  and  C_29
REMARK                            x       y       z     vdW  Elec       q    Type
REMARK                         _______ _______ _______ _____ _____    ______ ____
ROOT
ATOM      1  O   UNL     1      35.347 -16.415 -19.940  0.00  0.00    -0.245 OA
ATOM      2  N   UNL     1      34.375 -14.858 -21.415  0.00  0.00    -0.201 N 
ATOM      3  N   UNL     1      35.228 -16.711 -22.261  0.00  0.00    -0.263 N 
ATOM      4  N   UNL     1      34.187 -14.800 -22.771  0.00  0.00    -0.152 NA
ATOM      5  C   UNL     1      35.029 -16.049 -21.063  0.00  0.00    +0.348 A 
ATOM      6  C   UNL     1      34.708 -15.908 -23.213  0.00  0.00    +0.144 A 
ENDROOT
BRANCH   6   7
ATOM      7  C   UNL     1      34.732 -16.290 -24.655  0.00  0.00    +0.066 C 
ATOM      8  C   UNL     1      33.889 -15.333 -25.473  0.00  0.00    +0.008 C 
ENDBRANCH   6   7
BRANCH   2   9
ATOM      9  C   UNL     1      33.931 -13.802 -20.547  0.00  0.00    +0.130 C 
BRANCH   9  10
ATOM     10  C   UNL     1      32.500 -13.360 -20.849  0.00  0.00    +0.004 C 
BRANCH  10  11
ATOM     11  C   UNL     1      31.955 -12.289 -19.899  0.00  0.00    -0.075 C 
BRANCH  11  12
ATOM     12  N   UNL     1      32.268 -10.938 -20.360  0.00  0.00    +0.389 N 
ATOM     13  N   UNL     1      31.714  -8.375 -21.493  0.00  0.00    -0.312 N 
ATOM     14  C   UNL     1      31.494  -9.944 -19.607  0.00  0.00    -0.055 C 
ATOM     15  C   UNL     1      31.990 -10.805 -21.795  0.00  0.00    -0.055 C 
ATOM     16  C   UNL     1      31.854  -8.521 -20.041  0.00  0.00    +0.068 C 
ATOM     17  C   UNL     1      32.367  -9.411 -22.302  0.00  0.00    +0.068 C 
ATOM     18  H   UNL     1      33.262 -10.770 -20.200  0.00  0.00    -0.080 HD
BRANCH  13  20
ATOM     19 CL   UNL     1      32.035  -3.298 -20.899  0.00  0.00    -0.082 Cl
ATOM     20  C   UNL     1      31.568  -7.100 -22.052  0.00  0.00    +0.049 C 
ATOM     21  C   UNL     1      31.841  -5.968 -21.286  0.00  0.00    +0.026 C 
ATOM     22  C   UNL     1      31.155  -6.964 -23.377  0.00  0.00    +0.015 C 
ATOM     23  C   UNL     1      31.699  -4.698 -21.844  0.00  0.00    +0.059 C 
ATOM     24  C   UNL     1      31.013  -5.694 -23.936  0.00  0.00    +0.002 C 
ATOM     25  C   UNL     1      31.286  -4.560 -23.170  0.00  0.00    +0.011 C 
ENDBRANCH  13  20
ENDBRANCH  11  12
ENDBRANCH  10  11
ENDBRANCH   9  10
ENDBRANCH   2   9
BRANCH   3  26
ATOM     26  C   UNL     1      35.869 -18.002 -22.425  0.00  0.00    +0.159 C 
BRANCH  26  27
ATOM     27  C   UNL     1      34.861 -19.136 -22.372  0.00  0.00    +0.230 C 
BRANCH  27  28
ATOM     28  O   UNL     1      34.118 -19.051 -21.162  0.00  0.00    -0.473 OA
BRANCH  28  29
ATOM     29  C   UNL     1      34.266 -20.082 -20.273  0.00  0.00    +0.139 C 
ATOM     30  C   UNL     1      35.542 -20.530 -19.929  0.00  0.00    +0.037 C 
ATOM     31  C   UNL     1      33.142 -20.684 -19.710  0.00  0.00    +0.037 C 
ATOM     32  C   UNL     1      35.693 -21.579 -19.024  0.00  0.00    +0.003 C 
ATOM     33  C   UNL     1      33.291 -21.733 -18.803  0.00  0.00    +0.003 C 
ATOM     34  C   UNL     1      34.567 -22.181 -18.460  0.00  0.00    +0.000 C 
ENDBRANCH  28  29
ENDBRANCH  27  28
ENDBRANCH  26  27
ENDBRANCH   3  26
TORSDOF 10
ENDMDL
MODEL 3
REMARK VINA RESULT:     -10.9      5.140     12.040
REMARK  Name = 4449
REMARK  10 active torsions:
REMARK  status: ('A' for Active; 'I' for Inactive)
REMARK    1  A    between atoms: N_2  and  C_9
REMARK    2  A    between atoms: N_3  and  C_26
REMARK    3  A    between atoms: C_6  and  C_7
REMARK    4  A    between atoms: C_9  and  C_10
REMARK    5  A    between atoms: C_10  and  C_11
REMARK    6  A    between atoms: C_11  and  N_12
REMARK    7  A    between atoms: N_13  and  C_20
REMARK    8  A    between atoms: C_26  and  C_27
REMARK    9  A    between atoms: C_27  and  O_28
REMARK   10  A    between atoms: O_28  and  C_29
REMARK                            x       y       z     vdW  Elec       q    Type
REMARK                         _______ _______ _______ _____ _____    ______ ____
ROOT
ATOM      1  O   UNL     1      32.694 -21.879 -19.509  0.00  0.00    -0.245 OA
ATOM      2  N   UNL     1      34.823 -20.875 -19.486  0.00  0.00    -0.201 N 
ATOM      3  N   UNL     1      34.376 -22.416 -17.970  0.00  0.00    -0.263 N 
ATOM      4  N   UNL     1      35.946 -21.011 -18.714  0.00  0.00    -0.152 NA
ATOM      5  C   UNL     1      33.816 -21.746 -19.043  0.00  0.00    +0.348 A 
ATOM      6  C   UNL     1      35.626 -21.922 -17.842  0.00  0.00    +0.144 A 
ENDROOT
BRANCH   6   7
ATOM      7  C   UNL     1      36.552 -22.410 -16.780  0.00  0.00    +0.066 C 
ATOM      8  C   UNL     1      37.359 -21.262 -16.210  0.00  0.00    +0.008 C 
ENDBRANCH   6   7
BRANCH   2   9
ATOM      9  C   UNL     1      34.771 -19.946 -20.582  0.00  0.00    +0.130 C 
BRANCH   9  10
ATOM     10  C   UNL     1      36.048 -19.117 -20.707  0.00  0.00    +0.004 C 
BRANCH  10  11
ATOM     11  C   UNL     1      36.208 -18.400 -22.052  0.00  0.00    -0.075 C 
BRANCH  11  12
ATOM     12  N   UNL     1      35.884 -16.977 -21.954  0.00  0.00    +0.389 N 
ATOM     13  N   UNL     1      34.176 -14.705 -21.682  0.00  0.00    -0.312 N 
ATOM     14  C   UNL     1      35.237 -16.684 -20.670  0.00  0.00    -0.055 C 
ATOM     15  C   UNL     1      35.007 -16.571 -23.059  0.00  0.00    -0.055 C 
ATOM     16  C   UNL     1      34.944 -15.187 -20.531  0.00  0.00    +0.068 C 
ATOM     17  C   UNL     1      34.707 -15.072 -23.000  0.00  0.00    +0.068 C 
ATOM     18  H   UNL     1      36.754 -16.449 -22.013  0.00  0.00    -0.080 HD
BRANCH  13  20
ATOM     19 CL   UNL     1      33.068 -10.086 -23.596  0.00  0.00    -0.082 Cl
ATOM     20  C   UNL     1      33.439 -13.519 -21.578  0.00  0.00    +0.049 C 
ATOM     21  C   UNL     1      33.603 -12.511 -22.527  0.00  0.00    +0.026 C 
ATOM     22  C   UNL     1      32.538 -13.349 -20.527  0.00  0.00    +0.015 C 
ATOM     23  C   UNL     1      32.866 -11.332 -22.426  0.00  0.00    +0.059 C 
ATOM     24  C   UNL     1      31.800 -12.169 -20.425  0.00  0.00    +0.002 C 
ATOM     25  C   UNL     1      31.964 -11.160 -21.375  0.00  0.00    +0.011 C 
ENDBRANCH  13  20
ENDBRANCH  11  12
ENDBRANCH  10  11
ENDBRANCH   9  10
ENDBRANCH   2   9
BRANCH   3  26
ATOM     26  C   UNL     1      33.725 -23.434 -17.168  0.00  0.00    +0.159 C 
BRANCH  26  27
ATOM     27  C   UNL     1      33.064 -22.837 -15.938  0.00  0.00    +0.230 C 
BRANCH  27  28
ATOM     28  O   UNL     1      31.689 -22.600 -16.209  0.00  0.00    -0.473 OA
BRANCH  28  29
ATOM     29  C   UNL     1      30.785 -23.402 -15.564  0.00  0.00    +0.139 C 
ATOM     30  C   UNL     1      31.211 -24.254 -14.544  0.00  0.00    +0.037 C 
ATOM     31  C   UNL     1      29.439 -23.367 -15.925  0.00  0.00    +0.037 C 
ATOM     32  C   UNL     1      30.291 -25.070 -13.887  0.00  0.00    +0.003 C 
ATOM     33  C   UNL     1      28.518 -24.183 -15.268  0.00  0.00    +0.003 C 
ATOM     34  C   UNL     1      28.944 -25.034 -14.249  0.00  0.00    +0.000 C 
ENDBRANCH  28  29
ENDBRANCH  27  28
ENDBRANCH  26  27
ENDBRANCH   3  26
TORSDOF 10
ENDMDL
MODEL 4
REMARK VINA RESULT:     -10.8      6.944     13.139
REMARK  Name = 4449
REMARK  10 active torsions:
REMARK  status: ('A' for Active; 'I' for Inactive)
REMARK    1  A    between atoms: N_2  and  C_9
REMARK    2  A    between atoms: N_3  and  C_26
REMARK    3  A    between atoms: C_6  and  C_7
REMARK    4  A    between atoms: C_9  and  C_10
REMARK    5  A    between atoms: C_10  and  C_11
REMARK    6  A    between atoms: C_11  and  N_12
REMARK    7  A    between atoms: N_13  and  C_20
REMARK    8  A    between atoms: C_26  and  C_27
REMARK    9  A    between atoms: C_27  and  O_28
REMARK   10  A    between atoms: O_28  and  C_29
REMARK                            x       y       z     vdW  Elec       q    Type
REMARK                         _______ _______ _______ _____ _____    ______ ____
ROOT
ATOM      1  O   UNL     1      34.920 -23.681 -15.971  0.00  0.00    -0.245 OA
ATOM      2  N   UNL     1      36.896 -22.845 -15.002  0.00  0.00    -0.201 N 
ATOM      3  N   UNL     1      35.369 -23.726 -13.672  0.00  0.00    -0.263 N 
ATOM      4  N   UNL     1      37.383 -22.757 -13.724  0.00  0.00    -0.152 NA
ATOM      5  C   UNL     1      35.630 -23.450 -15.002  0.00  0.00    +0.348 A 
ATOM      6  C   UNL     1      36.447 -23.284 -12.990  0.00  0.00    +0.144 A 
ENDROOT
BRANCH   6   7
ATOM      7  C   UNL     1      36.537 -23.412 -11.506  0.00  0.00    +0.066 C 
ATOM      8  C   UNL     1      37.977 -23.606 -11.076  0.00  0.00    +0.008 C 
ENDBRANCH   6   7
BRANCH   2   9
ATOM      9  C   UNL     1      37.646 -22.361 -16.129  0.00  0.00    +0.130 C 
BRANCH   9  10
ATOM     10  C   UNL     1      36.920 -21.245 -16.879  0.00  0.00    +0.004 C 
BRANCH  10  11
ATOM     11  C   UNL     1      36.509 -21.608 -18.309  0.00  0.00    -0.075 C 
BRANCH  11  12
ATOM     12  N   UNL     1      35.983 -20.454 -19.036  0.00  0.00    +0.389 N 
ATOM     13  N   UNL     1      35.250 -18.938 -21.343  0.00  0.00    -0.312 N 
ATOM     14  C   UNL     1      34.816 -20.839 -19.838  0.00  0.00    -0.055 C 
ATOM     15  C   UNL     1      37.017 -19.876 -19.903  0.00  0.00    -0.055 C 
ATOM     16  C   UNL     1      34.221 -19.627 -20.561  0.00  0.00    +0.068 C 
ATOM     17  C   UNL     1      36.495 -18.632 -20.626  0.00  0.00    +0.068 C 
ATOM     18  H   UNL     1      35.695 -19.753 -18.353  0.00  0.00    -0.080 HD
BRANCH  13  20
ATOM     19 CL   UNL     1      34.764 -14.166 -23.140  0.00  0.00    -0.082 Cl
ATOM     20  C   UNL     1      34.875 -18.095 -22.396  0.00  0.00    +0.049 C 
ATOM     21  C   UNL     1      34.992 -16.713 -22.258  0.00  0.00    +0.026 C 
ATOM     22  C   UNL     1      34.389 -18.640 -23.585  0.00  0.00    +0.015 C 
ATOM     23  C   UNL     1      34.622 -15.874 -23.309  0.00  0.00    +0.059 C 
ATOM     24  C   UNL     1      34.019 -17.801 -24.636  0.00  0.00    +0.002 C 
ATOM     25  C   UNL     1      34.136 -16.417 -24.498  0.00  0.00    +0.011 C 
ENDBRANCH  13  20
ENDBRANCH  11  12
ENDBRANCH  10  11
ENDBRANCH   9  10
ENDBRANCH   2   9
BRANCH   3  26
ATOM     26  C   UNL     1      34.173 -24.360 -13.152  0.00  0.00    +0.159 C 
BRANCH  26  27
ATOM     27  C   UNL     1      33.029 -23.371 -13.023  0.00  0.00    +0.230 C 
BRANCH  27  28
ATOM     28  O   UNL     1      31.845 -24.065 -12.652  0.00  0.00    -0.473 OA
BRANCH  28  29
ATOM     29  C   UNL     1      30.800 -24.023 -13.538  0.00  0.00    +0.139 C 
ATOM     30  C   UNL     1      30.100 -25.190 -13.846  0.00  0.00    +0.037 C 
ATOM     31  C   UNL     1      30.436 -22.815 -14.130  0.00  0.00    +0.037 C 
ATOM     32  C   UNL     1      29.037 -25.148 -14.747  0.00  0.00    +0.003 C 
ATOM     33  C   UNL     1      29.372 -22.772 -15.031  0.00  0.00    +0.003 C 
ATOM     34  C   UNL     1      28.673 -23.938 -15.340  0.00  0.00    +0.000 C 
ENDBRANCH  28  29
ENDBRANCH  27  28
ENDBRANCH  26  27
ENDBRANCH   3  26
TORSDOF 10
ENDMDL
MODEL 5
REMARK VINA RESULT:     -10.7      4.220     11.606
REMARK  Name = 4449
REMARK  10 active torsions:
REMARK  status: ('A' for Active; 'I' for Inactive)
REMARK    1  A    between atoms: N_2  and  C_9
REMARK    2  A    between atoms: N_3  and  C_26
REMARK    3  A    between atoms: C_6  and  C_7
REMARK    4  A    between atoms: C_9  and  C_10
REMARK    5  A    between atoms: C_10  and  C_11
REMARK    6  A    between atoms: C_11  and  N_12
REMARK    7  A    between atoms: N_13  and  C_20
REMARK    8  A    between atoms: C_26  and  C_27
REMARK    9  A    between atoms: C_27  and  O_28
REMARK   10  A    between atoms: O_28  and  C_29
REMARK                            x       y       z     vdW  Elec       q    Type
REMARK                         _______ _______ _______ _____ _____    ______ ____
ROOT
ATOM      1  O   UNL     1      34.629 -14.728 -20.331  0.00  0.00    -0.245 OA
ATOM      2  N   UNL     1      32.961 -13.414 -21.348  0.00  0.00    -0.201 N 
ATOM      3  N   UNL     1      34.256 -14.649 -22.642  0.00  0.00    -0.263 N 
ATOM      4  N   UNL     1      32.554 -13.200 -22.638  0.00  0.00    -0.152 NA
ATOM      5  C   UNL     1      34.031 -14.321 -21.317  0.00  0.00    +0.348 A 
ATOM      6  C   UNL     1      33.348 -13.945 -23.351  0.00  0.00    +0.144 A 
ENDROOT
BRANCH   6   7
ATOM      7  C   UNL     1      33.275 -14.040 -24.838  0.00  0.00    +0.066 C 
ATOM      8  C   UNL     1      33.390 -12.666 -25.465  0.00  0.00    +0.008 C 
ENDBRANCH   6   7
BRANCH   2   9
ATOM      9  C   UNL     1      32.323 -12.760 -20.238  0.00  0.00    +0.130 C 
BRANCH   9  10
ATOM     10  C   UNL     1      31.397 -11.628 -20.681  0.00  0.00    +0.004 C 
BRANCH  10  11
ATOM     11  C   UNL     1      31.579 -10.321 -19.902  0.00  0.00    -0.075 C 
BRANCH  11  12
ATOM     12  N   UNL     1      32.261  -9.301 -20.698  0.00  0.00    +0.389 N 
ATOM     13  N   UNL     1      32.448  -7.088 -22.493  0.00  0.00    -0.312 N 
ATOM     14  C   UNL     1      31.862  -7.958 -20.264  0.00  0.00    -0.055 C 
ATOM     15  C   UNL     1      31.963  -9.475 -22.125  0.00  0.00    -0.055 C 
ATOM     16  C   UNL     1      32.612  -6.879 -21.052  0.00  0.00    +0.068 C 
ATOM     17  C   UNL     1      32.717  -8.449 -22.973  0.00  0.00    +0.068 C 
ATOM     18  H   UNL     1      33.266  -9.408 -20.556  0.00  0.00    -0.080 HD
BRANCH  13  20
ATOM     19 CL   UNL     1      35.613  -4.695 -25.731  0.00  0.00    -0.082 Cl
ATOM     20  C   UNL     1      32.665  -6.024 -23.377  0.00  0.00    +0.049 C 
ATOM     21  C   UNL     1      33.889  -5.903 -24.035  0.00  0.00    +0.026 C 
ATOM     22  C   UNL     1      31.655  -5.090 -23.604  0.00  0.00    +0.015 C 
ATOM     23  C   UNL     1      34.103  -4.846 -24.919  0.00  0.00    +0.059 C 
ATOM     24  C   UNL     1      31.869  -4.033 -24.488  0.00  0.00    +0.002 C 
ATOM     25  C   UNL     1      33.093  -3.911 -25.147  0.00  0.00    +0.011 C 
ENDBRANCH  13  20
ENDBRANCH  11  12
ENDBRANCH  10  11
ENDBRANCH   9  10
ENDBRANCH   2   9
BRANCH   3  26
ATOM     26  C   UNL     1      35.268 -15.564 -23.134  0.00  0.00    +0.159 C 
BRANCH  26  27
ATOM     27  C   UNL     1      34.901 -17.008 -22.846  0.00  0.00    +0.230 C 
BRANCH  27  28
ATOM     28  O   UNL     1      36.030 -17.684 -22.308  0.00  0.00    -0.473 OA
BRANCH  28  29
ATOM     29  C   UNL     1      35.780 -18.683 -21.404  0.00  0.00    +0.139 C 
ATOM     30  C   UNL     1      34.496 -19.218 -21.294  0.00  0.00    +0.037 C 
ATOM     31  C   UNL     1      36.807 -19.166 -20.596  0.00  0.00    +0.037 C 
ATOM     32  C   UNL     1      34.240 -20.235 -20.375  0.00  0.00    +0.003 C 
ATOM     33  C   UNL     1      36.553 -20.184 -19.676  0.00  0.00    +0.003 C 
ATOM     34  C   UNL     1      35.270 -20.718 -19.566  0.00  0.00    +0.000 C 
ENDBRANCH  28  29
ENDBRANCH  27  28
ENDBRANCH  26  27
ENDBRANCH   3  26
TORSDOF 10
ENDMDL
MODEL 6
REMARK VINA RESULT:     -10.7      1.717      2.480
REMARK  Name = 4449
REMARK  10 active torsions:
REMARK  status: ('A' for Active; 'I' for Inactive)
REMARK    1  A    between atoms: N_2  and  C_9
REMARK    2  A    between atoms: N_3  and  C_26
REMARK    3  A    between atoms: C_6  and  C_7
REMARK    4  A    between atoms: C_9  and  C_10
REMARK    5  A    between atoms: C_10  and  C_11
REMARK    6  A    between atoms: C_11  and  N_12
REMARK    7  A    between atoms: N_13  and  C_20
REMARK    8  A    between atoms: C_26  and  C_27
REMARK    9  A    between atoms: C_27  and  O_28
REMARK   10  A    between atoms: O_28  and  C_29
REMARK                            x       y       z     vdW  Elec       q    Type
REMARK                         _______ _______ _______ _____ _____    ______ ____
ROOT
ATOM      1  O   UNL     1      31.801 -12.529 -21.480  0.00  0.00    -0.245 OA
ATOM      2  N   UNL     1      33.382 -12.761 -23.210  0.00  0.00    -0.201 N 
ATOM      3  N   UNL     1      32.973 -10.736 -22.429  0.00  0.00    -0.263 N 
ATOM      4  N   UNL     1      34.177 -11.895 -23.913  0.00  0.00    -0.152 NA
ATOM      5  C   UNL     1      32.611 -12.062 -22.268  0.00  0.00    +0.348 A 
ATOM      6  C   UNL     1      33.893 -10.726 -23.416  0.00  0.00    +0.144 A 
ENDROOT
BRANCH   6   7
ATOM      7  C   UNL     1      34.529  -9.458 -23.876  0.00  0.00    +0.066 C 
ATOM      8  C   UNL     1      35.418  -9.713 -25.076  0.00  0.00    +0.008 C 
ENDBRANCH   6   7
BRANCH   2   9
ATOM      9  C   UNL     1      33.400 -14.175 -23.465  0.00  0.00    +0.130 C 
BRANCH   9  10
ATOM     10  C   UNL     1      34.752 -14.810 -23.144  0.00  0.00    +0.004 C 
BRANCH  10  11
ATOM     11  C   UNL     1      35.079 -16.054 -23.976  0.00  0.00    -0.075 C 
BRANCH  11  12
ATOM     12  N   UNL     1      35.363 -17.216 -23.135  0.00  0.00    +0.389 N 
ATOM     13  N   UNL     1      34.826 -19.173 -21.125  0.00  0.00    -0.312 N 
ATOM     14  C   UNL     1      34.380 -18.278 -23.376  0.00  0.00    -0.055 C 
ATOM     15  C   UNL     1      35.354 -16.839 -21.716  0.00  0.00    -0.055 C 
ATOM     16  C   UNL     1      34.698 -19.522 -22.542  0.00  0.00    +0.068 C 
ATOM     17  C   UNL     1      35.705 -18.035 -20.828  0.00  0.00    +0.068 C 
ATOM     18  H   UNL     1      36.290 -17.565 -23.377  0.00  0.00    -0.080 HD
BRANCH  13  20
ATOM     19 CL   UNL     1      37.011 -22.054 -17.498  0.00  0.00    -0.082 Cl
ATOM     20  C   UNL     1      34.685 -20.166 -20.148  0.00  0.00    +0.049 C 
ATOM     21  C   UNL     1      35.790 -20.568 -19.399  0.00  0.00    +0.026 C 
ATOM     22  C   UNL     1      33.438 -20.749 -19.922  0.00  0.00    +0.015 C 
ATOM     23  C   UNL     1      35.648 -21.555 -18.423  0.00  0.00    +0.059 C 
ATOM     24  C   UNL     1      33.296 -21.735 -18.947  0.00  0.00    +0.002 C 
ATOM     25  C   UNL     1      34.401 -22.138 -18.197  0.00  0.00    +0.011 C 
ENDBRANCH  13  20
ENDBRANCH  11  12
ENDBRANCH  10  11
ENDBRANCH   9  10
ENDBRANCH   2   9
BRANCH   3  26
ATOM     26  C   UNL     1      32.449  -9.613 -21.675  0.00  0.00    +0.159 C 
BRANCH  26  27
ATOM     27  C   UNL     1      31.715  -8.633 -22.572  0.00  0.00    +0.230 C 
BRANCH  27  28
ATOM     28  O   UNL     1      32.037  -7.304 -22.183  0.00  0.00    -0.473 OA
BRANCH  28  29
ATOM     29  C   UNL     1      32.465  -6.457 -23.171  0.00  0.00    +0.139 C 
ATOM     30  C   UNL     1      31.566  -6.000 -24.135  0.00  0.00    +0.037 C 
ATOM     31  C   UNL     1      33.798  -6.051 -23.214  0.00  0.00    +0.037 C 
ATOM     32  C   UNL     1      32.001  -5.137 -25.141  0.00  0.00    +0.003 C 
ATOM     33  C   UNL     1      34.233  -5.188 -24.219  0.00  0.00    +0.003 C 
ATOM     34  C   UNL     1      33.335  -4.731 -25.183  0.00  0.00    +0.000 C 
ENDBRANCH  28  29
ENDBRANCH  27  28
ENDBRANCH  26  27
ENDBRANCH   3  26
TORSDOF 10
ENDMDL
MODEL 7
REMARK VINA RESULT:     -10.7      1.946      2.502
REMARK  Name = 4449
REMARK  10 active torsions:
REMARK  status: ('A' for Active; 'I' for Inactive)
REMARK    1  A    between atoms: N_2  and  C_9
REMARK    2  A    between atoms: N_3  and  C_26
REMARK    3  A    between atoms: C_6  and  C_7
REMARK    4  A    between atoms: C_9  and  C_10
REMARK    5  A    between atoms: C_10  and  C_11
REMARK    6  A    between atoms: C_11  and  N_12
REMARK    7  A    between atoms: N_13  and  C_20
REMARK    8  A    between atoms: C_26  and  C_27
REMARK    9  A    between atoms: C_27  and  O_28
REMARK   10  A    between atoms: O_28  and  C_29
REMARK                            x       y       z     vdW  Elec       q    Type
REMARK                         _______ _______ _______ _____ _____    ______ ____
ROOT
ATOM      1  O   UNL     1      33.708  -9.609 -23.904  0.00  0.00    -0.245 OA
ATOM      2  N   UNL     1      33.226 -11.672 -22.879  0.00  0.00    -0.201 N 
ATOM      3  N   UNL     1      32.374  -9.838 -21.992  0.00  0.00    -0.263 N 
ATOM      4  N   UNL     1      32.496 -12.060 -21.787  0.00  0.00    -0.152 NA
ATOM      5  C   UNL     1      33.170 -10.279 -23.034  0.00  0.00    +0.348 A 
ATOM      6  C   UNL     1      32.024 -10.947 -21.306  0.00  0.00    +0.144 A 
ENDROOT
BRANCH   6   7
ATOM      7  C   UNL     1      31.151 -10.874 -20.099  0.00  0.00    +0.066 C 
ATOM      8  C   UNL     1      31.981 -10.611 -18.859  0.00  0.00    +0.008 C 
ENDBRANCH   6   7
BRANCH   2   9
ATOM      9  C   UNL     1      33.921 -12.627 -23.698  0.00  0.00    +0.130 C 
BRANCH   9  10
ATOM     10  C   UNL     1      34.213 -13.931 -22.956  0.00  0.00    +0.004 C 
BRANCH  10  11
ATOM     11  C   UNL     1      34.658 -15.086 -23.859  0.00  0.00    -0.075 C 
BRANCH  11  12
ATOM     12  N   UNL     1      35.224 -16.194 -23.090  0.00  0.00    +0.389 N 
ATOM     13  N   UNL     1      35.172 -18.429 -21.313  0.00  0.00    -0.312 N 
ATOM     14  C   UNL     1      34.638 -17.469 -23.517  0.00  0.00    -0.055 C 
ATOM     15  C   UNL     1      34.995 -15.995 -21.654  0.00  0.00    -0.055 C 
ATOM     16  C   UNL     1      35.263 -18.644 -22.759  0.00  0.00    +0.068 C 
ATOM     17  C   UNL     1      35.632 -17.119 -20.834  0.00  0.00    +0.068 C 
ATOM     18  H   UNL     1      36.229 -16.219 -23.263  0.00  0.00    -0.080 HD
BRANCH  13  20
ATOM     19 CL   UNL     1      32.800 -22.032 -18.553  0.00  0.00    -0.082 Cl
ATOM     20  C   UNL     1      35.274 -19.519 -20.441  0.00  0.00    +0.049 C 
ATOM     21  C   UNL     1      34.121 -20.156 -19.984  0.00  0.00    +0.026 C 
ATOM     22  C   UNL     1      36.529 -19.971 -20.034  0.00  0.00    +0.015 C 
ATOM     23  C   UNL     1      34.223 -21.246 -19.119  0.00  0.00    +0.059 C 
ATOM     24  C   UNL     1      36.631 -21.060 -19.169  0.00  0.00    +0.002 C 
ATOM     25  C   UNL     1      35.478 -21.698 -18.711  0.00  0.00    +0.011 C 
ENDBRANCH  13  20
ENDBRANCH  11  12
ENDBRANCH  10  11
ENDBRANCH   9  10
ENDBRANCH   2   9
BRANCH   3  26
ATOM     26  C   UNL     1      32.012  -8.461 -21.720  0.00  0.00    +0.159 C 
BRANCH  26  27
ATOM     27  C   UNL     1      33.228  -7.623 -21.367  0.00  0.00    +0.230 C 
BRANCH  27  28
ATOM     28  O   UNL     1      32.866  -6.248 -21.352  0.00  0.00    -0.473 OA
BRANCH  28  29
ATOM     29  C   UNL     1      33.043  -5.549 -22.517  0.00  0.00    +0.139 C 
ATOM     30  C   UNL     1      32.189  -4.493 -22.833  0.00  0.00    +0.037 C 
ATOM     31  C   UNL     1      34.078  -5.893 -23.386  0.00  0.00    +0.037 C 
ATOM     32  C   UNL     1      32.369  -3.781 -24.019  0.00  0.00    +0.003 C 
ATOM     33  C   UNL     1      34.260  -5.180 -24.571  0.00  0.00    +0.003 C 
ATOM     34  C   UNL     1      33.405  -4.125 -24.888  0.00  0.00    +0.000 C 
ENDBRANCH  28  29
ENDBRANCH  27  28
ENDBRANCH  26  27
ENDBRANCH   3  26
TORSDOF 10
ENDMDL
MODEL 8
REMARK VINA RESULT:     -10.5      5.654     12.910
REMARK  Name = 4449
REMARK  10 active torsions:
REMARK  status: ('A' for Active; 'I' for Inactive)
REMARK    1  A    between atoms: N_2  and  C_9
REMARK    2  A    between atoms: N_3  and  C_26
REMARK    3  A    between atoms: C_6  and  C_7
REMARK    4  A    between atoms: C_9  and  C_10
REMARK    5  A    between atoms: C_10  and  C_11
REMARK    6  A    between atoms: C_11  and  N_12
REMARK    7  A    between atoms: N_13  and  C_20
REMARK    8  A    between atoms: C_26  and  C_27
REMARK    9  A    between atoms: C_27  and  O_28
REMARK   10  A    between atoms: O_28  and  C_29
REMARK                            x       y       z     vdW  Elec       q    Type
REMARK                         _______ _______ _______ _____ _____    ______ ____
ROOT
ATOM      1  O   UNL     1      35.618 -22.361 -18.032  0.00  0.00    -0.245 OA
ATOM      2  N   UNL     1      33.329 -22.017 -18.462  0.00  0.00    -0.201 N 
ATOM      3  N   UNL     1      33.905 -22.950 -16.546  0.00  0.00    -0.263 N 
ATOM      4  N   UNL     1      32.170 -22.266 -17.776  0.00  0.00    -0.152 NA
ATOM      5  C   UNL     1      34.439 -22.437 -17.714  0.00  0.00    +0.348 A 
ATOM      6  C   UNL     1      32.567 -22.814 -16.665  0.00  0.00    +0.144 A 
ENDROOT
BRANCH   6   7
ATOM      7  C   UNL     1      31.639 -23.258 -15.585  0.00  0.00    +0.066 C 
ATOM      8  C   UNL     1      30.210 -22.894 -15.930  0.00  0.00    +0.008 C 
ENDBRANCH   6   7
BRANCH   2   9
ATOM      9  C   UNL     1      33.317 -21.405 -19.763  0.00  0.00    +0.130 C 
BRANCH   9  10
ATOM     10  C   UNL     1      34.029 -20.053 -19.779  0.00  0.00    +0.004 C 
BRANCH  10  11
ATOM     11  C   UNL     1      35.365 -20.051 -20.528  0.00  0.00    -0.075 C 
BRANCH  11  12
ATOM     12  N   UNL     1      35.466 -18.929 -21.461  0.00  0.00    +0.389 N 
ATOM     13  N   UNL     1      34.549 -16.626 -22.880  0.00  0.00    -0.312 N 
ATOM     14  C   UNL     1      35.262 -17.656 -20.759  0.00  0.00    -0.055 C 
ATOM     15  C   UNL     1      34.484 -19.067 -22.542  0.00  0.00    -0.055 C 
ATOM     16  C   UNL     1      35.422 -16.469 -21.714  0.00  0.00    +0.068 C 
ATOM     17  C   UNL     1      34.619 -17.928 -23.556  0.00  0.00    +0.068 C 
ATOM     18  H   UNL     1      36.404 -18.935 -21.864  0.00  0.00    -0.080 HD
BRANCH  13  20
ATOM     19 CL   UNL     1      33.805 -11.564 -23.099  0.00  0.00    -0.082 Cl
ATOM     20  C   UNL     1      34.204 -15.506 -23.646  0.00  0.00    +0.049 C 
ATOM     21  C   UNL     1      34.178 -14.242 -23.059  0.00  0.00    +0.026 C 
ATOM     22  C   UNL     1      33.893 -15.655 -24.998  0.00  0.00    +0.015 C 
ATOM     23  C   UNL     1      33.840 -13.126 -23.823  0.00  0.00    +0.059 C 
ATOM     24  C   UNL     1      33.555 -14.539 -25.762  0.00  0.00    +0.002 C 
ATOM     25  C   UNL     1      33.528 -13.274 -25.175  0.00  0.00    +0.011 C 
ENDBRANCH  13  20
ENDBRANCH  11  12
ENDBRANCH  10  11
ENDBRANCH   9  10
ENDBRANCH   2   9
BRANCH   3  26
ATOM     26  C   UNL     1      34.658 -23.511 -15.440  0.00  0.00    +0.159 C 
BRANCH  26  27
ATOM     27  C   UNL     1      35.617 -22.496 -14.846  0.00  0.00    +0.230 C 
BRANCH  27  28
ATOM     28  O   UNL     1      36.934 -23.032 -14.850  0.00  0.00    -0.473 OA
BRANCH  28  29
ATOM     29  C   UNL     1      37.242 -23.923 -13.855  0.00  0.00    +0.139 C 
ATOM     30  C   UNL     1      37.097 -23.552 -12.518  0.00  0.00    +0.037 C 
ATOM     31  C   UNL     1      37.699 -25.199 -14.179  0.00  0.00    +0.037 C 
ATOM     32  C   UNL     1      37.410 -24.458 -11.505  0.00  0.00    +0.003 C 
ATOM     33  C   UNL     1      38.011 -26.107 -13.166  0.00  0.00    +0.003 C 
ATOM     34  C   UNL     1      37.867 -25.736 -11.830  0.00  0.00    +0.000 C 
ENDBRANCH  28  29
ENDBRANCH  27  28
ENDBRANCH  26  27
ENDBRANCH   3  26
TORSDOF 10
ENDMDL
MODEL 9
REMARK VINA RESULT:     -10.4      4.756     11.834
REMARK  Name = 4449
REMARK  10 active torsions:
REMARK  status: ('A' for Active; 'I' for Inactive)
REMARK    1  A    between atoms: N_2  and  C_9
REMARK    2  A    between atoms: N_3  and  C_26
REMARK    3  A    between atoms: C_6  and  C_7
REMARK    4  A    between atoms: C_9  and  C_10
REMARK    5  A    between atoms: C_10  and  C_11
REMARK    6  A    between atoms: C_11  and  N_12
REMARK    7  A    between atoms: N_13  and  C_20
REMARK    8  A    between atoms: C_26  and  C_27
REMARK    9  A    between atoms: C_27  and  O_28
REMARK   10  A    between atoms: O_28  and  C_29
REMARK                            x       y       z     vdW  Elec       q    Type
REMARK                         _______ _______ _______ _____ _____    ______ ____
ROOT
ATOM      1  O   UNL     1      32.443 -20.679 -20.170  0.00  0.00    -0.245 OA
ATOM      2  N   UNL     1      34.610 -19.758 -20.214  0.00  0.00    -0.201 N 
ATOM      3  N   UNL     1      34.284 -21.615 -19.064  0.00  0.00    -0.263 N 
ATOM      4  N   UNL     1      35.817 -20.104 -19.667  0.00  0.00    -0.152 NA
ATOM      5  C   UNL     1      33.624 -20.689 -19.853  0.00  0.00    +0.348 A 
ATOM      6  C   UNL     1      35.565 -21.194 -19.003  0.00  0.00    +0.144 A 
ENDROOT
BRANCH   6   7
ATOM      7  C   UNL     1      36.597 -21.949 -18.234  0.00  0.00    +0.066 C 
ATOM      8  C   UNL     1      36.906 -21.246 -16.928  0.00  0.00    +0.008 C 
ENDBRANCH   6   7
BRANCH   2   9
ATOM      9  C   UNL     1      34.463 -18.587 -21.035  0.00  0.00    +0.130 C 
BRANCH   9  10
ATOM     10  C   UNL     1      34.764 -18.864 -22.507  0.00  0.00    +0.004 C 
BRANCH  10  11
ATOM     11  C   UNL     1      35.330 -17.664 -23.273  0.00  0.00    -0.075 C 
BRANCH  11  12
ATOM     12  N   UNL     1      34.539 -16.454 -23.056  0.00  0.00    +0.389 N 
ATOM     13  N   UNL     1      34.018 -13.646 -23.047  0.00  0.00    -0.312 N 
ATOM     14  C   UNL     1      34.349 -15.730 -24.318  0.00  0.00    -0.055 C 
ATOM     15  C   UNL     1      35.191 -15.581 -22.072  0.00  0.00    -0.055 C 
ATOM     16  C   UNL     1      33.474 -14.489 -24.114  0.00  0.00    +0.068 C 
ATOM     17  C   UNL     1      34.344 -14.337 -21.794  0.00  0.00    +0.068 C 
ATOM     18  H   UNL     1      33.626 -16.732 -22.696  0.00  0.00    -0.080 HD
BRANCH  13  20
ATOM     19 CL   UNL     1      31.166 -10.011 -20.838  0.00  0.00    -0.082 Cl
ATOM     20  C   UNL     1      33.657 -12.295 -22.977  0.00  0.00    +0.049 C 
ATOM     21  C   UNL     1      32.702 -11.876 -22.052  0.00  0.00    +0.026 C 
ATOM     22  C   UNL     1      34.258 -11.368 -23.830  0.00  0.00    +0.015 C 
ATOM     23  C   UNL     1      32.346 -10.529 -21.979  0.00  0.00    +0.059 C 
ATOM     24  C   UNL     1      33.902 -10.022 -23.757  0.00  0.00    +0.002 C 
ATOM     25  C   UNL     1      32.946  -9.602 -22.831  0.00  0.00    +0.011 C 
ENDBRANCH  13  20
ENDBRANCH  11  12
ENDBRANCH  10  11
ENDBRANCH   9  10
ENDBRANCH   2   9
BRANCH   3  26
ATOM     26  C   UNL     1      33.690 -22.784 -18.445  0.00  0.00    +0.159 C 
BRANCH  26  27
ATOM     27  C   UNL     1      33.291 -22.511 -17.006  0.00  0.00    +0.230 C 
BRANCH  27  28
ATOM     28  O   UNL     1      31.896 -22.736 -16.852  0.00  0.00    -0.473 OA
BRANCH  28  29
ATOM     29  C   UNL     1      31.476 -23.204 -15.635  0.00  0.00    +0.139 C 
ATOM     30  C   UNL     1      32.328 -23.142 -14.532  0.00  0.00    +0.037 C 
ATOM     31  C   UNL     1      30.197 -23.742 -15.497  0.00  0.00    +0.037 C 
ATOM     32  C   UNL     1      31.901 -23.618 -13.292  0.00  0.00    +0.003 C 
ATOM     33  C   UNL     1      29.769 -24.218 -14.258  0.00  0.00    +0.003 C 
ATOM     34  C   UNL     1      30.621 -24.156 -13.156  0.00  0.00    +0.000 C 
ENDBRANCH  28  29
ENDBRANCH  27  28
ENDBRANCH  26  27
ENDBRANCH   3  26
TORSDOF 10
ENDMDL
