MODEL 1
REMARK VINA RESULT:     -12.9      0.000      0.000
REMARK  Name = 24808489
REMARK  4 active torsions:
REMARK  status: ('A' for Active; 'I' for Inactive)
REMARK    1  A    between atoms: N_1  and  C_10
REMARK    2  A    between atoms: N_1  and  C_21
REMARK    3  A    between atoms: C_18  and  C_24
REMARK    4  A    between atoms: C_24  and  N_25
REMARK                            x       y       z     vdW  Elec       q    Type
REMARK                         _______ _______ _______ _____ _____    ______ ____
ROOT
ATOM      1  N   UNL     1      34.569 -22.415 -18.295  0.00  0.00    -0.311 N 
ATOM      2  H   UNL     1      35.249 -23.122 -18.214  0.00  0.00    +0.152 HD
ENDROOT
BRANCH   1  10
ATOM      3 BR   UNL     1      27.946 -22.834 -16.312  0.00  0.00    -0.049 Br
ATOM      4  O   UNL     1      35.724 -23.172 -16.165  0.00  0.00    -0.270 OA
ATOM      5  O   UNL     1      33.360 -24.336 -12.407  0.00  0.00    -0.270 OA
ATOM      6  N   UNL     1      34.505 -23.745 -14.309  0.00  0.00    -0.248 N 
ATOM      7  C   UNL     1      33.332 -23.033 -16.310  0.00  0.00    +0.068 C 
ATOM      8  C   UNL     1      32.051 -23.224 -15.596  0.00  0.00    +0.010 C 
ATOM      9  C   UNL     1      32.067 -23.669 -14.264  0.00  0.00    +0.054 C 
ATOM     10  C   UNL     1      33.438 -22.611 -17.582  0.00  0.00    +0.066 C 
ATOM     11  C   UNL     1      34.631 -23.312 -15.621  0.00  0.00    +0.253 C 
ATOM     12  C   UNL     1      30.799 -22.980 -16.188  0.00  0.00    +0.007 C 
ATOM     13  C   UNL     1      33.345 -23.948 -13.571  0.00  0.00    +0.252 C 
ATOM     14  C   UNL     1      30.871 -23.863 -13.552  0.00  0.00    +0.005 C 
ATOM     15  C   UNL     1      29.609 -23.173 -15.478  0.00  0.00    +0.035 C 
ATOM     16  C   UNL     1      29.645 -23.614 -14.162  0.00  0.00    +0.007 C 
ATOM     17  H   UNL     1      35.349 -23.935 -13.839  0.00  0.00    +0.158 HD
ENDBRANCH   1  10
BRANCH   1  21
ATOM     18  C   UNL     1      35.576 -19.205 -20.805  0.00  0.00    -0.043 C 
ATOM     19  C   UNL     1      36.568 -19.852 -20.068  0.00  0.00    -0.005 C 
ATOM     20  C   UNL     1      34.249 -19.624 -20.707  0.00  0.00    -0.005 C 
ATOM     21  C   UNL     1      34.906 -21.338 -19.136  0.00  0.00    +0.048 C 
ATOM     22  C   UNL     1      36.233 -20.919 -19.234  0.00  0.00    +0.014 C 
ATOM     23  C   UNL     1      33.914 -20.690 -19.873  0.00  0.00    +0.014 C 
BRANCH  18  24
ATOM     24  C   UNL     1      35.934 -18.064 -21.696  0.00  0.00    -0.050 C 
BRANCH  24  25
ATOM     25  N   UNL     1      35.049 -16.922 -21.519  0.00  0.00    +0.390 N 
ATOM     26  C   UNL     1      35.241 -16.262 -20.228  0.00  0.00    -0.077 C 
ATOM     27  C   UNL     1      35.279 -15.879 -22.517  0.00  0.00    -0.077 C 
ATOM     28  C   UNL     1      34.535 -14.927 -20.419  0.00  0.00    -0.025 C 
ATOM     29  C   UNL     1      34.558 -14.677 -21.924  0.00  0.00    -0.025 C 
ATOM     30  H   UNL     1      34.114 -17.321 -21.601  0.00  0.00    -0.079 HD
ENDBRANCH  24  25
ENDBRANCH  18  24
ENDBRANCH   1  21
TORSDOF 4
ENDMDL
MODEL 2
REMARK VINA RESULT:     -12.8      1.071      1.588
REMARK  Name = 24808489
REMARK  4 active torsions:
REMARK  status: ('A' for Active; 'I' for Inactive)
REMARK    1  A    between atoms: N_1  and  C_10
REMARK    2  A    between atoms: N_1  and  C_21
REMARK    3  A    between atoms: C_18  and  C_24
REMARK    4  A    between atoms: C_24  and  N_25
REMARK                            x       y       z     vdW  Elec       q    Type
REMARK                         _______ _______ _______ _____ _____    ______ ____
ROOT
ATOM      1  N   UNL     1      34.618 -22.548 -18.146  0.00  0.00    -0.311 N 
ATOM      2  H   UNL     1      35.292 -23.265 -18.120  0.00  0.00    +0.152 HD
ENDROOT
BRANCH   1  10
ATOM      3 BR   UNL     1      28.114 -23.052 -15.820  0.00  0.00    -0.049 Br
ATOM      4  O   UNL     1      35.896 -23.190 -16.049  0.00  0.00    -0.270 OA
ATOM      5  O   UNL     1      33.751 -24.261 -12.136  0.00  0.00    -0.270 OA
ATOM      6  N   UNL     1      34.785 -23.718 -14.114  0.00  0.00    -0.248 N 
ATOM      7  C   UNL     1      33.497 -23.116 -16.080  0.00  0.00    +0.068 C 
ATOM      8  C   UNL     1      32.258 -23.311 -15.296  0.00  0.00    +0.010 C 
ATOM      9  C   UNL     1      32.351 -23.701 -13.950  0.00  0.00    +0.054 C 
ATOM     10  C   UNL     1      33.529 -22.743 -17.371  0.00  0.00    +0.066 C 
ATOM     11  C   UNL     1      34.835 -23.335 -15.446  0.00  0.00    +0.253 C 
ATOM     12  C   UNL     1      30.972 -23.121 -15.833  0.00  0.00    +0.007 C 
ATOM     13  C   UNL     1      33.668 -23.920 -13.312  0.00  0.00    +0.252 C 
ATOM     14  C   UNL     1      31.197 -23.897 -13.173  0.00  0.00    +0.005 C 
ATOM     15  C   UNL     1      29.824 -23.316 -15.059  0.00  0.00    +0.035 C 
ATOM     16  C   UNL     1      29.937 -23.703 -13.730  0.00  0.00    +0.007 C 
ATOM     17  H   UNL     1      35.656 -23.868 -13.680  0.00  0.00    +0.158 HD
ENDBRANCH   1  10
BRANCH   1  21
ATOM     18  C   UNL     1      35.520 -19.299 -20.648  0.00  0.00    -0.043 C 
ATOM     19  C   UNL     1      36.548 -19.998 -20.014  0.00  0.00    -0.005 C 
ATOM     20  C   UNL     1      34.193 -19.680 -20.450  0.00  0.00    -0.005 C 
ATOM     21  C   UNL     1      34.920 -21.457 -18.985  0.00  0.00    +0.048 C 
ATOM     22  C   UNL     1      36.247 -21.077 -19.182  0.00  0.00    +0.014 C 
ATOM     23  C   UNL     1      33.893 -20.759 -19.619  0.00  0.00    +0.014 C 
BRANCH  18  24
ATOM     24  C   UNL     1      35.841 -18.146 -21.536  0.00  0.00    -0.050 C 
BRANCH  24  25
ATOM     25  N   UNL     1      34.799 -17.896 -22.520  0.00  0.00    +0.390 N 
ATOM     26  C   UNL     1      35.089 -16.733 -23.359  0.00  0.00    -0.077 C 
ATOM     27  C   UNL     1      34.636 -19.008 -23.456  0.00  0.00    -0.077 C 
ATOM     28  C   UNL     1      34.116 -16.896 -24.517  0.00  0.00    -0.025 C 
ATOM     29  C   UNL     1      33.816 -18.391 -24.579  0.00  0.00    -0.025 C 
ATOM     30  H   UNL     1      33.959 -17.752 -21.959  0.00  0.00    -0.079 HD
ENDBRANCH  24  25
ENDBRANCH  18  24
ENDBRANCH   1  21
TORSDOF 4
ENDMDL
MODEL 3
REMARK VINA RESULT:     -12.1      2.542      3.277
REMARK  Name = 24808489
REMARK  4 active torsions:
REMARK  status: ('A' for Active; 'I' for Inactive)
REMARK    1  A    between atoms: N_1  and  C_10
REMARK    2  A    between atoms: N_1  and  C_21
REMARK    3  A    between atoms: C_18  and  C_24
REMARK    4  A    between atoms: C_24  and  N_25
REMARK                            x       y       z     vdW  Elec       q    Type
REMARK                         _______ _______ _______ _____ _____    ______ ____
ROOT
ATOM      1  N   UNL     1      33.365 -22.405 -18.174  0.00  0.00    -0.311 N 
ATOM      2  H   UNL     1      32.488 -22.788 -18.404  0.00  0.00    +0.152 HD
ENDROOT
BRANCH   1  10
ATOM      3 BR   UNL     1      37.817 -24.657 -13.371  0.00  0.00    -0.049 Br
ATOM      4  O   UNL     1      31.203 -22.459 -16.844  0.00  0.00    -0.270 OA
ATOM      5  O   UNL     1      31.088 -23.821 -12.463  0.00  0.00    -0.270 OA
ATOM      6  N   UNL     1      31.190 -23.147 -14.656  0.00  0.00    -0.248 N 
ATOM      7  C   UNL     1      33.293 -23.119 -15.864  0.00  0.00    +0.068 C 
ATOM      8  C   UNL     1      33.970 -23.614 -14.646  0.00  0.00    +0.010 C 
ATOM      9  C   UNL     1      33.212 -23.853 -13.488  0.00  0.00    +0.054 C 
ATOM     10  C   UNL     1      33.916 -22.858 -17.027  0.00  0.00    +0.066 C 
ATOM     11  C   UNL     1      31.817 -22.872 -15.863  0.00  0.00    +0.253 C 
ATOM     12  C   UNL     1      35.353 -23.865 -14.584  0.00  0.00    +0.007 C 
ATOM     13  C   UNL     1      31.751 -23.613 -13.474  0.00  0.00    +0.252 C 
ATOM     14  C   UNL     1      33.817 -24.323 -12.311  0.00  0.00    +0.005 C 
ATOM     15  C   UNL     1      35.955 -24.334 -13.412  0.00  0.00    +0.035 C 
ATOM     16  C   UNL     1      35.188 -24.563 -12.277  0.00  0.00    +0.007 C 
ATOM     17  H   UNL     1      30.218 -22.989 -14.635  0.00  0.00    +0.158 HD
ENDBRANCH   1  10
BRANCH   1  21
ATOM     18  C   UNL     1      34.885 -19.589 -20.891  0.00  0.00    -0.043 C 
ATOM     19  C   UNL     1      35.758 -20.376 -20.140  0.00  0.00    -0.005 C 
ATOM     20  C   UNL     1      33.507 -19.737 -20.739  0.00  0.00    -0.005 C 
ATOM     21  C   UNL     1      33.875 -21.459 -19.085  0.00  0.00    +0.048 C 
ATOM     22  C   UNL     1      35.253 -21.311 -19.237  0.00  0.00    +0.014 C 
ATOM     23  C   UNL     1      33.001 -20.672 -19.836  0.00  0.00    +0.014 C 
BRANCH  18  24
ATOM     24  C   UNL     1      35.426 -18.588 -21.856  0.00  0.00    -0.050 C 
BRANCH  24  25
ATOM     25  N   UNL     1      34.814 -17.278 -21.698  0.00  0.00    +0.390 N 
ATOM     26  C   UNL     1      35.212 -16.621 -20.453  0.00  0.00    -0.077 C 
ATOM     27  C   UNL     1      35.202 -16.349 -22.759  0.00  0.00    -0.077 C 
ATOM     28  C   UNL     1      34.795 -15.175 -20.681  0.00  0.00    -0.025 C 
ATOM     29  C   UNL     1      34.786 -14.998 -22.196  0.00  0.00    -0.025 C 
ATOM     30  H   UNL     1      33.812 -17.470 -21.716  0.00  0.00    -0.079 HD
ENDBRANCH  24  25
ENDBRANCH  18  24
ENDBRANCH   1  21
TORSDOF 4
ENDMDL
MODEL 4
REMARK VINA RESULT:     -12.1      0.505      1.291
REMARK  Name = 24808489
REMARK  4 active torsions:
REMARK  status: ('A' for Active; 'I' for Inactive)
REMARK    1  A    between atoms: N_1  and  C_10
REMARK    2  A    between atoms: N_1  and  C_21
REMARK    3  A    between atoms: C_18  and  C_24
REMARK    4  A    between atoms: C_24  and  N_25
REMARK                            x       y       z     vdW  Elec       q    Type
REMARK                         _______ _______ _______ _____ _____    ______ ____
ROOT
ATOM      1  N   UNL     1      34.977 -22.197 -18.116  0.00  0.00    -0.311 N 
ATOM      2  H   UNL     1      35.778 -22.730 -17.908  0.00  0.00    +0.152 HD
ENDROOT
BRANCH   1  10
ATOM      3 BR   UNL     1      28.422 -23.282 -16.163  0.00  0.00    -0.049 Br
ATOM      4  O   UNL     1      36.195 -22.863 -15.991  0.00  0.00    -0.270 OA
ATOM      5  O   UNL     1      33.946 -24.296 -12.256  0.00  0.00    -0.270 OA
ATOM      6  N   UNL     1      35.032 -23.574 -14.147  0.00  0.00    -0.248 N 
ATOM      7  C   UNL     1      33.801 -22.956 -16.143  0.00  0.00    +0.068 C 
ATOM      8  C   UNL     1      32.543 -23.280 -15.437  0.00  0.00    +0.010 C 
ATOM      9  C   UNL     1      32.599 -23.737 -14.110  0.00  0.00    +0.054 C 
ATOM     10  C   UNL     1      33.869 -22.511 -17.411  0.00  0.00    +0.066 C 
ATOM     11  C   UNL     1      35.120 -23.115 -15.453  0.00  0.00    +0.253 C 
ATOM     12  C   UNL     1      31.274 -23.151 -16.030  0.00  0.00    +0.007 C 
ATOM     13  C   UNL     1      33.896 -23.898 -13.416  0.00  0.00    +0.252 C 
ATOM     14  C   UNL     1      31.426 -24.055 -13.405  0.00  0.00    +0.005 C 
ATOM     15  C   UNL     1      30.107 -23.468 -15.328  0.00  0.00    +0.035 C 
ATOM     16  C   UNL     1      30.183 -23.919 -14.016  0.00  0.00    +0.007 C 
ATOM     17  H   UNL     1      35.890 -23.687 -13.676  0.00  0.00    +0.158 HD
ENDBRANCH   1  10
BRANCH   1  21
ATOM     18  C   UNL     1      35.467 -19.259 -21.073  0.00  0.00    -0.043 C 
ATOM     19  C   UNL     1      34.192 -19.735 -20.768  0.00  0.00    -0.005 C 
ATOM     20  C   UNL     1      36.579 -19.759 -20.397  0.00  0.00    -0.005 C 
ATOM     21  C   UNL     1      35.142 -21.212 -19.109  0.00  0.00    +0.048 C 
ATOM     22  C   UNL     1      34.030 -20.712 -19.785  0.00  0.00    +0.014 C 
ATOM     23  C   UNL     1      36.417 -20.736 -19.415  0.00  0.00    +0.014 C 
BRANCH  18  24
ATOM     24  C   UNL     1      35.641 -18.215 -22.124  0.00  0.00    -0.050 C 
BRANCH  24  25
ATOM     25  N   UNL     1      35.688 -16.870 -21.569  0.00  0.00    +0.390 N 
ATOM     26  C   UNL     1      35.083 -15.878 -22.456  0.00  0.00    -0.077 C 
ATOM     27  C   UNL     1      34.948 -16.759 -20.312  0.00  0.00    -0.077 C 
ATOM     28  C   UNL     1      34.892 -14.675 -21.543  0.00  0.00    -0.025 C 
ATOM     29  C   UNL     1      34.806 -15.254 -20.134  0.00  0.00    -0.025 C 
ATOM     30  H   UNL     1      36.685 -16.695 -21.434  0.00  0.00    -0.079 HD
ENDBRANCH  24  25
ENDBRANCH  18  24
ENDBRANCH   1  21
TORSDOF 4
ENDMDL
MODEL 5
REMARK VINA RESULT:     -11.3      2.667      3.563
REMARK  Name = 24808489
REMARK  4 active torsions:
REMARK  status: ('A' for Active; 'I' for Inactive)
REMARK    1  A    between atoms: N_1  and  C_10
REMARK    2  A    between atoms: N_1  and  C_21
REMARK    3  A    between atoms: C_18  and  C_24
REMARK    4  A    between atoms: C_24  and  N_25
REMARK                            x       y       z     vdW  Elec       q    Type
REMARK                         _______ _______ _______ _____ _____    ______ ____
ROOT
ATOM      1  N   UNL     1      35.166 -21.904 -19.420  0.00  0.00    -0.311 N 
ATOM      2  H   UNL     1      34.972 -22.627 -20.058  0.00  0.00    +0.152 HD
ENDROOT
BRANCH   1  10
ATOM      3 BR   UNL     1      37.392 -23.604 -13.085  0.00  0.00    -0.049 Br
ATOM      4  O   UNL     1      32.659 -22.129 -19.090  0.00  0.00    -0.270 OA
ATOM      5  O   UNL     1      30.847 -23.385 -15.065  0.00  0.00    -0.270 OA
ATOM      6  N   UNL     1      31.795 -22.759 -17.062  0.00  0.00    -0.248 N 
ATOM      7  C   UNL     1      34.201 -22.563 -17.302  0.00  0.00    +0.068 C 
ATOM      8  C   UNL     1      34.350 -22.962 -15.885  0.00  0.00    +0.010 C 
ATOM      9  C   UNL     1      33.201 -23.241 -15.127  0.00  0.00    +0.054 C 
ATOM     10  C   UNL     1      35.227 -22.274 -18.122  0.00  0.00    +0.066 C 
ATOM     11  C   UNL     1      32.842 -22.457 -17.920  0.00  0.00    +0.253 C 
ATOM     12  C   UNL     1      35.597 -23.079 -15.247  0.00  0.00    +0.007 C 
ATOM     13  C   UNL     1      31.851 -23.140 -15.727  0.00  0.00    +0.252 C 
ATOM     14  C   UNL     1      33.300 -23.623 -13.778  0.00  0.00    +0.005 C 
ATOM     15  C   UNL     1      35.695 -23.459 -13.905  0.00  0.00    +0.035 C 
ATOM     16  C   UNL     1      34.547 -23.731 -13.171  0.00  0.00    +0.007 C 
ATOM     17  H   UNL     1      30.892 -22.693 -17.450  0.00  0.00    +0.158 HD
ENDBRANCH   1  10
BRANCH   1  21
ATOM     18  C   UNL     1      35.693 -18.091 -21.094  0.00  0.00    -0.043 C 
ATOM     19  C   UNL     1      34.432 -18.688 -21.101  0.00  0.00    -0.005 C 
ATOM     20  C   UNL     1      36.779 -18.761 -20.531  0.00  0.00    -0.005 C 
ATOM     21  C   UNL     1      35.343 -20.625 -19.982  0.00  0.00    +0.048 C 
ATOM     22  C   UNL     1      34.258 -19.955 -20.544  0.00  0.00    +0.014 C 
ATOM     23  C   UNL     1      36.604 -20.028 -19.975  0.00  0.00    +0.014 C 
BRANCH  18  24
ATOM     24  C   UNL     1      35.879 -16.736 -21.689  0.00  0.00    -0.050 C 
BRANCH  24  25
ATOM     25  N   UNL     1      34.776 -16.356 -22.559  0.00  0.00    +0.390 N 
ATOM     26  C   UNL     1      34.557 -14.910 -22.584  0.00  0.00    -0.077 C 
ATOM     27  C   UNL     1      35.011 -16.728 -23.954  0.00  0.00    -0.077 C 
ATOM     28  C   UNL     1      33.669 -14.720 -23.804  0.00  0.00    -0.025 C 
ATOM     29  C   UNL     1      33.965 -15.916 -24.703  0.00  0.00    -0.025 C 
ATOM     30  H   UNL     1      33.973 -16.850 -22.169  0.00  0.00    -0.079 HD
ENDBRANCH  24  25
ENDBRANCH  18  24
ENDBRANCH   1  21
TORSDOF 4
ENDMDL
MODEL 6
REMARK VINA RESULT:     -11.2      3.331      4.532
REMARK  Name = 24808489
REMARK  4 active torsions:
REMARK  status: ('A' for Active; 'I' for Inactive)
REMARK    1  A    between atoms: N_1  and  C_10
REMARK    2  A    between atoms: N_1  and  C_21
REMARK    3  A    between atoms: C_18  and  C_24
REMARK    4  A    between atoms: C_24  and  N_25
REMARK                            x       y       z     vdW  Elec       q    Type
REMARK                         _______ _______ _______ _____ _____    ______ ____
ROOT
ATOM      1  N   UNL     1      34.608 -22.541 -16.953  0.00  0.00    -0.311 N 
ATOM      2  H   UNL     1      33.674 -22.655 -16.666  0.00  0.00    +0.152 HD
ENDROOT
BRANCH   1  10
ATOM      3 BR   UNL     1      40.445 -25.400 -14.561  0.00  0.00    -0.049 Br
ATOM      4  O   UNL     1      33.122 -22.774 -14.908  0.00  0.00    -0.270 OA
ATOM      5  O   UNL     1      34.629 -24.703 -11.025  0.00  0.00    -0.270 OA
ATOM      6  N   UNL     1      33.915 -23.744 -12.987  0.00  0.00    -0.248 N 
ATOM      7  C   UNL     1      35.393 -23.554 -14.901  0.00  0.00    +0.068 C 
ATOM      8  C   UNL     1      36.460 -24.204 -14.111  0.00  0.00    +0.010 C 
ATOM      9  C   UNL     1      36.193 -24.595 -12.788  0.00  0.00    +0.054 C 
ATOM     10  C   UNL     1      35.534 -23.140 -16.173  0.00  0.00    +0.066 C 
ATOM     11  C   UNL     1      34.044 -23.311 -14.299  0.00  0.00    +0.253 C 
ATOM     12  C   UNL     1      37.746 -24.459 -14.620  0.00  0.00    +0.007 C 
ATOM     13  C   UNL     1      34.864 -24.362 -12.181  0.00  0.00    +0.252 C 
ATOM     14  C   UNL     1      37.180 -25.215 -12.004  0.00  0.00    +0.005 C 
ATOM     15  C   UNL     1      38.728 -25.077 -13.839  0.00  0.00    +0.035 C 
ATOM     16  C   UNL     1      38.445 -25.455 -12.532  0.00  0.00    +0.007 C 
ATOM     17  H   UNL     1      33.035 -23.593 -12.572  0.00  0.00    +0.158 HD
ENDBRANCH   1  10
BRANCH   1  21
ATOM     18  C   UNL     1      35.174 -20.257 -20.430  0.00  0.00    -0.043 C 
ATOM     19  C   UNL     1      33.883 -20.570 -20.003  0.00  0.00    -0.005 C 
ATOM     20  C   UNL     1      36.277 -20.703 -19.701  0.00  0.00    -0.005 C 
ATOM     21  C   UNL     1      34.798 -21.775 -18.120  0.00  0.00    +0.048 C 
ATOM     22  C   UNL     1      33.696 -21.329 -18.848  0.00  0.00    +0.014 C 
ATOM     23  C   UNL     1      36.089 -21.462 -18.546  0.00  0.00    +0.014 C 
BRANCH  18  24
ATOM     24  C   UNL     1      35.375 -19.446 -21.665  0.00  0.00    -0.050 C 
BRANCH  24  25
ATOM     25  N   UNL     1      34.845 -18.097 -21.535  0.00  0.00    +0.390 N 
ATOM     26  C   UNL     1      35.463 -17.357 -20.435  0.00  0.00    -0.077 C 
ATOM     27  C   UNL     1      35.091 -17.284 -22.726  0.00  0.00    -0.077 C 
ATOM     28  C   UNL     1      35.068 -15.917 -20.728  0.00  0.00    -0.025 C 
ATOM     29  C   UNL     1      34.821 -15.870 -22.233  0.00  0.00    -0.025 C 
ATOM     30  H   UNL     1      33.846 -18.238 -21.377  0.00  0.00    -0.079 HD
ENDBRANCH  24  25
ENDBRANCH  18  24
ENDBRANCH   1  21
TORSDOF 4
ENDMDL
MODEL 7
REMARK VINA RESULT:     -11.1      4.047      9.769
REMARK  Name = 24808489
REMARK  4 active torsions:
REMARK  status: ('A' for Active; 'I' for Inactive)
REMARK    1  A    between atoms: N_1  and  C_10
REMARK    2  A    between atoms: N_1  and  C_21
REMARK    3  A    between atoms: C_18  and  C_24
REMARK    4  A    between atoms: C_24  and  N_25
REMARK                            x       y       z     vdW  Elec       q    Type
REMARK                         _______ _______ _______ _____ _____    ______ ____
ROOT
ATOM      1  N   UNL     1      35.821 -18.303 -20.778  0.00  0.00    -0.311 N 
ATOM      2  H   UNL     1      36.753 -18.358 -21.089  0.00  0.00    +0.152 HD
ENDROOT
BRANCH   1  10
ATOM      3 BR   UNL     1      32.642 -12.196 -20.023  0.00  0.00    -0.049 Br
ATOM      4  O   UNL     1      35.851 -18.484 -23.310  0.00  0.00    -0.270 OA
ATOM      5  O   UNL     1      34.063 -15.218 -25.994  0.00  0.00    -0.270 OA
ATOM      6  N   UNL     1      34.947 -16.828 -24.615  0.00  0.00    -0.248 N 
ATOM      7  C   UNL     1      34.884 -16.586 -22.202  0.00  0.00    +0.068 C 
ATOM      8  C   UNL     1      34.198 -15.287 -22.375  0.00  0.00    +0.010 C 
ATOM      9  C   UNL     1      33.921 -14.825 -23.673  0.00  0.00    +0.054 C 
ATOM     10  C   UNL     1      35.198 -17.127 -21.011  0.00  0.00    +0.066 C 
ATOM     11  C   UNL     1      35.279 -17.399 -23.395  0.00  0.00    +0.253 C 
ATOM     12  C   UNL     1      33.803 -14.478 -21.295  0.00  0.00    +0.007 C 
ATOM     13  C   UNL     1      34.306 -15.620 -24.860  0.00  0.00    +0.252 C 
ATOM     14  C   UNL     1      33.272 -13.597 -23.879  0.00  0.00    +0.005 C 
ATOM     15  C   UNL     1      33.157 -13.255 -21.502  0.00  0.00    +0.035 C 
ATOM     16  C   UNL     1      32.892 -12.815 -22.793  0.00  0.00    +0.007 C 
ATOM     17  H   UNL     1      35.200 -17.348 -25.412  0.00  0.00    +0.158 HD
ENDBRANCH   1  10
BRANCH   1  21
ATOM     18  C   UNL     1      34.320 -21.749 -18.910  0.00  0.00    -0.043 C 
ATOM     19  C   UNL     1      35.690 -21.486 -18.891  0.00  0.00    -0.005 C 
ATOM     20  C   UNL     1      33.449 -20.868 -19.550  0.00  0.00    -0.005 C 
ATOM     21  C   UNL     1      35.317 -19.459 -20.152  0.00  0.00    +0.048 C 
ATOM     22  C   UNL     1      36.188 -20.341 -19.513  0.00  0.00    +0.014 C 
ATOM     23  C   UNL     1      33.947 -19.723 -20.171  0.00  0.00    +0.014 C 
BRANCH  18  24
ATOM     24  C   UNL     1      33.787 -22.974 -18.247  0.00  0.00    -0.050 C 
BRANCH  24  25
ATOM     25  N   UNL     1      33.415 -22.737 -16.860  0.00  0.00    +0.390 N 
ATOM     26  C   UNL     1      32.034 -23.127 -16.578  0.00  0.00    -0.077 C 
ATOM     27  C   UNL     1      34.227 -23.512 -15.923  0.00  0.00    -0.077 C 
ATOM     28  C   UNL     1      31.994 -23.166 -15.057  0.00  0.00    -0.025 C 
ATOM     29  C   UNL     1      33.436 -23.416 -14.627  0.00  0.00    -0.025 C 
ATOM     30  H   UNL     1      33.554 -21.733 -16.735  0.00  0.00    -0.079 HD
ENDBRANCH  24  25
ENDBRANCH  18  24
ENDBRANCH   1  21
TORSDOF 4
ENDMDL
MODEL 8
REMARK VINA RESULT:     -10.1      3.990      9.678
REMARK  Name = 24808489
REMARK  4 active torsions:
REMARK  status: ('A' for Active; 'I' for Inactive)
REMARK    1  A    between atoms: N_1  and  C_10
REMARK    2  A    between atoms: N_1  and  C_21
REMARK    3  A    between atoms: C_18  and  C_24
REMARK    4  A    between atoms: C_24  and  N_25
REMARK                            x       y       z     vdW  Elec       q    Type
REMARK                         _______ _______ _______ _____ _____    ______ ____
ROOT
ATOM      1  N   UNL     1      35.764 -19.431 -20.886  0.00  0.00    -0.311 N 
ATOM      2  H   UNL     1      36.546 -19.759 -21.386  0.00  0.00    +0.152 HD
ENDROOT
BRANCH   1  10
ATOM      3 BR   UNL     1      34.684 -12.640 -20.065  0.00  0.00    -0.049 Br
ATOM      4  O   UNL     1      35.066 -19.707 -23.311  0.00  0.00    -0.270 OA
ATOM      5  O   UNL     1      33.583 -16.165 -25.824  0.00  0.00    -0.270 OA
ATOM      6  N   UNL     1      34.331 -17.910 -24.532  0.00  0.00    -0.248 N 
ATOM      7  C   UNL     1      34.983 -17.571 -22.220  0.00  0.00    +0.068 C 
ATOM      8  C   UNL     1      34.656 -16.135 -22.365  0.00  0.00    +0.010 C 
ATOM      9  C   UNL     1      34.178 -15.661 -23.598  0.00  0.00    +0.054 C 
ATOM     10  C   UNL     1      35.445 -18.134 -21.090  0.00  0.00    +0.066 C 
ATOM     11  C   UNL     1      34.809 -18.507 -23.374  0.00  0.00    +0.253 C 
ATOM     12  C   UNL     1      34.798 -15.206 -21.319  0.00  0.00    +0.007 C 
ATOM     13  C   UNL     1      34.001 -16.578 -24.747  0.00  0.00    +0.252 C 
ATOM     14  C   UNL     1      33.856 -14.306 -23.775  0.00  0.00    +0.005 C 
ATOM     15  C   UNL     1      34.478 -13.857 -21.497  0.00  0.00    +0.035 C 
ATOM     16  C   UNL     1      34.007 -13.407 -22.724  0.00  0.00    +0.007 C 
ATOM     17  H   UNL     1      34.211 -18.510 -25.303  0.00  0.00    +0.158 HD
ENDBRANCH   1  10
BRANCH   1  21
ATOM     18  C   UNL     1      33.871 -22.250 -18.418  0.00  0.00    -0.043 C 
ATOM     19  C   UNL     1      33.108 -21.356 -19.169  0.00  0.00    -0.005 C 
ATOM     20  C   UNL     1      35.263 -22.208 -18.487  0.00  0.00    -0.005 C 
ATOM     21  C   UNL     1      35.129 -20.377 -20.058  0.00  0.00    +0.048 C 
ATOM     22  C   UNL     1      33.737 -20.419 -19.989  0.00  0.00    +0.014 C 
ATOM     23  C   UNL     1      35.893 -21.271 -19.307  0.00  0.00    +0.014 C 
BRANCH  18  24
ATOM     24  C   UNL     1      33.198 -23.251 -17.542  0.00  0.00    -0.050 C 
BRANCH  24  25
ATOM     25  N   UNL     1      33.246 -22.879 -16.136  0.00  0.00    +0.390 N 
ATOM     26  C   UNL     1      31.988 -23.153 -15.442  0.00  0.00    -0.077 C 
ATOM     27  C   UNL     1      34.260 -23.627 -15.394  0.00  0.00    -0.077 C 
ATOM     28  C   UNL     1      32.381 -23.067 -13.974  0.00  0.00    -0.025 C 
ATOM     29  C   UNL     1      33.875 -23.376 -13.944  0.00  0.00    -0.025 C 
ATOM     30  H   UNL     1      33.454 -21.880 -16.152  0.00  0.00    -0.079 HD
ENDBRANCH  24  25
ENDBRANCH  18  24
ENDBRANCH   1  21
TORSDOF 4
ENDMDL
MODEL 9
REMARK VINA RESULT:     -10.0      3.453      5.242
REMARK  Name = 24808489
REMARK  4 active torsions:
REMARK  status: ('A' for Active; 'I' for Inactive)
REMARK    1  A    between atoms: N_1  and  C_10
REMARK    2  A    between atoms: N_1  and  C_21
REMARK    3  A    between atoms: C_18  and  C_24
REMARK    4  A    between atoms: C_24  and  N_25
REMARK                            x       y       z     vdW  Elec       q    Type
REMARK                         _______ _______ _______ _____ _____    ______ ____
ROOT
ATOM      1  N   UNL     1      35.833 -19.362 -21.318  0.00  0.00    -0.311 N 
ATOM      2  H   UNL     1      35.974 -19.863 -22.153  0.00  0.00    +0.152 HD
ENDROOT
BRANCH   1  10
ATOM      3 BR   UNL     1      38.376 -22.515 -15.700  0.00  0.00    -0.049 Br
ATOM      4  O   UNL     1      33.382 -19.989 -21.114  0.00  0.00    -0.270 OA
ATOM      5  O   UNL     1      31.820 -22.569 -17.655  0.00  0.00    -0.270 OA
ATOM      6  N   UNL     1      32.643 -21.280 -19.369  0.00  0.00    -0.248 N 
ATOM      7  C   UNL     1      35.000 -20.720 -19.498  0.00  0.00    +0.068 C 
ATOM      8  C   UNL     1      35.224 -21.487 -18.253  0.00  0.00    +0.010 C 
ATOM      9  C   UNL     1      34.134 -22.116 -17.629  0.00  0.00    +0.054 C 
ATOM     10  C   UNL     1      35.965 -20.079 -20.180  0.00  0.00    +0.066 C 
ATOM     11  C   UNL     1      33.627 -20.613 -20.085  0.00  0.00    +0.253 C 
ATOM     12  C   UNL     1      36.489 -21.623 -17.653  0.00  0.00    +0.007 C 
ATOM     13  C   UNL     1      32.772 -22.019 -18.199  0.00  0.00    +0.252 C 
ATOM     14  C   UNL     1      34.307 -22.853 -16.445  0.00  0.00    +0.005 C 
ATOM     15  C   UNL     1      36.659 -22.357 -16.475  0.00  0.00    +0.035 C 
ATOM     16  C   UNL     1      35.569 -22.972 -15.872  0.00  0.00    +0.007 C 
ATOM     17  H   UNL     1      31.732 -21.221 -19.739  0.00  0.00    +0.158 HD
ENDBRANCH   1  10
BRANCH   1  21
ATOM     18  C   UNL     1      34.909 -15.292 -21.770  0.00  0.00    -0.043 C 
ATOM     19  C   UNL     1      34.989 -15.852 -20.495  0.00  0.00    -0.005 C 
ATOM     20  C   UNL     1      35.136 -16.085 -22.895  0.00  0.00    -0.005 C 
ATOM     21  C   UNL     1      35.523 -17.997 -21.470  0.00  0.00    +0.048 C 
ATOM     22  C   UNL     1      35.296 -17.205 -20.345  0.00  0.00    +0.014 C 
ATOM     23  C   UNL     1      35.443 -17.437 -22.745  0.00  0.00    +0.014 C 
BRANCH  18  24
ATOM     24  C   UNL     1      34.581 -13.847 -21.930  0.00  0.00    -0.050 C 
BRANCH  24  25
ATOM     25  N   UNL     1      34.390 -13.471 -23.323  0.00  0.00    +0.390 N 
ATOM     26  C   UNL     1      33.200 -14.088 -23.910  0.00  0.00    -0.077 C 
ATOM     27  C   UNL     1      34.195 -12.032 -23.491  0.00  0.00    -0.077 C 
ATOM     28  C   UNL     1      32.987 -13.277 -25.180  0.00  0.00    -0.025 C 
ATOM     29  C   UNL     1      33.643 -11.927 -24.906  0.00  0.00    -0.025 C 
ATOM     30  H   UNL     1      35.243 -13.790 -23.783  0.00  0.00    -0.079 HD
ENDBRANCH  24  25
ENDBRANCH  18  24
ENDBRANCH   1  21
TORSDOF 4
ENDMDL
