MODEL 1
REMARK VINA RESULT:     -11.1      0.000      0.000
REMARK  Name = 447476
REMARK  4 active torsions:
REMARK  status: ('A' for Active; 'I' for Inactive)
REMARK    1  A    between atoms: C_2  and  C_17
REMARK    2  A    between atoms: C_8  and  C_13
REMARK    3  A    between atoms: C_18  and  O_29
REMARK    4  A    between atoms: C_19  and  C_23
REMARK                            x       y       z     vdW  Elec       q    Type
REMARK                         _______ _______ _______ _____ _____    ______ ____
ROOT
ATOM      1  N   UNL     1      32.844 -13.400 -22.189  0.00  0.00    -0.312 N 
ATOM      2  C   UNL     1      33.675 -13.744 -23.221  0.00  0.00    +0.051 C 
ATOM      3  C   UNL     1      33.496 -11.492 -23.144  0.00  0.00    +0.015 C 
ATOM      4  C   UNL     1      32.716 -12.031 -22.118  0.00  0.00    +0.048 C 
ATOM      5  C   UNL     1      34.095 -12.585 -23.832  0.00  0.00    +0.016 C 
ATOM      6  C   UNL     1      33.544 -10.092 -23.295  0.00  0.00    +0.004 C 
ATOM      7  C   UNL     1      31.978 -11.237 -21.234  0.00  0.00    +0.015 C 
ATOM      8  C   UNL     1      32.810  -9.285 -22.418  0.00  0.00    +0.031 C 
ATOM      9  C   UNL     1      32.041  -9.850 -21.404  0.00  0.00    +0.004 C 
ATOM     10  H   UNL     1      32.402 -14.039 -21.585  0.00  0.00    +0.152 HD
ENDROOT
BRANCH   8  13
ATOM     11  N   UNL     1      33.875  -7.081 -21.997  0.00  0.00    -0.343 N 
ATOM     12  N   UNL     1      31.910  -7.220 -23.254  0.00  0.00    -0.285 NA
ATOM     13  C   UNL     1      32.854  -7.838 -22.569  0.00  0.00    +0.117 C 
ATOM     14  H   UNL     1      33.886  -6.104 -22.110  0.00  0.00    +0.144 HD
ATOM     15  H   UNL     1      34.586  -7.525 -21.480  0.00  0.00    +0.144 HD
ATOM     16  H   UNL     1      31.937  -6.241 -23.357  0.00  0.00    +0.188 HD
ENDBRANCH   8  13
BRANCH   2  17
ATOM     17  C   UNL     1      33.987 -15.119 -23.526  0.00  0.00    +0.047 C 
ATOM     18  C   UNL     1      34.544 -15.963 -22.562  0.00  0.00    +0.135 C 
ATOM     19  C   UNL     1      34.837 -17.289 -22.880  0.00  0.00    +0.034 C 
ATOM     20  C   UNL     1      33.726 -15.607 -24.808  0.00  0.00    +0.004 C 
ATOM     21  C   UNL     1      34.574 -17.774 -24.161  0.00  0.00    +0.003 C 
ATOM     22  C   UNL     1      34.019 -16.933 -25.124  0.00  0.00    +0.000 C 
BRANCH  19  23
ATOM     23  C   UNL     1      35.414 -18.182 -21.894  0.00  0.00    +0.003 C 
ATOM     24  C   UNL     1      34.595 -19.071 -21.200  0.00  0.00    +0.000 C 
ATOM     25  C   UNL     1      36.785 -18.150 -21.644  0.00  0.00    +0.000 C 
ATOM     26  C   UNL     1      35.149 -19.932 -20.252  0.00  0.00    +0.000 C 
ATOM     27  C   UNL     1      37.338 -19.010 -20.695  0.00  0.00    +0.000 C 
ATOM     28  C   UNL     1      36.520 -19.901 -20.000  0.00  0.00    +0.000 C 
ENDBRANCH  19  23
BRANCH  18  29
ATOM     29  O   UNL     1      34.799 -15.488 -21.307  0.00  0.00    -0.505 OA
ATOM     30  H   UNL     1      34.095 -15.346 -20.706  0.00  0.00    +0.292 HD
ENDBRANCH  18  29
ENDBRANCH   2  17
TORSDOF 4
ENDMDL
MODEL 2
REMARK VINA RESULT:     -10.9      5.788      9.710
REMARK  Name = 447476
REMARK  4 active torsions:
REMARK  status: ('A' for Active; 'I' for Inactive)
REMARK    1  A    between atoms: C_2  and  C_17
REMARK    2  A    between atoms: C_8  and  C_13
REMARK    3  A    between atoms: C_18  and  O_29
REMARK    4  A    between atoms: C_19  and  C_23
REMARK                            x       y       z     vdW  Elec       q    Type
REMARK                         _______ _______ _______ _____ _____    ______ ____
ROOT
ATOM      1  N   UNL     1      35.884 -20.963 -18.662  0.00  0.00    -0.312 N 
ATOM      2  C   UNL     1      34.642 -21.488 -18.425  0.00  0.00    +0.051 C 
ATOM      3  C   UNL     1      34.547 -20.181 -20.268  0.00  0.00    +0.015 C 
ATOM      4  C   UNL     1      35.856 -20.160 -19.781  0.00  0.00    +0.048 C 
ATOM      5  C   UNL     1      33.793 -21.023 -19.403  0.00  0.00    +0.016 C 
ATOM      6  C   UNL     1      34.241 -19.435 -21.423  0.00  0.00    +0.004 C 
ATOM      7  C   UNL     1      36.877 -19.426 -20.392  0.00  0.00    +0.015 C 
ATOM      8  C   UNL     1      35.253 -18.695 -22.045  0.00  0.00    +0.031 C 
ATOM      9  C   UNL     1      36.550 -18.692 -21.536  0.00  0.00    +0.004 C 
ATOM     10  H   UNL     1      36.682 -21.133 -18.111  0.00  0.00    +0.152 HD
ENDROOT
BRANCH   8  13
ATOM     11  N   UNL     1      35.492 -16.655 -23.441  0.00  0.00    -0.343 N 
ATOM     12  N   UNL     1      34.128 -18.414 -24.150  0.00  0.00    -0.285 NA
ATOM     13  C   UNL     1      34.945 -17.920 -23.238  0.00  0.00    +0.117 C 
ATOM     14  H   UNL     1      35.269 -16.147 -24.254  0.00  0.00    +0.144 HD
ATOM     15  H   UNL     1      36.101 -16.268 -22.770  0.00  0.00    +0.144 HD
ATOM     16  H   UNL     1      33.917 -17.892 -24.957  0.00  0.00    +0.188 HD
ENDBRANCH   8  13
BRANCH   2  17
ATOM     17  C   UNL     1      34.384 -22.368 -17.312  0.00  0.00    +0.047 C 
ATOM     18  C   UNL     1      35.403 -22.732 -16.429  0.00  0.00    +0.135 C 
ATOM     19  C   UNL     1      35.128 -23.585 -15.360  0.00  0.00    +0.034 C 
ATOM     20  C   UNL     1      33.091 -22.860 -17.121  0.00  0.00    +0.004 C 
ATOM     21  C   UNL     1      33.836 -24.074 -15.171  0.00  0.00    +0.003 C 
ATOM     22  C   UNL     1      32.818 -23.711 -16.052  0.00  0.00    +0.000 C 
BRANCH  19  23
ATOM     23  C   UNL     1      36.171 -23.975 -14.430  0.00  0.00    +0.003 C 
ATOM     24  C   UNL     1      36.484 -23.149 -13.352  0.00  0.00    +0.000 C 
ATOM     25  C   UNL     1      36.856 -25.174 -14.617  0.00  0.00    +0.000 C 
ATOM     26  C   UNL     1      37.486 -23.524 -12.457  0.00  0.00    +0.000 C 
ATOM     27  C   UNL     1      37.858 -25.548 -13.722  0.00  0.00    +0.000 C 
ATOM     28  C   UNL     1      38.173 -24.723 -12.643  0.00  0.00    +0.000 C 
ENDBRANCH  19  23
BRANCH  18  29
ATOM     29  O   UNL     1      36.668 -22.252 -16.614  0.00  0.00    -0.505 OA
ATOM     30  H   UNL     1      36.822 -21.555 -17.221  0.00  0.00    +0.292 HD
ENDBRANCH  18  29
ENDBRANCH   2  17
TORSDOF 4
ENDMDL
MODEL 3
REMARK VINA RESULT:     -10.9      0.921      1.387
REMARK  Name = 447476
REMARK  4 active torsions:
REMARK  status: ('A' for Active; 'I' for Inactive)
REMARK    1  A    between atoms: C_2  and  C_17
REMARK    2  A    between atoms: C_8  and  C_13
REMARK    3  A    between atoms: C_18  and  O_29
REMARK    4  A    between atoms: C_19  and  C_23
REMARK                            x       y       z     vdW  Elec       q    Type
REMARK                         _______ _______ _______ _____ _____    ______ ____
ROOT
ATOM      1  N   UNL     1      34.410 -12.619 -23.846  0.00  0.00    -0.312 N 
ATOM      2  C   UNL     1      33.718 -13.641 -23.255  0.00  0.00    +0.051 C 
ATOM      3  C   UNL     1      32.936 -11.673 -22.463  0.00  0.00    +0.015 C 
ATOM      4  C   UNL     1      33.954 -11.405 -23.381  0.00  0.00    +0.048 C 
ATOM      5  C   UNL     1      32.798 -13.088 -22.393  0.00  0.00    +0.016 C 
ATOM      6  C   UNL     1      32.289 -10.592 -21.832  0.00  0.00    +0.004 C 
ATOM      7  C   UNL     1      34.360 -10.105 -23.700  0.00  0.00    +0.015 C 
ATOM      8  C   UNL     1      32.686  -9.285 -22.141  0.00  0.00    +0.031 C 
ATOM      9  C   UNL     1      33.705  -9.048 -23.060  0.00  0.00    +0.004 C 
ATOM     10  H   UNL     1      35.130 -12.734 -24.507  0.00  0.00    +0.152 HD
ENDROOT
BRANCH   8  13
ATOM     11  N   UNL     1      32.193  -7.909 -20.134  0.00  0.00    -0.343 N 
ATOM     12  N   UNL     1      31.240  -7.367 -22.197  0.00  0.00    -0.285 NA
ATOM     13  C   UNL     1      32.023  -8.163 -21.494  0.00  0.00    +0.117 C 
ATOM     14  H   UNL     1      31.736  -7.145 -19.715  0.00  0.00    +0.144 HD
ATOM     15  H   UNL     1      32.772  -8.494 -19.592  0.00  0.00    +0.144 HD
ATOM     16  H   UNL     1      30.790  -6.608 -21.761  0.00  0.00    +0.188 HD
ENDBRANCH   8  13
BRANCH   2  17
ATOM     17  C   UNL     1      33.990 -15.025 -23.558  0.00  0.00    +0.047 C 
ATOM     18  C   UNL     1      34.550 -15.876 -22.603  0.00  0.00    +0.135 C 
ATOM     19  C   UNL     1      34.804 -17.210 -22.920  0.00  0.00    +0.034 C 
ATOM     20  C   UNL     1      33.685 -15.513 -24.831  0.00  0.00    +0.004 C 
ATOM     21  C   UNL     1      34.498 -17.696 -24.191  0.00  0.00    +0.003 C 
ATOM     22  C   UNL     1      33.939 -16.848 -25.146  0.00  0.00    +0.000 C 
BRANCH  19  23
ATOM     23  C   UNL     1      35.383 -18.112 -21.944  0.00  0.00    +0.003 C 
ATOM     24  C   UNL     1      34.568 -19.015 -21.263  0.00  0.00    +0.000 C 
ATOM     25  C   UNL     1      36.753 -18.073 -21.688  0.00  0.00    +0.000 C 
ATOM     26  C   UNL     1      35.125 -19.884 -20.324  0.00  0.00    +0.000 C 
ATOM     27  C   UNL     1      37.309 -18.941 -20.748  0.00  0.00    +0.000 C 
ATOM     28  C   UNL     1      36.496 -19.846 -20.067  0.00  0.00    +0.000 C 
ENDBRANCH  19  23
BRANCH  18  29
ATOM     29  O   UNL     1      34.848 -15.400 -21.358  0.00  0.00    -0.505 OA
ATOM     30  H   UNL     1      35.515 -15.812 -20.845  0.00  0.00    +0.292 HD
ENDBRANCH  18  29
ENDBRANCH   2  17
TORSDOF 4
ENDMDL
MODEL 4
REMARK VINA RESULT:     -10.7      2.555      9.069
REMARK  Name = 447476
REMARK  4 active torsions:
REMARK  status: ('A' for Active; 'I' for Inactive)
REMARK    1  A    between atoms: C_2  and  C_17
REMARK    2  A    between atoms: C_8  and  C_13
REMARK    3  A    between atoms: C_18  and  O_29
REMARK    4  A    between atoms: C_19  and  C_23
REMARK                            x       y       z     vdW  Elec       q    Type
REMARK                         _______ _______ _______ _____ _____    ______ ____
ROOT
ATOM      1  N   UNL     1      33.034 -13.110 -23.103  0.00  0.00    -0.312 N 
ATOM      2  C   UNL     1      33.092 -12.669 -21.809  0.00  0.00    +0.051 C 
ATOM      3  C   UNL     1      34.113 -14.683 -21.945  0.00  0.00    +0.015 C 
ATOM      4  C   UNL     1      33.649 -14.337 -23.216  0.00  0.00    +0.048 C 
ATOM      5  C   UNL     1      33.755 -13.621 -21.067  0.00  0.00    +0.016 C 
ATOM      6  C   UNL     1      34.791 -15.907 -21.779  0.00  0.00    +0.004 C 
ATOM      7  C   UNL     1      33.828 -15.158 -24.334  0.00  0.00    +0.015 C 
ATOM      8  C   UNL     1      34.977 -16.739 -22.889  0.00  0.00    +0.031 C 
ATOM      9  C   UNL     1      34.503 -16.369 -24.145  0.00  0.00    +0.004 C 
ATOM     10  H   UNL     1      32.612 -12.621 -23.847  0.00  0.00    +0.152 HD
ENDROOT
BRANCH   8  13
ATOM     11  N   UNL     1      35.088 -19.210 -23.107  0.00  0.00    -0.343 N 
ATOM     12  N   UNL     1      36.888 -18.025 -22.204  0.00  0.00    -0.285 NA
ATOM     13  C   UNL     1      35.675 -18.005 -22.726  0.00  0.00    +0.117 C 
ATOM     14  H   UNL     1      35.577 -20.056 -22.987  0.00  0.00    +0.144 HD
ATOM     15  H   UNL     1      34.183 -19.215 -23.496  0.00  0.00    +0.144 HD
ATOM     16  H   UNL     1      37.362 -18.880 -22.092  0.00  0.00    +0.188 HD
ENDBRANCH   8  13
BRANCH   2  17
ATOM     17  C   UNL     1      32.524 -11.407 -21.404  0.00  0.00    +0.047 C 
ATOM     18  C   UNL     1      32.709 -10.254 -22.170  0.00  0.00    +0.135 C 
ATOM     19  C   UNL     1      32.150  -9.045 -21.759  0.00  0.00    +0.034 C 
ATOM     20  C   UNL     1      31.777 -11.345 -20.225  0.00  0.00    +0.004 C 
ATOM     21  C   UNL     1      31.404  -8.985 -20.582  0.00  0.00    +0.003 C 
ATOM     22  C   UNL     1      31.218 -10.136 -19.815  0.00  0.00    +0.000 C 
BRANCH  19  23
ATOM     23  C   UNL     1      32.329  -7.836 -22.539  0.00  0.00    +0.003 C 
ATOM     24  C   UNL     1      31.293  -7.373 -23.349  0.00  0.00    +0.000 C 
ATOM     25  C   UNL     1      33.536  -7.141 -22.478  0.00  0.00    +0.000 C 
ATOM     26  C   UNL     1      31.465  -6.210 -24.100  0.00  0.00    +0.000 C 
ATOM     27  C   UNL     1      33.706  -5.978 -23.229  0.00  0.00    +0.000 C 
ATOM     28  C   UNL     1      32.671  -5.513 -24.039  0.00  0.00    +0.000 C 
ENDBRANCH  19  23
BRANCH  18  29
ATOM     29  O   UNL     1      33.439 -10.313 -23.324  0.00  0.00    -0.505 OA
ATOM     30  H   UNL     1      33.226 -10.945 -23.982  0.00  0.00    +0.292 HD
ENDBRANCH  18  29
ENDBRANCH   2  17
TORSDOF 4
ENDMDL
MODEL 5
REMARK VINA RESULT:     -10.4      6.503     11.437
REMARK  Name = 447476
REMARK  4 active torsions:
REMARK  status: ('A' for Active; 'I' for Inactive)
REMARK    1  A    between atoms: C_2  and  C_17
REMARK    2  A    between atoms: C_8  and  C_13
REMARK    3  A    between atoms: C_18  and  O_29
REMARK    4  A    between atoms: C_19  and  C_23
REMARK                            x       y       z     vdW  Elec       q    Type
REMARK                         _______ _______ _______ _____ _____    ______ ____
ROOT
ATOM      1  N   UNL     1      32.329 -21.970 -17.765  0.00  0.00    -0.312 N 
ATOM      2  C   UNL     1      33.659 -22.193 -17.532  0.00  0.00    +0.051 C 
ATOM      3  C   UNL     1      32.447 -23.291 -15.970  0.00  0.00    +0.015 C 
ATOM      4  C   UNL     1      31.565 -22.628 -16.827  0.00  0.00    +0.048 C 
ATOM      5  C   UNL     1      33.765 -23.008 -16.427  0.00  0.00    +0.016 C 
ATOM      6  C   UNL     1      31.919 -24.051 -14.908  0.00  0.00    +0.004 C 
ATOM      7  C   UNL     1      30.176 -22.686 -16.672  0.00  0.00    +0.015 C 
ATOM      8  C   UNL     1      30.530 -24.118 -14.741  0.00  0.00    +0.031 C 
ATOM      9  C   UNL     1      29.675 -23.446 -15.611  0.00  0.00    +0.004 C 
ATOM     10  H   UNL     1      31.970 -21.418 -18.497  0.00  0.00    +0.152 HD
ENDROOT
BRANCH   8  13
ATOM     11  N   UNL     1      28.838 -25.684 -13.819  0.00  0.00    -0.343 N 
ATOM     12  N   UNL     1      30.555 -24.871 -12.460  0.00  0.00    -0.285 NA
ATOM     13  C   UNL     1      29.977 -24.901 -13.646  0.00  0.00    +0.117 C 
ATOM     14  H   UNL     1      28.479 -26.205 -13.066  0.00  0.00    +0.144 HD
ATOM     15  H   UNL     1      28.391 -25.716 -14.697  0.00  0.00    +0.144 HD
ATOM     16  H   UNL     1      30.182 -25.399 -11.717  0.00  0.00    +0.188 HD
ENDBRANCH   8  13
BRANCH   2  17
ATOM     17  C   UNL     1      34.688 -21.623 -18.366  0.00  0.00    +0.047 C 
ATOM     18  C   UNL     1      34.371 -20.735 -19.396  0.00  0.00    +0.135 C 
ATOM     19  C   UNL     1      35.383 -20.196 -20.190  0.00  0.00    +0.034 C 
ATOM     20  C   UNL     1      36.021 -21.968 -18.133  0.00  0.00    +0.004 C 
ATOM     21  C   UNL     1      36.714 -20.542 -19.955  0.00  0.00    +0.003 C 
ATOM     22  C   UNL     1      37.032 -21.428 -18.926  0.00  0.00    +0.000 C 
BRANCH  19  23
ATOM     23  C   UNL     1      35.077 -19.272 -21.264  0.00  0.00    +0.003 C 
ATOM     24  C   UNL     1      35.280 -17.905 -21.083  0.00  0.00    +0.000 C 
ATOM     25  C   UNL     1      34.580 -19.752 -22.475  0.00  0.00    +0.000 C 
ATOM     26  C   UNL     1      34.986 -17.015 -22.117  0.00  0.00    +0.000 C 
ATOM     27  C   UNL     1      34.285 -18.862 -23.507  0.00  0.00    +0.000 C 
ATOM     28  C   UNL     1      34.489 -17.494 -23.328  0.00  0.00    +0.000 C 
ENDBRANCH  19  23
BRANCH  18  29
ATOM     29  O   UNL     1      33.068 -20.395 -19.626  0.00  0.00    -0.505 OA
ATOM     30  H   UNL     1      32.476 -20.290 -18.907  0.00  0.00    +0.292 HD
ENDBRANCH  18  29
ENDBRANCH   2  17
TORSDOF 4
ENDMDL
MODEL 6
REMARK VINA RESULT:     -10.4      1.234      1.984
REMARK  Name = 447476
REMARK  4 active torsions:
REMARK  status: ('A' for Active; 'I' for Inactive)
REMARK    1  A    between atoms: C_2  and  C_17
REMARK    2  A    between atoms: C_8  and  C_13
REMARK    3  A    between atoms: C_18  and  O_29
REMARK    4  A    between atoms: C_19  and  C_23
REMARK                            x       y       z     vdW  Elec       q    Type
REMARK                         _______ _______ _______ _____ _____    ______ ____
ROOT
ATOM      1  N   UNL     1      32.462 -12.325 -21.924  0.00  0.00    -0.312 N 
ATOM      2  C   UNL     1      33.181 -12.364 -23.088  0.00  0.00    +0.051 C 
ATOM      3  C   UNL     1      32.840 -10.205 -22.508  0.00  0.00    +0.015 C 
ATOM      4  C   UNL     1      32.238 -11.020 -21.546  0.00  0.00    +0.048 C 
ATOM      5  C   UNL     1      33.431 -11.067 -23.475  0.00  0.00    +0.016 C 
ATOM      6  C   UNL     1      32.761  -8.806 -22.359  0.00  0.00    +0.004 C 
ATOM      7  C   UNL     1      31.557 -10.503 -20.439  0.00  0.00    +0.015 C 
ATOM      8  C   UNL     1      32.082  -8.276 -21.256  0.00  0.00    +0.031 C 
ATOM      9  C   UNL     1      31.491  -9.112 -20.312  0.00  0.00    +0.004 C 
ATOM     10  H   UNL     1      32.148 -13.116 -21.428  0.00  0.00    +0.152 HD
ENDROOT
BRANCH   8  13
ATOM     11  N   UNL     1      30.891  -6.117 -21.556  0.00  0.00    -0.343 N 
ATOM     12  N   UNL     1      32.977  -6.176 -20.506  0.00  0.00    -0.285 NA
ATOM     13  C   UNL     1      31.995  -6.832 -21.095  0.00  0.00    +0.117 C 
ATOM     14  H   UNL     1      30.853  -5.141 -21.438  0.00  0.00    +0.144 HD
ATOM     15  H   UNL     1      30.150  -6.590 -22.001  0.00  0.00    +0.144 HD
ATOM     16  H   UNL     1      32.921  -5.199 -20.396  0.00  0.00    +0.188 HD
ENDBRANCH   8  13
BRANCH   2  17
ATOM     17  C   UNL     1      33.558 -13.608 -23.713  0.00  0.00    +0.047 C 
ATOM     18  C   UNL     1      34.003 -14.691 -22.952  0.00  0.00    +0.135 C 
ATOM     19  C   UNL     1      34.362 -15.884 -23.579  0.00  0.00    +0.034 C 
ATOM     20  C   UNL     1      33.473 -13.723 -25.102  0.00  0.00    +0.004 C 
ATOM     21  C   UNL     1      34.276 -15.997 -24.966  0.00  0.00    +0.003 C 
ATOM     22  C   UNL     1      33.831 -14.917 -25.727  0.00  0.00    +0.000 C 
BRANCH  19  23
ATOM     23  C   UNL     1      34.827 -17.021 -22.808  0.00  0.00    +0.003 C 
ATOM     24  C   UNL     1      35.625 -16.818 -21.683  0.00  0.00    +0.000 C 
ATOM     25  C   UNL     1      34.475 -18.314 -23.194  0.00  0.00    +0.000 C 
ATOM     26  C   UNL     1      36.071 -17.912 -20.941  0.00  0.00    +0.000 C 
ATOM     27  C   UNL     1      34.922 -19.406 -22.452  0.00  0.00    +0.000 C 
ATOM     28  C   UNL     1      35.720 -19.205 -21.325  0.00  0.00    +0.000 C 
ENDBRANCH  19  23
BRANCH  18  29
ATOM     29  O   UNL     1      34.087 -14.580 -21.593  0.00  0.00    -0.505 OA
ATOM     30  H   UNL     1      34.647 -13.936 -21.208  0.00  0.00    +0.292 HD
ENDBRANCH  18  29
ENDBRANCH   2  17
TORSDOF 4
ENDMDL
MODEL 7
REMARK VINA RESULT:     -10.4      3.018      8.487
REMARK  Name = 447476
REMARK  4 active torsions:
REMARK  status: ('A' for Active; 'I' for Inactive)
REMARK    1  A    between atoms: C_2  and  C_17
REMARK    2  A    between atoms: C_8  and  C_13
REMARK    3  A    between atoms: C_18  and  O_29
REMARK    4  A    between atoms: C_19  and  C_23
REMARK                            x       y       z     vdW  Elec       q    Type
REMARK                         _______ _______ _______ _____ _____    ______ ____
ROOT
ATOM      1  N   UNL     1      34.130 -16.345 -24.030  0.00  0.00    -0.312 N 
ATOM      2  C   UNL     1      34.344 -15.132 -23.433  0.00  0.00    +0.051 C 
ATOM      3  C   UNL     1      35.066 -16.768 -22.050  0.00  0.00    +0.015 C 
ATOM      4  C   UNL     1      34.561 -17.362 -23.208  0.00  0.00    +0.048 C 
ATOM      5  C   UNL     1      34.923 -15.360 -22.205  0.00  0.00    +0.016 C 
ATOM      6  C   UNL     1      35.580 -17.595 -21.031  0.00  0.00    +0.004 C 
ATOM      7  C   UNL     1      34.542 -18.748 -23.400  0.00  0.00    +0.015 C 
ATOM      8  C   UNL     1      35.568 -18.984 -21.209  0.00  0.00    +0.031 C 
ATOM      9  C   UNL     1      35.057 -19.549 -22.375  0.00  0.00    +0.004 C 
ATOM     10  H   UNL     1      33.725 -16.472 -24.918  0.00  0.00    +0.152 HD
ENDROOT
BRANCH   8  13
ATOM     11  N   UNL     1      35.501 -21.069 -19.862  0.00  0.00    -0.343 N 
ATOM     12  N   UNL     1      37.158 -19.467 -19.474  0.00  0.00    -0.285 NA
ATOM     13  C   UNL     1      36.096 -19.845 -20.162  0.00  0.00    +0.117 C 
ATOM     14  H   UNL     1      35.874 -21.636 -19.149  0.00  0.00    +0.144 HD
ATOM     15  H   UNL     1      34.707 -21.366 -20.363  0.00  0.00    +0.144 HD
ATOM     16  H   UNL     1      37.517 -20.048 -18.764  0.00  0.00    +0.188 HD
ENDBRANCH   8  13
BRANCH   2  17
ATOM     17  C   UNL     1      33.985 -13.890 -24.073  0.00  0.00    +0.047 C 
ATOM     18  C   UNL     1      33.833 -12.715 -23.334  0.00  0.00    +0.135 C 
ATOM     19  C   UNL     1      33.486 -11.526 -23.975  0.00  0.00    +0.034 C 
ATOM     20  C   UNL     1      33.788 -13.871 -25.455  0.00  0.00    +0.004 C 
ATOM     21  C   UNL     1      33.291 -11.509 -25.356  0.00  0.00    +0.003 C 
ATOM     22  C   UNL     1      33.442 -12.682 -26.096  0.00  0.00    +0.000 C 
BRANCH  19  23
ATOM     23  C   UNL     1      33.324 -10.295 -23.227  0.00  0.00    +0.003 C 
ATOM     24  C   UNL     1      34.201  -9.233 -23.441  0.00  0.00    +0.000 C 
ATOM     25  C   UNL     1      32.293 -10.176 -22.297  0.00  0.00    +0.000 C 
ATOM     26  C   UNL     1      34.046  -8.047 -22.722  0.00  0.00    +0.000 C 
ATOM     27  C   UNL     1      32.139  -8.991 -21.578  0.00  0.00    +0.000 C 
ATOM     28  C   UNL     1      33.015  -7.927 -21.791  0.00  0.00    +0.000 C 
ENDBRANCH  19  23
BRANCH  18  29
ATOM     29  O   UNL     1      34.026 -12.732 -21.981  0.00  0.00    -0.505 OA
ATOM     30  H   UNL     1      33.508 -13.294 -21.440  0.00  0.00    +0.292 HD
ENDBRANCH  18  29
ENDBRANCH   2  17
TORSDOF 4
ENDMDL
MODEL 8
REMARK VINA RESULT:     -10.3      2.726      5.288
REMARK  Name = 447476
REMARK  4 active torsions:
REMARK  status: ('A' for Active; 'I' for Inactive)
REMARK    1  A    between atoms: C_2  and  C_17
REMARK    2  A    between atoms: C_8  and  C_13
REMARK    3  A    between atoms: C_18  and  O_29
REMARK    4  A    between atoms: C_19  and  C_23
REMARK                            x       y       z     vdW  Elec       q    Type
REMARK                         _______ _______ _______ _____ _____    ______ ____
ROOT
ATOM      1  N   UNL     1      33.376  -8.670 -22.638  0.00  0.00    -0.312 N 
ATOM      2  C   UNL     1      32.269  -9.365 -22.231  0.00  0.00    +0.051 C 
ATOM      3  C   UNL     1      31.649  -7.265 -22.798  0.00  0.00    +0.015 C 
ATOM      4  C   UNL     1      33.028  -7.384 -22.990  0.00  0.00    +0.048 C 
ATOM      5  C   UNL     1      31.184  -8.522 -22.319  0.00  0.00    +0.016 C 
ATOM      6  C   UNL     1      31.028  -6.035 -23.088  0.00  0.00    +0.004 C 
ATOM      7  C   UNL     1      33.819  -6.330 -23.458  0.00  0.00    +0.015 C 
ATOM      8  C   UNL     1      31.807  -4.970 -23.557  0.00  0.00    +0.031 C 
ATOM      9  C   UNL     1      33.180  -5.118 -23.738  0.00  0.00    +0.004 C 
ATOM     10  H   UNL     1      34.289  -9.035 -22.674  0.00  0.00    +0.152 HD
ENDROOT
BRANCH   8  13
ATOM     11  N   UNL     1      31.446  -3.013 -25.042  0.00  0.00    -0.343 N 
ATOM     12  N   UNL     1      30.324  -3.164 -22.998  0.00  0.00    -0.285 NA
ATOM     13  C   UNL     1      31.173  -3.696 -23.858  0.00  0.00    +0.117 C 
ATOM     14  H   UNL     1      31.007  -2.152 -25.226  0.00  0.00    +0.144 HD
ATOM     15  H   UNL     1      32.079  -3.393 -25.695  0.00  0.00    +0.144 HD
ATOM     16  H   UNL     1      29.894  -2.302 -23.200  0.00  0.00    +0.188 HD
ENDBRANCH   8  13
BRANCH   2  17
ATOM     17  C   UNL     1      32.343 -10.741 -21.806  0.00  0.00    +0.047 C 
ATOM     18  C   UNL     1      32.945 -11.712 -22.608  0.00  0.00    +0.135 C 
ATOM     19  C   UNL     1      33.005 -13.037 -22.175  0.00  0.00    +0.034 C 
ATOM     20  C   UNL     1      31.803 -11.099 -20.569  0.00  0.00    +0.004 C 
ATOM     21  C   UNL     1      32.466 -13.392 -20.939  0.00  0.00    +0.003 C 
ATOM     22  C   UNL     1      31.864 -12.423 -20.136  0.00  0.00    +0.000 C 
BRANCH  19  23
ATOM     23  C   UNL     1      33.626 -14.061 -22.992  0.00  0.00    +0.003 C 
ATOM     24  C   UNL     1      34.686 -14.808 -22.481  0.00  0.00    +0.000 C 
ATOM     25  C   UNL     1      33.162 -14.297 -24.285  0.00  0.00    +0.000 C 
ATOM     26  C   UNL     1      35.284 -15.795 -23.266  0.00  0.00    +0.000 C 
ATOM     27  C   UNL     1      33.760 -15.282 -25.069  0.00  0.00    +0.000 C 
ATOM     28  C   UNL     1      34.820 -16.032 -24.559  0.00  0.00    +0.000 C 
ENDBRANCH  19  23
BRANCH  18  29
ATOM     29  O   UNL     1      33.475 -11.364 -23.818  0.00  0.00    -0.505 OA
ATOM     30  H   UNL     1      34.262 -11.771 -24.121  0.00  0.00    +0.292 HD
ENDBRANCH  18  29
ENDBRANCH   2  17
TORSDOF 4
ENDMDL
MODEL 9
REMARK VINA RESULT:     -10.1      4.665      9.639
REMARK  Name = 447476
REMARK  4 active torsions:
REMARK  status: ('A' for Active; 'I' for Inactive)
REMARK    1  A    between atoms: C_2  and  C_17
REMARK    2  A    between atoms: C_8  and  C_13
REMARK    3  A    between atoms: C_18  and  O_29
REMARK    4  A    between atoms: C_19  and  C_23
REMARK                            x       y       z     vdW  Elec       q    Type
REMARK                         _______ _______ _______ _____ _____    ______ ____
ROOT
ATOM      1  N   UNL     1      34.194 -20.691 -20.066  0.00  0.00    -0.312 N 
ATOM      2  C   UNL     1      35.185 -19.940 -20.638  0.00  0.00    +0.051 C 
ATOM      3  C   UNL     1      36.001 -20.940 -18.782  0.00  0.00    +0.015 C 
ATOM      4  C   UNL     1      34.663 -21.313 -18.931  0.00  0.00    +0.048 C 
ATOM      5  C   UNL     1      36.317 -20.074 -19.866  0.00  0.00    +0.016 C 
ATOM      6  C   UNL     1      36.728 -21.446 -17.685  0.00  0.00    +0.004 C 
ATOM      7  C   UNL     1      34.013 -22.168 -18.035  0.00  0.00    +0.015 C 
ATOM      8  C   UNL     1      36.090 -22.302 -16.780  0.00  0.00    +0.031 C 
ATOM      9  C   UNL     1      34.754 -22.656 -16.954  0.00  0.00    +0.004 C 
ATOM     10  H   UNL     1      33.277 -20.773 -20.416  0.00  0.00    +0.152 HD
ENDROOT
BRANCH   8  13
ATOM     11  N   UNL     1      36.182 -23.277 -14.498  0.00  0.00    -0.343 N 
ATOM     12  N   UNL     1      38.152 -22.880 -15.690  0.00  0.00    -0.285 NA
ATOM     13  C   UNL     1      36.833 -22.828 -15.645  0.00  0.00    +0.117 C 
ATOM     14  H   UNL     1      36.704 -23.628 -13.741  0.00  0.00    +0.144 HD
ATOM     15  H   UNL     1      35.199 -23.243 -14.445  0.00  0.00    +0.144 HD
ATOM     16  H   UNL     1      38.657 -23.235 -14.924  0.00  0.00    +0.188 HD
ENDBRANCH   8  13
BRANCH   2  17
ATOM     17  C   UNL     1      34.969 -19.178 -21.843  0.00  0.00    +0.047 C 
ATOM     18  C   UNL     1      34.823 -17.790 -21.803  0.00  0.00    +0.135 C 
ATOM     19  C   UNL     1      34.615 -17.075 -22.983  0.00  0.00    +0.034 C 
ATOM     20  C   UNL     1      34.907 -19.848 -23.067  0.00  0.00    +0.004 C 
ATOM     21  C   UNL     1      34.554 -17.746 -24.204  0.00  0.00    +0.003 C 
ATOM     22  C   UNL     1      34.700 -19.132 -24.246  0.00  0.00    +0.000 C 
BRANCH  19  23
ATOM     23  C   UNL     1      34.461 -15.633 -22.964  0.00  0.00    +0.003 C 
ATOM     24  C   UNL     1      33.974 -14.973 -24.090  0.00  0.00    +0.000 C 
ATOM     25  C   UNL     1      34.801 -14.912 -21.820  0.00  0.00    +0.000 C 
ATOM     26  C   UNL     1      33.825 -13.585 -24.073  0.00  0.00    +0.000 C 
ATOM     27  C   UNL     1      34.653 -13.525 -21.804  0.00  0.00    +0.000 C 
ATOM     28  C   UNL     1      34.165 -12.863 -22.930  0.00  0.00    +0.000 C 
ENDBRANCH  19  23
BRANCH  18  29
ATOM     29  O   UNL     1      34.884 -17.133 -20.607  0.00  0.00    -0.505 OA
ATOM     30  H   UNL     1      35.530 -16.469 -20.469  0.00  0.00    +0.292 HD
ENDBRANCH  18  29
ENDBRANCH   2  17
TORSDOF 4
ENDMDL
