MODEL 1
REMARK VINA RESULT:     -11.8      0.000      0.000
REMARK  Name = 2929
REMARK  5 active torsions:
REMARK  status: ('A' for Active; 'I' for Inactive)
REMARK    1  A    between atoms: N_1  and  C_22
REMARK    2  A    between atoms: C_4  and  C_11
REMARK    3  A    between atoms: C_11  and  C_14
REMARK    4  A    between atoms: N_13  and  C_17
REMARK    5  A    between atoms: C_22  and  C_24
REMARK                            x       y       z     vdW  Elec       q    Type
REMARK                         _______ _______ _______ _____ _____    ______ ____
ROOT
ATOM      1  N   UNL     1      33.952 -23.380 -14.505  0.00  0.00    -0.281 N 
ATOM      2  C   UNL     1      32.584 -23.248 -14.586  0.00  0.00    +0.052 C 
ATOM      3  C   UNL     1      32.264 -23.099 -15.936  0.00  0.00    +0.018 C 
ATOM      4  C   UNL     1      33.486 -23.145 -16.663  0.00  0.00    +0.060 C 
ATOM      5  C   UNL     1      34.506 -23.320 -15.756  0.00  0.00    +0.069 C 
ATOM      6  C   UNL     1      31.617 -23.251 -13.575  0.00  0.00    +0.015 C 
ATOM      7  C   UNL     1      30.911 -22.942 -16.298  0.00  0.00    +0.001 C 
ATOM      8  C   UNL     1      30.282 -23.094 -13.958  0.00  0.00    +0.001 C 
ATOM      9  C   UNL     1      29.932 -22.943 -15.298  0.00  0.00    +0.000 C 
ENDROOT
BRANCH   4  11
ATOM     10  O   UNL     1      33.839 -24.000 -18.851  0.00  0.00    -0.282 OA
ATOM     11  C   UNL     1      33.678 -23.038 -18.081  0.00  0.00    +0.250 C 
BRANCH  11  14
ATOM     12  O   UNL     1      32.700 -21.033 -18.768  0.00  0.00    -0.266 OA
ATOM     13  N   UNL     1      34.944 -21.477 -19.382  0.00  0.00    -0.278 N 
ATOM     14  C   UNL     1      33.717 -21.704 -18.797  0.00  0.00    +0.289 C 
ATOM     15  H   UNL     1      35.624 -22.181 -19.268  0.00  0.00    +0.155 HD
BRANCH  13  17
ATOM     16  N   UNL     1      36.098 -18.107 -21.589  0.00  0.00    -0.242 NA
ATOM     17  C   UNL     1      35.333 -20.339 -20.126  0.00  0.00    +0.054 C 
ATOM     18  C   UNL     1      36.602 -19.820 -19.958  0.00  0.00    +0.035 C 
ATOM     19  C   UNL     1      34.439 -19.768 -21.009  0.00  0.00    +0.035 C 
ATOM     20  C   UNL     1      36.935 -18.705 -20.712  0.00  0.00    +0.100 C 
ATOM     21  C   UNL     1      34.869 -18.655 -21.715  0.00  0.00    +0.100 C 
ENDBRANCH  13  17
ENDBRANCH  11  14
ENDBRANCH   4  11
BRANCH   1  22
ATOM     22  C   UNL     1      34.712 -23.558 -13.286  0.00  0.00    +0.122 C 
BRANCH  22  24
ATOM     23 CL   UNL     1      40.015 -26.151 -14.364  0.00  0.00    -0.082 Cl
ATOM     24  C   UNL     1      36.042 -24.208 -13.557  0.00  0.00    -0.002 C 
ATOM     25  C   UNL     1      36.082 -25.458 -14.160  0.00  0.00    -0.002 C 
ATOM     26  C   UNL     1      37.210 -23.549 -13.200  0.00  0.00    -0.002 C 
ATOM     27  C   UNL     1      37.315 -26.060 -14.411  0.00  0.00    +0.011 C 
ATOM     28  C   UNL     1      38.442 -24.152 -13.449  0.00  0.00    +0.011 C 
ATOM     29  C   UNL     1      38.495 -25.407 -14.056  0.00  0.00    +0.058 C 
ENDBRANCH  22  24
ENDBRANCH   1  22
TORSDOF 5
ENDMDL
MODEL 2
REMARK VINA RESULT:     -11.1     10.794     15.782
REMARK  Name = 2929
REMARK  5 active torsions:
REMARK  status: ('A' for Active; 'I' for Inactive)
REMARK    1  A    between atoms: N_1  and  C_22
REMARK    2  A    between atoms: C_4  and  C_11
REMARK    3  A    between atoms: C_11  and  C_14
REMARK    4  A    between atoms: N_13  and  C_17
REMARK    5  A    between atoms: C_22  and  C_24
REMARK                            x       y       z     vdW  Elec       q    Type
REMARK                         _______ _______ _______ _____ _____    ______ ____
ROOT
ATOM      1  N   UNL     1      33.554  -8.247 -22.213  0.00  0.00    -0.281 N 
ATOM      2  C   UNL     1      32.703  -8.960 -21.399  0.00  0.00    +0.052 C 
ATOM      3  C   UNL     1      32.568 -10.232 -21.958  0.00  0.00    +0.018 C 
ATOM      4  C   UNL     1      33.366 -10.257 -23.135  0.00  0.00    +0.060 C 
ATOM      5  C   UNL     1      33.960  -9.023 -23.266  0.00  0.00    +0.069 C 
ATOM      6  C   UNL     1      32.051  -8.578 -20.221  0.00  0.00    +0.015 C 
ATOM      7  C   UNL     1      31.739 -11.170 -21.312  0.00  0.00    +0.001 C 
ATOM      8  C   UNL     1      31.235  -9.526 -19.598  0.00  0.00    +0.001 C 
ATOM      9  C   UNL     1      31.081 -10.803 -20.133  0.00  0.00    +0.000 C 
ENDROOT
BRANCH   4  11
ATOM     10  O   UNL     1      33.743 -11.215 -25.276  0.00  0.00    -0.282 OA
ATOM     11  C   UNL     1      33.555 -11.344 -24.054  0.00  0.00    +0.250 C 
BRANCH  11  14
ATOM     12  O   UNL     1      32.714 -13.519 -24.159  0.00  0.00    -0.266 OA
ATOM     13  N   UNL     1      34.468 -13.044 -22.639  0.00  0.00    -0.278 N 
ATOM     14  C   UNL     1      33.529 -12.792 -23.616  0.00  0.00    +0.289 C 
ATOM     15  H   UNL     1      35.022 -12.282 -22.354  0.00  0.00    +0.155 HD
BRANCH  13  17
ATOM     16  N   UNL     1      35.225 -16.710 -20.754  0.00  0.00    -0.242 NA
ATOM     17  C   UNL     1      34.722 -14.281 -22.003  0.00  0.00    +0.054 C 
ATOM     18  C   UNL     1      35.124 -15.364 -22.760  0.00  0.00    +0.035 C 
ATOM     19  C   UNL     1      34.567 -14.386 -20.635  0.00  0.00    +0.035 C 
ATOM     20  C   UNL     1      35.362 -16.553 -22.090  0.00  0.00    +0.100 C 
ATOM     21  C   UNL     1      34.829 -15.619 -20.060  0.00  0.00    +0.100 C 
ENDBRANCH  13  17
ENDBRANCH  11  14
ENDBRANCH   4  11
BRANCH   1  22
ATOM     22  C   UNL     1      33.970  -6.876 -22.004  0.00  0.00    +0.122 C 
BRANCH  22  24
ATOM     23 CL   UNL     1      32.101  -3.314 -26.458  0.00  0.00    -0.082 Cl
ATOM     24  C   UNL     1      33.501  -5.984 -23.122  0.00  0.00    -0.002 C 
ATOM     25  C   UNL     1      34.417  -5.519 -24.056  0.00  0.00    -0.002 C 
ATOM     26  C   UNL     1      32.160  -5.636 -23.202  0.00  0.00    -0.002 C 
ATOM     27  C   UNL     1      33.982  -4.692 -25.091  0.00  0.00    +0.011 C 
ATOM     28  C   UNL     1      31.726  -4.808 -24.236  0.00  0.00    +0.011 C 
ATOM     29  C   UNL     1      32.637  -4.336 -25.182  0.00  0.00    +0.058 C 
ENDBRANCH  22  24
ENDBRANCH   1  22
TORSDOF 5
ENDMDL
MODEL 3
REMARK VINA RESULT:     -10.6      3.453      6.869
REMARK  Name = 2929
REMARK  5 active torsions:
REMARK  status: ('A' for Active; 'I' for Inactive)
REMARK    1  A    between atoms: N_1  and  C_22
REMARK    2  A    between atoms: C_4  and  C_11
REMARK    3  A    between atoms: C_11  and  C_14
REMARK    4  A    between atoms: N_13  and  C_17
REMARK    5  A    between atoms: C_22  and  C_24
REMARK                            x       y       z     vdW  Elec       q    Type
REMARK                         _______ _______ _______ _____ _____    ______ ____
ROOT
ATOM      1  N   UNL     1      33.487 -23.561 -16.563  0.00  0.00    -0.281 N 
ATOM      2  C   UNL     1      32.310 -23.243 -15.923  0.00  0.00    +0.052 C 
ATOM      3  C   UNL     1      32.590 -23.178 -14.557  0.00  0.00    +0.018 C 
ATOM      4  C   UNL     1      33.973 -23.467 -14.399  0.00  0.00    +0.060 C 
ATOM      5  C   UNL     1      34.498 -23.698 -15.651  0.00  0.00    +0.069 C 
ATOM      6  C   UNL     1      31.033 -23.011 -16.445  0.00  0.00    +0.015 C 
ATOM      7  C   UNL     1      31.544 -22.867 -13.665  0.00  0.00    +0.001 C 
ATOM      8  C   UNL     1      30.011 -22.703 -15.542  0.00  0.00    +0.001 C 
ATOM      9  C   UNL     1      30.261 -22.631 -14.173  0.00  0.00    +0.000 C 
ENDROOT
BRANCH   4  11
ATOM     10  O   UNL     1      34.247 -23.578 -12.042  0.00  0.00    -0.282 OA
ATOM     11  C   UNL     1      34.735 -23.521 -13.184  0.00  0.00    +0.250 C 
BRANCH  11  14
ATOM     12  O   UNL     1      36.783 -22.532 -12.659  0.00  0.00    -0.266 OA
ATOM     13  N   UNL     1      36.777 -24.625 -13.770  0.00  0.00    -0.278 N 
ATOM     14  C   UNL     1      36.249 -23.500 -13.172  0.00  0.00    +0.289 C 
ATOM     15  H   UNL     1      36.132 -25.282 -14.119  0.00  0.00    +0.155 HD
BRANCH  13  17
ATOM     16  N   UNL     1      40.836 -25.545 -14.252  0.00  0.00    -0.242 NA
ATOM     17  C   UNL     1      38.146 -24.936 -13.933  0.00  0.00    +0.054 C 
ATOM     18  C   UNL     1      38.867 -24.323 -14.939  0.00  0.00    +0.035 C 
ATOM     19  C   UNL     1      38.741 -25.847 -13.083  0.00  0.00    +0.035 C 
ATOM     20  C   UNL     1      40.206 -24.661 -15.056  0.00  0.00    +0.100 C 
ATOM     21  C   UNL     1      40.085 -26.118 -13.284  0.00  0.00    +0.100 C 
ENDBRANCH  13  17
ENDBRANCH  11  14
ENDBRANCH   4  11
BRANCH   1  22
ATOM     22  C   UNL     1      33.650 -23.729 -17.992  0.00  0.00    +0.122 C 
BRANCH  22  24
ATOM     23 CL   UNL     1      35.082 -18.548 -20.661  0.00  0.00    -0.082 Cl
ATOM     24  C   UNL     1      34.009 -22.429 -18.660  0.00  0.00    -0.002 C 
ATOM     25  C   UNL     1      33.000 -21.612 -19.153  0.00  0.00    -0.002 C 
ATOM     26  C   UNL     1      35.343 -22.066 -18.776  0.00  0.00    -0.002 C 
ATOM     27  C   UNL     1      33.334 -20.408 -19.773  0.00  0.00    +0.011 C 
ATOM     28  C   UNL     1      35.676 -20.863 -19.397  0.00  0.00    +0.011 C 
ATOM     29  C   UNL     1      34.671 -20.033 -19.895  0.00  0.00    +0.058 C 
ENDBRANCH  22  24
ENDBRANCH   1  22
TORSDOF 5
ENDMDL
MODEL 4
REMARK VINA RESULT:     -10.4      6.075      9.908
REMARK  Name = 2929
REMARK  5 active torsions:
REMARK  status: ('A' for Active; 'I' for Inactive)
REMARK    1  A    between atoms: N_1  and  C_22
REMARK    2  A    between atoms: C_4  and  C_11
REMARK    3  A    between atoms: C_11  and  C_14
REMARK    4  A    between atoms: N_13  and  C_17
REMARK    5  A    between atoms: C_22  and  C_24
REMARK                            x       y       z     vdW  Elec       q    Type
REMARK                         _______ _______ _______ _____ _____    ______ ____
ROOT
ATOM      1  N   UNL     1      35.440 -17.425 -22.608  0.00  0.00    -0.281 N 
ATOM      2  C   UNL     1      35.092 -16.463 -21.687  0.00  0.00    +0.052 C 
ATOM      3  C   UNL     1      34.510 -15.409 -22.392  0.00  0.00    +0.018 C 
ATOM      4  C   UNL     1      34.521 -15.770 -23.768  0.00  0.00    +0.060 C 
ATOM      5  C   UNL     1      35.100 -17.015 -23.869  0.00  0.00    +0.069 C 
ATOM      6  C   UNL     1      35.246 -16.449 -20.296  0.00  0.00    +0.015 C 
ATOM      7  C   UNL     1      34.060 -14.282 -21.677  0.00  0.00    +0.001 C 
ATOM      8  C   UNL     1      34.792 -15.320 -19.607  0.00  0.00    +0.001 C 
ATOM      9  C   UNL     1      34.207 -14.253 -20.285  0.00  0.00    +0.000 C 
ENDROOT
BRANCH   4  11
ATOM     10  O   UNL     1      34.072 -15.394 -26.070  0.00  0.00    -0.282 OA
ATOM     11  C   UNL     1      34.032 -15.015 -24.887  0.00  0.00    +0.250 C 
BRANCH  11  14
ATOM     12  O   UNL     1      32.274 -13.501 -25.140  0.00  0.00    -0.266 OA
ATOM     13  N   UNL     1      34.288 -12.756 -24.138  0.00  0.00    -0.278 N 
ATOM     14  C   UNL     1      33.415 -13.642 -24.733  0.00  0.00    +0.289 C 
ATOM     15  H   UNL     1      35.174 -13.108 -23.893  0.00  0.00    +0.155 HD
BRANCH  13  17
ATOM     16  N   UNL     1      33.573  -8.723 -23.252  0.00  0.00    -0.242 NA
ATOM     17  C   UNL     1      34.046 -11.395 -23.840  0.00  0.00    +0.054 C 
ATOM     18  C   UNL     1      33.062 -11.064 -22.930  0.00  0.00    +0.035 C 
ATOM     19  C   UNL     1      34.799 -10.420 -24.463  0.00  0.00    +0.035 C 
ATOM     20  C   UNL     1      32.865  -9.717 -22.671  0.00  0.00    +0.100 C 
ATOM     21  C   UNL     1      34.524  -9.102 -24.136  0.00  0.00    +0.100 C 
ENDBRANCH  13  17
ENDBRANCH  11  14
ENDBRANCH   4  11
BRANCH   1  22
ATOM     22  C   UNL     1      36.076 -18.690 -22.307  0.00  0.00    +0.122 C 
BRANCH  22  24
ATOM     23 CL   UNL     1      32.919 -21.821 -18.275  0.00  0.00    -0.082 Cl
ATOM     24  C   UNL     1      35.284 -19.475 -21.295  0.00  0.00    -0.002 C 
ATOM     25  C   UNL     1      35.950 -20.157 -20.286  0.00  0.00    -0.002 C 
ATOM     26  C   UNL     1      33.900 -19.506 -21.386  0.00  0.00    -0.002 C 
ATOM     27  C   UNL     1      35.216 -20.884 -19.349  0.00  0.00    +0.011 C 
ATOM     28  C   UNL     1      33.166 -20.234 -20.450  0.00  0.00    +0.011 C 
ATOM     29  C   UNL     1      33.824 -20.922 -19.430  0.00  0.00    +0.058 C 
ENDBRANCH  22  24
ENDBRANCH   1  22
TORSDOF 5
ENDMDL
MODEL 5
REMARK VINA RESULT:     -10.4      2.796      5.122
REMARK  Name = 2929
REMARK  5 active torsions:
REMARK  status: ('A' for Active; 'I' for Inactive)
REMARK    1  A    between atoms: N_1  and  C_22
REMARK    2  A    between atoms: C_4  and  C_11
REMARK    3  A    between atoms: C_11  and  C_14
REMARK    4  A    between atoms: N_13  and  C_17
REMARK    5  A    between atoms: C_22  and  C_24
REMARK                            x       y       z     vdW  Elec       q    Type
REMARK                         _______ _______ _______ _____ _____    ______ ____
ROOT
ATOM      1  N   UNL     1      34.865 -23.622 -13.466  0.00  0.00    -0.281 N 
ATOM      2  C   UNL     1      36.003 -24.386 -13.332  0.00  0.00    +0.052 C 
ATOM      3  C   UNL     1      36.874 -24.008 -14.356  0.00  0.00    +0.018 C 
ATOM      4  C   UNL     1      36.220 -22.993 -15.108  0.00  0.00    +0.060 C 
ATOM      5  C   UNL     1      34.987 -22.777 -14.536  0.00  0.00    +0.069 C 
ATOM      6  C   UNL     1      36.323 -25.371 -12.392  0.00  0.00    +0.015 C 
ATOM      7  C   UNL     1      38.126 -24.646 -14.449  0.00  0.00    +0.001 C 
ATOM      8  C   UNL     1      37.571 -25.990 -12.503  0.00  0.00    +0.001 C 
ATOM      9  C   UNL     1      38.461 -25.633 -13.515  0.00  0.00    +0.000 C 
ENDROOT
BRANCH   4  11
ATOM     10  O   UNL     1      37.862 -21.839 -16.378  0.00  0.00    -0.282 OA
ATOM     11  C   UNL     1      36.709 -22.288 -16.258  0.00  0.00    +0.250 C 
BRANCH  11  14
ATOM     12  O   UNL     1      34.886 -22.738 -17.644  0.00  0.00    -0.266 OA
ATOM     13  N   UNL     1      36.309 -20.922 -18.183  0.00  0.00    -0.278 N 
ATOM     14  C   UNL     1      35.842 -22.004 -17.466  0.00  0.00    +0.289 C 
ATOM     15  H   UNL     1      37.118 -20.480 -17.837  0.00  0.00    +0.155 HD
BRANCH  13  17
ATOM     16  N   UNL     1      34.647 -19.312 -21.677  0.00  0.00    -0.242 NA
ATOM     17  C   UNL     1      35.748 -20.378 -19.361  0.00  0.00    +0.054 C 
ATOM     18  C   UNL     1      36.545 -19.642 -20.215  0.00  0.00    +0.035 C 
ATOM     19  C   UNL     1      34.413 -20.593 -19.640  0.00  0.00    +0.035 C 
ATOM     20  C   UNL     1      35.948 -19.131 -21.357  0.00  0.00    +0.100 C 
ATOM     21  C   UNL     1      33.911 -20.040 -20.807  0.00  0.00    +0.100 C 
ENDBRANCH  13  17
ENDBRANCH  11  14
ENDBRANCH   4  11
BRANCH   1  22
ATOM     22  C   UNL     1      33.700 -23.689 -12.609  0.00  0.00    +0.122 C 
BRANCH  22  24
ATOM     23 CL   UNL     1      28.674 -24.410 -15.809  0.00  0.00    -0.082 Cl
ATOM     24  C   UNL     1      32.439 -23.870 -13.411  0.00  0.00    -0.002 C 
ATOM     25  C   UNL     1      31.753 -25.075 -13.345  0.00  0.00    -0.002 C 
ATOM     26  C   UNL     1      31.979 -22.829 -14.206  0.00  0.00    -0.002 C 
ATOM     27  C   UNL     1      30.585 -25.242 -14.089  0.00  0.00    +0.011 C 
ATOM     28  C   UNL     1      30.812 -22.996 -14.950  0.00  0.00    +0.011 C 
ATOM     29  C   UNL     1      30.114 -24.203 -14.891  0.00  0.00    +0.058 C 
ENDBRANCH  22  24
ENDBRANCH   1  22
TORSDOF 5
ENDMDL
MODEL 6
REMARK VINA RESULT:     -10.3      3.607      7.367
REMARK  Name = 2929
REMARK  5 active torsions:
REMARK  status: ('A' for Active; 'I' for Inactive)
REMARK    1  A    between atoms: N_1  and  C_22
REMARK    2  A    between atoms: C_4  and  C_11
REMARK    3  A    between atoms: C_11  and  C_14
REMARK    4  A    between atoms: N_13  and  C_17
REMARK    5  A    between atoms: C_22  and  C_24
REMARK                            x       y       z     vdW  Elec       q    Type
REMARK                         _______ _______ _______ _____ _____    ______ ____
ROOT
ATOM      1  N   UNL     1      36.955 -23.101 -14.891  0.00  0.00    -0.281 N 
ATOM      2  C   UNL     1      37.716 -24.109 -14.342  0.00  0.00    +0.052 C 
ATOM      3  C   UNL     1      36.961 -24.681 -13.316  0.00  0.00    +0.018 C 
ATOM      4  C   UNL     1      35.723 -23.982 -13.269  0.00  0.00    +0.060 C 
ATOM      5  C   UNL     1      35.749 -23.017 -14.249  0.00  0.00    +0.069 C 
ATOM      6  C   UNL     1      39.001 -24.552 -14.673  0.00  0.00    +0.015 C 
ATOM      7  C   UNL     1      37.516 -25.748 -12.582  0.00  0.00    +0.001 C 
ATOM      8  C   UNL     1      39.530 -25.612 -13.932  0.00  0.00    +0.001 C 
ATOM      9  C   UNL     1      38.800 -26.203 -12.902  0.00  0.00    +0.000 C 
ENDROOT
BRANCH   4  11
ATOM     10  O   UNL     1      34.687 -24.782 -11.287  0.00  0.00    -0.282 OA
ATOM     11  C   UNL     1      34.615 -24.202 -12.383  0.00  0.00    +0.250 C 
BRANCH  11  14
ATOM     12  O   UNL     1      32.735 -22.870 -12.010  0.00  0.00    -0.266 OA
ATOM     13  N   UNL     1      32.691 -24.434 -13.789  0.00  0.00    -0.278 N 
ATOM     14  C   UNL     1      33.209 -23.747 -12.712  0.00  0.00    +0.289 C 
ATOM     15  H   UNL     1      33.275 -25.112 -14.201  0.00  0.00    +0.155 HD
BRANCH  13  17
ATOM     16  N   UNL     1      28.899 -23.939 -15.502  0.00  0.00    -0.242 NA
ATOM     17  C   UNL     1      31.412 -24.268 -14.368  0.00  0.00    +0.054 C 
ATOM     18  C   UNL     1      30.405 -25.159 -14.056  0.00  0.00    +0.035 C 
ATOM     19  C   UNL     1      31.191 -23.216 -15.235  0.00  0.00    +0.035 C 
ATOM     20  C   UNL     1      29.169 -24.951 -14.648  0.00  0.00    +0.100 C 
ATOM     21  C   UNL     1      29.921 -23.096 -15.775  0.00  0.00    +0.100 C 
ENDBRANCH  13  17
ENDBRANCH  11  14
ENDBRANCH   4  11
BRANCH   1  22
ATOM     22  C   UNL     1      37.356 -22.245 -15.988  0.00  0.00    +0.122 C 
BRANCH  22  24
ATOM     23 CL   UNL     1      32.870 -21.446 -19.893  0.00  0.00    -0.082 Cl
ATOM     24  C   UNL     1      36.231 -22.045 -16.968  0.00  0.00    -0.002 C 
ATOM     25  C   UNL     1      36.458 -21.320 -18.130  0.00  0.00    -0.002 C 
ATOM     26  C   UNL     1      34.983 -22.588 -16.695  0.00  0.00    -0.002 C 
ATOM     27  C   UNL     1      35.414 -21.135 -19.037  0.00  0.00    +0.011 C 
ATOM     28  C   UNL     1      33.940 -22.401 -17.602  0.00  0.00    +0.011 C 
ATOM     29  C   UNL     1      34.156 -21.676 -18.774  0.00  0.00    +0.058 C 
ENDBRANCH  22  24
ENDBRANCH   1  22
TORSDOF 5
ENDMDL
MODEL 7
REMARK VINA RESULT:     -10.3      4.742      8.627
REMARK  Name = 2929
REMARK  5 active torsions:
REMARK  status: ('A' for Active; 'I' for Inactive)
REMARK    1  A    between atoms: N_1  and  C_22
REMARK    2  A    between atoms: C_4  and  C_11
REMARK    3  A    between atoms: C_11  and  C_14
REMARK    4  A    between atoms: N_13  and  C_17
REMARK    5  A    between atoms: C_22  and  C_24
REMARK                            x       y       z     vdW  Elec       q    Type
REMARK                         _______ _______ _______ _____ _____    ______ ____
ROOT
ATOM      1  N   UNL     1      35.764 -18.644 -21.025  0.00  0.00    -0.281 N 
ATOM      2  C   UNL     1      35.195 -18.521 -22.272  0.00  0.00    +0.052 C 
ATOM      3  C   UNL     1      34.747 -17.204 -22.392  0.00  0.00    +0.018 C 
ATOM      4  C   UNL     1      35.067 -16.542 -21.175  0.00  0.00    +0.060 C 
ATOM      5  C   UNL     1      35.692 -17.453 -20.354  0.00  0.00    +0.069 C 
ATOM      6  C   UNL     1      35.045 -19.467 -23.293  0.00  0.00    +0.015 C 
ATOM      7  C   UNL     1      34.117 -16.810 -23.589  0.00  0.00    +0.001 C 
ATOM      8  C   UNL     1      34.417 -19.053 -24.471  0.00  0.00    +0.001 C 
ATOM      9  C   UNL     1      33.960 -17.744 -24.619  0.00  0.00    +0.000 C 
ENDROOT
BRANCH   4  11
ATOM     10  O   UNL     1      35.246 -14.617 -19.794  0.00  0.00    -0.282 OA
ATOM     11  C   UNL     1      34.811 -15.176 -20.815  0.00  0.00    +0.250 C 
BRANCH  11  14
ATOM     12  O   UNL     1      32.842 -13.993 -21.233  0.00  0.00    -0.266 OA
ATOM     13  N   UNL     1      34.601 -13.878 -22.816  0.00  0.00    -0.278 N 
ATOM     14  C   UNL     1      33.952 -14.260 -21.661  0.00  0.00    +0.289 C 
ATOM     15  H   UNL     1      35.511 -14.231 -22.947  0.00  0.00    +0.155 HD
BRANCH  13  17
ATOM     16  N   UNL     1      33.122 -11.365 -25.825  0.00  0.00    -0.242 NA
ATOM     17  C   UNL     1      34.101 -13.030 -23.831  0.00  0.00    +0.054 C 
ATOM     18  C   UNL     1      34.194 -11.661 -23.679  0.00  0.00    +0.035 C 
ATOM     19  C   UNL     1      33.530 -13.585 -24.959  0.00  0.00    +0.035 C 
ATOM     20  C   UNL     1      33.691 -10.873 -24.702  0.00  0.00    +0.100 C 
ATOM     21  C   UNL     1      33.056 -12.712 -25.924  0.00  0.00    +0.100 C 
ENDBRANCH  13  17
ENDBRANCH  11  14
ENDBRANCH   4  11
BRANCH   1  22
ATOM     22  C   UNL     1      36.357 -19.849 -20.484  0.00  0.00    +0.122 C 
BRANCH  22  24
ATOM     23 CL   UNL     1      32.423 -22.917 -17.148  0.00  0.00    -0.082 Cl
ATOM     24  C   UNL     1      35.370 -20.618 -19.646  0.00  0.00    -0.002 C 
ATOM     25  C   UNL     1      35.834 -21.470 -18.654  0.00  0.00    -0.002 C 
ATOM     26  C   UNL     1      34.011 -20.464 -19.879  0.00  0.00    -0.002 C 
ATOM     27  C   UNL     1      34.919 -22.183 -17.879  0.00  0.00    +0.011 C 
ATOM     28  C   UNL     1      33.096 -21.178 -19.104  0.00  0.00    +0.011 C 
ATOM     29  C   UNL     1      33.551 -22.037 -18.103  0.00  0.00    +0.058 C 
ENDBRANCH  22  24
ENDBRANCH   1  22
TORSDOF 5
ENDMDL
MODEL 8
REMARK VINA RESULT:     -10.1      5.698      9.896
REMARK  Name = 2929
REMARK  5 active torsions:
REMARK  status: ('A' for Active; 'I' for Inactive)
REMARK    1  A    between atoms: N_1  and  C_22
REMARK    2  A    between atoms: C_4  and  C_11
REMARK    3  A    between atoms: C_11  and  C_14
REMARK    4  A    between atoms: N_13  and  C_17
REMARK    5  A    between atoms: C_22  and  C_24
REMARK                            x       y       z     vdW  Elec       q    Type
REMARK                         _______ _______ _______ _____ _____    ______ ____
ROOT
ATOM      1  N   UNL     1      35.355 -17.484 -22.015  0.00  0.00    -0.281 N 
ATOM      2  C   UNL     1      34.768 -16.940 -23.136  0.00  0.00    +0.052 C 
ATOM      3  C   UNL     1      34.372 -15.643 -22.805  0.00  0.00    +0.018 C 
ATOM      4  C   UNL     1      34.741 -15.427 -21.448  0.00  0.00    +0.060 C 
ATOM      5  C   UNL     1      35.343 -16.576 -20.990  0.00  0.00    +0.069 C 
ATOM      6  C   UNL     1      34.561 -17.494 -24.404  0.00  0.00    +0.015 C 
ATOM      7  C   UNL     1      33.736 -14.858 -23.787  0.00  0.00    +0.001 C 
ATOM      8  C   UNL     1      33.929 -16.696 -25.362  0.00  0.00    +0.001 C 
ATOM      9  C   UNL     1      33.522 -15.398 -25.060  0.00  0.00    +0.000 C 
ENDROOT
BRANCH   4  11
ATOM     10  O   UNL     1      35.312 -13.865 -19.753  0.00  0.00    -0.282 OA
ATOM     11  C   UNL     1      34.547 -14.247 -20.654  0.00  0.00    +0.250 C 
BRANCH  11  14
ATOM     12  O   UNL     1      32.273 -13.759 -20.454  0.00  0.00    -0.266 OA
ATOM     13  N   UNL     1      33.708 -12.139 -21.419  0.00  0.00    -0.278 N 
ATOM     14  C   UNL     1      33.352 -13.335 -20.833  0.00  0.00    +0.289 C 
ATOM     15  H   UNL     1      34.661 -12.025 -21.642  0.00  0.00    +0.155 HD
BRANCH  13  17
ATOM     16  N   UNL     1      31.175  -8.933 -22.345  0.00  0.00    -0.242 NA
ATOM     17  C   UNL     1      32.853 -11.058 -21.732  0.00  0.00    +0.054 C 
ATOM     18  C   UNL     1      31.770 -10.791 -20.918  0.00  0.00    +0.035 C 
ATOM     19  C   UNL     1      33.115 -10.286 -22.846  0.00  0.00    +0.035 C 
ATOM     20  C   UNL     1      30.964  -9.720 -21.266  0.00  0.00    +0.100 C 
ATOM     21  C   UNL     1      32.248  -9.237 -23.109  0.00  0.00    +0.100 C 
ENDBRANCH  13  17
ENDBRANCH  11  14
ENDBRANCH   4  11
BRANCH   1  22
ATOM     22  C   UNL     1      35.909 -18.818 -21.917  0.00  0.00    +0.122 C 
BRANCH  22  24
ATOM     23 CL   UNL     1      32.866 -22.161 -17.969  0.00  0.00    -0.082 Cl
ATOM     24  C   UNL     1      35.145 -19.657 -20.927  0.00  0.00    -0.002 C 
ATOM     25  C   UNL     1      33.757 -19.632 -20.937  0.00  0.00    -0.002 C 
ATOM     26  C   UNL     1      35.840 -20.442 -20.018  0.00  0.00    -0.002 C 
ATOM     27  C   UNL     1      33.051 -20.410 -20.020  0.00  0.00    +0.011 C 
ATOM     28  C   UNL     1      35.133 -21.219 -19.100  0.00  0.00    +0.011 C 
ATOM     29  C   UNL     1      33.738 -21.203 -19.101  0.00  0.00    +0.058 C 
ENDBRANCH  22  24
ENDBRANCH   1  22
TORSDOF 5
ENDMDL
MODEL 9
REMARK VINA RESULT:     -10.1      5.407      9.308
REMARK  Name = 2929
REMARK  5 active torsions:
REMARK  status: ('A' for Active; 'I' for Inactive)
REMARK    1  A    between atoms: N_1  and  C_22
REMARK    2  A    between atoms: C_4  and  C_11
REMARK    3  A    between atoms: C_11  and  C_14
REMARK    4  A    between atoms: N_13  and  C_17
REMARK    5  A    between atoms: C_22  and  C_24
REMARK                            x       y       z     vdW  Elec       q    Type
REMARK                         _______ _______ _______ _____ _____    ______ ____
ROOT
ATOM      1  N   UNL     1      35.833 -17.780 -21.796  0.00  0.00    -0.281 N 
ATOM      2  C   UNL     1      35.095 -18.259 -22.855  0.00  0.00    +0.052 C 
ATOM      3  C   UNL     1      34.455 -17.165 -23.439  0.00  0.00    +0.018 C 
ATOM      4  C   UNL     1      34.832 -16.013 -22.695  0.00  0.00    +0.060 C 
ATOM      5  C   UNL     1      35.680 -16.423 -21.691  0.00  0.00    +0.069 C 
ATOM      6  C   UNL     1      34.950 -19.566 -23.335  0.00  0.00    +0.015 C 
ATOM      7  C   UNL     1      33.625 -17.383 -24.557  0.00  0.00    +0.001 C 
ATOM      8  C   UNL     1      34.123 -19.758 -24.446  0.00  0.00    +0.001 C 
ATOM      9  C   UNL     1      33.471 -18.684 -25.050  0.00  0.00    +0.000 C 
ENDROOT
BRANCH   4  11
ATOM     10  O   UNL     1      34.406 -14.084 -24.012  0.00  0.00    -0.282 OA
ATOM     11  C   UNL     1      34.434 -14.651 -22.907  0.00  0.00    +0.250 C 
BRANCH  11  14
ATOM     12  O   UNL     1      34.470 -13.984 -20.670  0.00  0.00    -0.266 OA
ATOM     13  N   UNL     1      33.136 -12.766 -22.204  0.00  0.00    -0.278 N 
ATOM     14  C   UNL     1      34.009 -13.743 -21.773  0.00  0.00    +0.289 C 
ATOM     15  H   UNL     1      32.904 -12.774 -23.160  0.00  0.00    +0.155 HD
BRANCH  13  17
ATOM     16  N   UNL     1      31.378  -9.757 -19.877  0.00  0.00    -0.242 NA
ATOM     17  C   UNL     1      32.542 -11.751 -21.419  0.00  0.00    +0.054 C 
ATOM     18  C   UNL     1      32.179 -12.026 -20.116  0.00  0.00    +0.035 C 
ATOM     19  C   UNL     1      32.337 -10.501 -21.968  0.00  0.00    +0.035 C 
ATOM     20  C   UNL     1      31.602 -10.997 -19.388  0.00  0.00    +0.100 C 
ATOM     21  C   UNL     1      31.752  -9.541 -21.158  0.00  0.00    +0.100 C 
ENDBRANCH  13  17
ENDBRANCH  11  14
ENDBRANCH   4  11
BRANCH   1  22
ATOM     22  C   UNL     1      36.655 -18.578 -20.912  0.00  0.00    +0.122 C 
BRANCH  22  24
ATOM     23 CL   UNL     1      33.416 -22.789 -18.119  0.00  0.00    -0.082 Cl
ATOM     24  C   UNL     1      35.842 -19.635 -20.212  0.00  0.00    -0.002 C 
ATOM     25  C   UNL     1      34.458 -19.607 -20.308  0.00  0.00    -0.002 C 
ATOM     26  C   UNL     1      36.489 -20.621 -19.480  0.00  0.00    -0.002 C 
ATOM     27  C   UNL     1      33.705 -20.586 -19.659  0.00  0.00    +0.011 C 
ATOM     28  C   UNL     1      35.736 -21.599 -18.831  0.00  0.00    +0.011 C 
ATOM     29  C   UNL     1      34.344 -21.582 -18.920  0.00  0.00    +0.058 C 
ENDBRANCH  22  24
ENDBRANCH   1  22
TORSDOF 5
ENDMDL
