MODEL 1
REMARK VINA RESULT:     -12.0      0.000      0.000
REMARK  Name = 6918388
REMARK  5 active torsions:
REMARK  status: ('A' for Active; 'I' for Inactive)
REMARK    1  A    between atoms: N_1  and  C_4
REMARK    2  A    between atoms: N_1  and  C_15
REMARK    3  A    between atoms: C_4  and  C_6
REMARK    4  A    between atoms: C_15  and  C_17
REMARK    5  A    between atoms: C_19  and  C_23
REMARK                            x       y       z     vdW  Elec       q    Type
REMARK                         _______ _______ _______ _____ _____    ______ ____
ROOT
ATOM      1  N   UNL     1      35.287 -16.227 -23.495  0.00  0.00    +0.389 N 
ATOM      2  H   UNL     1      35.430 -15.866 -22.552  0.00  0.00    -0.084 HD
ATOM      3  H   UNL     1      36.145 -16.148 -24.041  0.00  0.00    -0.084 HD
ENDROOT
BRANCH   1   4
ATOM      4  C   UNL     1      34.246 -15.449 -24.151  0.00  0.00    -0.037 C 
BRANCH   4   6
ATOM      5  O   UNL     1      33.234 -14.159 -22.422  0.00  0.00    -0.482 OA
ATOM      6  C   UNL     1      34.133 -14.060 -23.536  0.00  0.00    +0.145 C 
ATOM      7  C   UNL     1      33.632 -13.048 -24.565  0.00  0.00    +0.046 C 
ATOM      8  C   UNL     1      33.585 -11.666 -23.926  0.00  0.00    +0.033 C 
ATOM      9  C   UNL     1      32.953 -11.738 -22.565  0.00  0.00    +0.012 C 
ATOM     10  C   UNL     1      32.825 -12.961 -21.895  0.00  0.00    +0.134 C 
ATOM     11  C   UNL     1      32.507 -10.566 -21.939  0.00  0.00    -0.001 C 
ATOM     12  C   UNL     1      32.222 -13.015 -20.635  0.00  0.00    +0.037 C 
ATOM     13  C   UNL     1      31.918 -10.620 -20.676  0.00  0.00    -0.000 C 
ATOM     14  C   UNL     1      31.772 -11.844 -20.027  0.00  0.00    +0.003 C 
ENDBRANCH   4   6
ENDBRANCH   1   4
BRANCH   1  15
ATOM     15  C   UNL     1      34.915 -17.633 -23.416  0.00  0.00    -0.053 C 
BRANCH  15  17
ATOM     16  N   UNL     1      37.555 -18.690 -20.945  0.00  0.00    -0.243 NA
ATOM     17  C   UNL     1      35.575 -18.324 -22.252  0.00  0.00    -0.025 C 
ATOM     18  C   UNL     1      34.853 -19.189 -21.453  0.00  0.00    -0.003 C 
ATOM     19  C   UNL     1      35.488 -19.812 -20.386  0.00  0.00    +0.019 C 
ATOM     20  C   UNL     1      36.904 -18.102 -21.973  0.00  0.00    +0.092 C 
ATOM     21  C   UNL     1      36.829 -19.531 -20.175  0.00  0.00    +0.099 C 
BRANCH  19  23
ATOM     22  F   UNL     1      32.737 -23.336 -17.054  0.00  0.00    -0.204 F 
ATOM     23  C   UNL     1      34.775 -20.723 -19.522  0.00  0.00    +0.002 C 
ATOM     24  C   UNL     1      35.480 -21.598 -18.693  0.00  0.00    +0.002 C 
ATOM     25  C   UNL     1      33.379 -20.736 -19.515  0.00  0.00    +0.002 C 
ATOM     26  C   UNL     1      34.792 -22.480 -17.859  0.00  0.00    +0.030 C 
ATOM     27  C   UNL     1      32.691 -21.618 -18.682  0.00  0.00    +0.030 C 
ATOM     28  C   UNL     1      33.398 -22.490 -17.854  0.00  0.00    +0.140 C 
ENDBRANCH  19  23
ENDBRANCH  15  17
ENDBRANCH   1  15
TORSDOF 5
ENDMDL
MODEL 2
REMARK VINA RESULT:     -11.8      2.250      4.160
REMARK  Name = 6918388
REMARK  5 active torsions:
REMARK  status: ('A' for Active; 'I' for Inactive)
REMARK    1  A    between atoms: N_1  and  C_4
REMARK    2  A    between atoms: N_1  and  C_15
REMARK    3  A    between atoms: C_4  and  C_6
REMARK    4  A    between atoms: C_15  and  C_17
REMARK    5  A    between atoms: C_19  and  C_23
REMARK                            x       y       z     vdW  Elec       q    Type
REMARK                         _______ _______ _______ _____ _____    ______ ____
ROOT
ATOM      1  N   UNL     1      33.151 -12.967 -22.977  0.00  0.00    +0.389 N 
ATOM      2  H   UNL     1      33.242 -11.972 -23.177  0.00  0.00    -0.084 HD
ATOM      3  H   UNL     1      32.666 -13.441 -23.739  0.00  0.00    -0.084 HD
ENDROOT
BRANCH   1   4
ATOM      4  C   UNL     1      32.377 -13.140 -21.756  0.00  0.00    -0.037 C 
BRANCH   4   6
ATOM      5  O   UNL     1      32.546 -10.773 -21.973  0.00  0.00    -0.482 OA
ATOM      6  C   UNL     1      31.863 -11.802 -21.242  0.00  0.00    +0.145 C 
ATOM      7  C   UNL     1      32.104 -11.668 -19.739  0.00  0.00    +0.046 C 
ATOM      8  C   UNL     1      31.529 -10.342 -19.256  0.00  0.00    +0.033 C 
ATOM      9  C   UNL     1      31.919  -9.230 -20.188  0.00  0.00    +0.012 C 
ATOM     10  C   UNL     1      32.388  -9.504 -21.479  0.00  0.00    +0.134 C 
ATOM     11  C   UNL     1      31.789  -7.897 -19.777  0.00  0.00    -0.001 C 
ATOM     12  C   UNL     1      32.760  -8.460 -22.329  0.00  0.00    +0.037 C 
ATOM     13  C   UNL     1      32.148  -6.855 -20.632  0.00  0.00    -0.000 C 
ATOM     14  C   UNL     1      32.637  -7.137 -21.906  0.00  0.00    +0.003 C 
ENDBRANCH   4   6
ENDBRANCH   1   4
BRANCH   1  15
ATOM     15  C   UNL     1      34.479 -13.549 -22.840  0.00  0.00    -0.053 C 
BRANCH  15  17
ATOM     16  N   UNL     1      34.054 -16.740 -24.797  0.00  0.00    -0.243 NA
ATOM     17  C   UNL     1      34.489 -15.014 -23.185  0.00  0.00    -0.025 C 
ATOM     18  C   UNL     1      34.917 -15.946 -22.260  0.00  0.00    -0.003 C 
ATOM     19  C   UNL     1      34.916 -17.292 -22.607  0.00  0.00    +0.019 C 
ATOM     20  C   UNL     1      34.070 -15.441 -24.424  0.00  0.00    +0.092 C 
ATOM     21  C   UNL     1      34.479 -17.634 -23.877  0.00  0.00    +0.099 C 
BRANCH  19  23
ATOM     22  F   UNL     1      36.618 -21.199 -19.010  0.00  0.00    -0.204 F 
ATOM     23  C   UNL     1      35.356 -18.303 -21.674  0.00  0.00    +0.002 C 
ATOM     24  C   UNL     1      36.693 -18.354 -21.276  0.00  0.00    +0.002 C 
ATOM     25  C   UNL     1      34.447 -19.235 -21.170  0.00  0.00    +0.002 C 
ATOM     26  C   UNL     1      37.119 -19.331 -20.376  0.00  0.00    +0.030 C 
ATOM     27  C   UNL     1      34.873 -20.213 -20.271  0.00  0.00    +0.030 C 
ATOM     28  C   UNL     1      36.209 -20.260 -19.874  0.00  0.00    +0.140 C 
ENDBRANCH  19  23
ENDBRANCH  15  17
ENDBRANCH   1  15
TORSDOF 5
ENDMDL
MODEL 3
REMARK VINA RESULT:     -11.7      3.486      9.149
REMARK  Name = 6918388
REMARK  5 active torsions:
REMARK  status: ('A' for Active; 'I' for Inactive)
REMARK    1  A    between atoms: N_1  and  C_4
REMARK    2  A    between atoms: N_1  and  C_15
REMARK    3  A    between atoms: C_4  and  C_6
REMARK    4  A    between atoms: C_15  and  C_17
REMARK    5  A    between atoms: C_19  and  C_23
REMARK                            x       y       z     vdW  Elec       q    Type
REMARK                         _______ _______ _______ _____ _____    ______ ____
ROOT
ATOM      1  N   UNL     1      35.928 -17.266 -22.645  0.00  0.00    +0.389 N 
ATOM      2  H   UNL     1      35.183 -17.694 -23.193  0.00  0.00    -0.084 HD
ATOM      3  H   UNL     1      36.638 -16.865 -23.257  0.00  0.00    -0.084 HD
ENDROOT
BRANCH   1   4
ATOM      4  C   UNL     1      36.555 -18.286 -21.815  0.00  0.00    -0.037 C 
BRANCH   4   6
ATOM      5  O   UNL     1      36.238 -19.911 -20.101  0.00  0.00    -0.482 OA
ATOM      6  C   UNL     1      35.548 -18.899 -20.850  0.00  0.00    +0.145 C 
ATOM      7  C   UNL     1      34.357 -19.484 -21.607  0.00  0.00    +0.046 C 
ATOM      8  C   UNL     1      33.351 -20.038 -20.605  0.00  0.00    +0.033 C 
ATOM      9  C   UNL     1      34.051 -20.849 -19.552  0.00  0.00    +0.012 C 
ATOM     10  C   UNL     1      35.433 -20.732 -19.355  0.00  0.00    +0.134 C 
ATOM     11  C   UNL     1      33.315 -21.715 -18.734  0.00  0.00    -0.001 C 
ATOM     12  C   UNL     1      36.073 -21.503 -18.381  0.00  0.00    +0.037 C 
ATOM     13  C   UNL     1      33.954 -22.474 -17.752  0.00  0.00    -0.000 C 
ATOM     14  C   UNL     1      35.332 -22.370 -17.579  0.00  0.00    +0.003 C 
ENDBRANCH   4   6
ENDBRANCH   1   4
BRANCH   1  15
ATOM     15  C   UNL     1      35.366 -16.200 -21.826  0.00  0.00    -0.053 C 
BRANCH  15  17
ATOM     16  N   UNL     1      33.573 -14.662 -24.761  0.00  0.00    -0.243 NA
ATOM     17  C   UNL     1      34.554 -15.232 -22.644  0.00  0.00    -0.025 C 
ATOM     18  C   UNL     1      34.061 -14.076 -22.071  0.00  0.00    -0.003 C 
ATOM     19  C   UNL     1      33.314 -13.201 -22.851  0.00  0.00    +0.019 C 
ATOM     20  C   UNL     1      34.295 -15.488 -23.971  0.00  0.00    +0.092 C 
ATOM     21  C   UNL     1      33.100 -13.537 -24.179  0.00  0.00    +0.099 C 
BRANCH  19  23
ATOM     22  F   UNL     1      31.248  -8.485 -20.711  0.00  0.00    -0.204 F 
ATOM     23  C   UNL     1      32.778 -11.980 -22.297  0.00  0.00    +0.002 C 
ATOM     24  C   UNL     1      33.067 -10.753 -22.898  0.00  0.00    +0.002 C 
ATOM     25  C   UNL     1      31.972 -12.022 -21.159  0.00  0.00    +0.002 C 
ATOM     26  C   UNL     1      32.550  -9.573 -22.362  0.00  0.00    +0.030 C 
ATOM     27  C   UNL     1      31.455 -10.842 -20.623  0.00  0.00    +0.030 C 
ATOM     28  C   UNL     1      31.745  -9.618 -21.225  0.00  0.00    +0.140 C 
ENDBRANCH  19  23
ENDBRANCH  15  17
ENDBRANCH   1  15
TORSDOF 5
ENDMDL
MODEL 4
REMARK VINA RESULT:     -11.7      5.005     10.917
REMARK  Name = 6918388
REMARK  5 active torsions:
REMARK  status: ('A' for Active; 'I' for Inactive)
REMARK    1  A    between atoms: N_1  and  C_4
REMARK    2  A    between atoms: N_1  and  C_15
REMARK    3  A    between atoms: C_4  and  C_6
REMARK    4  A    between atoms: C_15  and  C_17
REMARK    5  A    between atoms: C_19  and  C_23
REMARK                            x       y       z     vdW  Elec       q    Type
REMARK                         _______ _______ _______ _____ _____    ______ ____
ROOT
ATOM      1  N   UNL     1      36.152 -21.954 -17.374  0.00  0.00    +0.389 N 
ATOM      2  H   UNL     1      35.233 -21.587 -17.127  0.00  0.00    -0.084 HD
ATOM      3  H   UNL     1      36.145 -22.973 -17.355  0.00  0.00    -0.084 HD
ENDROOT
BRANCH   1   4
ATOM      4  C   UNL     1      37.131 -21.478 -16.407  0.00  0.00    -0.037 C 
BRANCH   4   6
ATOM      5  O   UNL     1      37.933 -23.240 -15.017  0.00  0.00    -0.482 OA
ATOM      6  C   UNL     1      36.963 -22.184 -15.067  0.00  0.00    +0.145 C 
ATOM      7  C   UNL     1      35.543 -22.727 -14.913  0.00  0.00    +0.046 C 
ATOM      8  C   UNL     1      35.402 -23.376 -13.542  0.00  0.00    +0.033 C 
ATOM      9  C   UNL     1      36.584 -24.256 -13.254  0.00  0.00    +0.012 C 
ATOM     10  C   UNL     1      37.770 -24.132 -13.989  0.00  0.00    +0.134 C 
ATOM     11  C   UNL     1      36.518 -25.197 -12.218  0.00  0.00    -0.001 C 
ATOM     12  C   UNL     1      38.857 -24.967 -13.719  0.00  0.00    +0.037 C 
ATOM     13  C   UNL     1      37.610 -26.021 -11.941  0.00  0.00    -0.000 C 
ATOM     14  C   UNL     1      38.776 -25.908 -12.693  0.00  0.00    +0.003 C 
ENDBRANCH   4   6
ENDBRANCH   1   4
BRANCH   1  15
ATOM     15  C   UNL     1      36.494 -21.517 -18.721  0.00  0.00    -0.053 C 
BRANCH  15  17
ATOM     16  N   UNL     1      32.920 -20.838 -19.702  0.00  0.00    -0.243 NA
ATOM     17  C   UNL     1      35.305 -20.940 -19.443  0.00  0.00    -0.025 C 
ATOM     18  C   UNL     1      35.484 -20.028 -20.464  0.00  0.00    -0.003 C 
ATOM     19  C   UNL     1      34.368 -19.513 -21.113  0.00  0.00    +0.019 C 
ATOM     20  C   UNL     1      34.028 -21.317 -19.094  0.00  0.00    +0.092 C 
ATOM     21  C   UNL     1      33.119 -19.946 -20.697  0.00  0.00    +0.099 C 
BRANCH  19  23
ATOM     22  F   UNL     1      34.892 -15.814 -25.253  0.00  0.00    -0.204 F 
ATOM     23  C   UNL     1      34.505 -18.556 -22.186  0.00  0.00    +0.002 C 
ATOM     24  C   UNL     1      35.157 -17.342 -21.962  0.00  0.00    +0.002 C 
ATOM     25  C   UNL     1      33.983 -18.840 -23.449  0.00  0.00    +0.002 C 
ATOM     26  C   UNL     1      35.288 -16.416 -22.997  0.00  0.00    +0.030 C 
ATOM     27  C   UNL     1      34.114 -17.914 -24.485  0.00  0.00    +0.030 C 
ATOM     28  C   UNL     1      34.766 -16.703 -24.258  0.00  0.00    +0.140 C 
ENDBRANCH  19  23
ENDBRANCH  15  17
ENDBRANCH   1  15
TORSDOF 5
ENDMDL
MODEL 5
REMARK VINA RESULT:     -11.6      3.018      5.357
REMARK  Name = 6918388
REMARK  5 active torsions:
REMARK  status: ('A' for Active; 'I' for Inactive)
REMARK    1  A    between atoms: N_1  and  C_4
REMARK    2  A    between atoms: N_1  and  C_15
REMARK    3  A    between atoms: C_4  and  C_6
REMARK    4  A    between atoms: C_15  and  C_17
REMARK    5  A    between atoms: C_19  and  C_23
REMARK                            x       y       z     vdW  Elec       q    Type
REMARK                         _______ _______ _______ _____ _____    ______ ____
ROOT
ATOM      1  N   UNL     1      35.393 -20.137 -19.582  0.00  0.00    +0.389 N 
ATOM      2  H   UNL     1      34.616 -19.875 -20.187  0.00  0.00    -0.084 HD
ATOM      3  H   UNL     1      35.291 -19.708 -18.663  0.00  0.00    -0.084 HD
ENDROOT
BRANCH   1   4
ATOM      4  C   UNL     1      36.638 -19.669 -20.176  0.00  0.00    -0.037 C 
BRANCH   4   6
ATOM      5  O   UNL     1      35.713 -17.472 -20.194  0.00  0.00    -0.482 OA
ATOM      6  C   UNL     1      36.405 -18.421 -21.019  0.00  0.00    +0.145 C 
ATOM      7  C   UNL     1      35.601 -18.756 -22.275  0.00  0.00    +0.046 C 
ATOM      8  C   UNL     1      35.437 -17.495 -23.114  0.00  0.00    +0.033 C 
ATOM      9  C   UNL     1      35.040 -16.335 -22.247  0.00  0.00    +0.012 C 
ATOM     10  C   UNL     1      35.208 -16.384 -20.857  0.00  0.00    +0.134 C 
ATOM     11  C   UNL     1      34.517 -15.173 -22.831  0.00  0.00    -0.001 C 
ATOM     12  C   UNL     1      34.821 -15.302 -20.062  0.00  0.00    +0.037 C 
ATOM     13  C   UNL     1      34.143 -14.089 -22.036  0.00  0.00    -0.000 C 
ATOM     14  C   UNL     1      34.292 -14.156 -20.652  0.00  0.00    +0.003 C 
ENDBRANCH   4   6
ENDBRANCH   1   4
BRANCH   1  15
ATOM     15  C   UNL     1      35.405 -21.584 -19.420  0.00  0.00    -0.053 C 
BRANCH  15  17
ATOM     16  N   UNL     1      36.797 -22.178 -15.970  0.00  0.00    -0.243 NA
ATOM     17  C   UNL     1      35.484 -21.986 -17.972  0.00  0.00    -0.025 C 
ATOM     18  C   UNL     1      34.379 -22.511 -17.331  0.00  0.00    -0.003 C 
ATOM     19  C   UNL     1      34.481 -22.873 -15.993  0.00  0.00    +0.019 C 
ATOM     20  C   UNL     1      36.659 -21.837 -17.271  0.00  0.00    +0.092 C 
ATOM     21  C   UNL     1      35.702 -22.688 -15.363  0.00  0.00    +0.099 C 
BRANCH  19  23
ATOM     22  F   UNL     1      30.121 -24.996 -13.242  0.00  0.00    -0.204 F 
ATOM     23  C   UNL     1      33.353 -23.424 -15.281  0.00  0.00    +0.002 C 
ATOM     24  C   UNL     1      32.062 -23.276 -15.793  0.00  0.00    +0.002 C 
ATOM     25  C   UNL     1      33.547 -24.104 -14.078  0.00  0.00    +0.002 C 
ATOM     26  C   UNL     1      30.971 -23.807 -15.104  0.00  0.00    +0.030 C 
ATOM     27  C   UNL     1      32.456 -24.635 -13.389  0.00  0.00    +0.030 C 
ATOM     28  C   UNL     1      31.169 -24.486 -13.903  0.00  0.00    +0.140 C 
ENDBRANCH  19  23
ENDBRANCH  15  17
ENDBRANCH   1  15
TORSDOF 5
ENDMDL
MODEL 6
REMARK VINA RESULT:     -11.6      4.563     10.501
REMARK  Name = 6918388
REMARK  5 active torsions:
REMARK  status: ('A' for Active; 'I' for Inactive)
REMARK    1  A    between atoms: N_1  and  C_4
REMARK    2  A    between atoms: N_1  and  C_15
REMARK    3  A    between atoms: C_4  and  C_6
REMARK    4  A    between atoms: C_15  and  C_17
REMARK    5  A    between atoms: C_19  and  C_23
REMARK                            x       y       z     vdW  Elec       q    Type
REMARK                         _______ _______ _______ _____ _____    ______ ____
ROOT
ATOM      1  N   UNL     1      34.395 -22.458 -18.261  0.00  0.00    +0.389 N 
ATOM      2  H   UNL     1      34.890 -23.156 -18.815  0.00  0.00    -0.084 HD
ATOM      3  H   UNL     1      35.047 -21.951 -17.662  0.00  0.00    -0.084 HD
ENDROOT
BRANCH   1   4
ATOM      4  C   UNL     1      33.413 -23.126 -17.418  0.00  0.00    -0.037 C 
BRANCH   4   6
ATOM      5  O   UNL     1      34.940 -23.995 -15.807  0.00  0.00    -0.482 OA
ATOM      6  C   UNL     1      33.836 -23.090 -15.955  0.00  0.00    +0.145 C 
ATOM      7  C   UNL     1      32.673 -23.479 -15.044  0.00  0.00    +0.046 C 
ATOM      8  C   UNL     1      33.121 -23.379 -13.591  0.00  0.00    +0.033 C 
ATOM      9  C   UNL     1      34.469 -24.015 -13.412  0.00  0.00    +0.012 C 
ATOM     10  C   UNL     1      35.295 -24.273 -14.513  0.00  0.00    +0.134 C 
ATOM     11  C   UNL     1      34.926 -24.334 -12.126  0.00  0.00    -0.001 C 
ATOM     12  C   UNL     1      36.542 -24.878 -14.332  0.00  0.00    +0.037 C 
ATOM     13  C   UNL     1      36.177 -24.925 -11.947  0.00  0.00    -0.000 C 
ATOM     14  C   UNL     1      36.982 -25.201 -13.050  0.00  0.00    +0.003 C 
ENDBRANCH   4   6
ENDBRANCH   1   4
BRANCH   1  15
ATOM     15  C   UNL     1      33.753 -21.506 -19.157  0.00  0.00    -0.053 C 
BRANCH  15  17
ATOM     16  N   UNL     1      36.981 -19.686 -19.837  0.00  0.00    -0.243 NA
ATOM     17  C   UNL     1      34.747 -20.566 -19.785  0.00  0.00    -0.025 C 
ATOM     18  C   UNL     1      34.372 -19.754 -20.836  0.00  0.00    -0.003 C 
ATOM     19  C   UNL     1      35.311 -18.897 -21.397  0.00  0.00    +0.019 C 
ATOM     20  C   UNL     1      36.040 -20.507 -19.318  0.00  0.00    +0.092 C 
ATOM     21  C   UNL     1      36.592 -18.901 -20.865  0.00  0.00    +0.099 C 
BRANCH  19  23
ATOM     22  F   UNL     1      33.981 -15.548 -25.653  0.00  0.00    -0.204 F 
ATOM     23  C   UNL     1      34.966 -18.028 -22.498  0.00  0.00    +0.002 C 
ATOM     24  C   UNL     1      34.265 -18.535 -23.595  0.00  0.00    +0.002 C 
ATOM     25  C   UNL     1      35.334 -16.682 -22.472  0.00  0.00    +0.002 C 
ATOM     26  C   UNL     1      33.933 -17.697 -24.660  0.00  0.00    +0.030 C 
ATOM     27  C   UNL     1      35.001 -15.845 -23.537  0.00  0.00    +0.030 C 
ATOM     28  C   UNL     1      34.301 -16.353 -24.630  0.00  0.00    +0.140 C 
ENDBRANCH  19  23
ENDBRANCH  15  17
ENDBRANCH   1  15
TORSDOF 5
ENDMDL
MODEL 7
REMARK VINA RESULT:     -11.6      4.801     10.067
REMARK  Name = 6918388
REMARK  5 active torsions:
REMARK  status: ('A' for Active; 'I' for Inactive)
REMARK    1  A    between atoms: N_1  and  C_4
REMARK    2  A    between atoms: N_1  and  C_15
REMARK    3  A    between atoms: C_4  and  C_6
REMARK    4  A    between atoms: C_15  and  C_17
REMARK    5  A    between atoms: C_19  and  C_23
REMARK                            x       y       z     vdW  Elec       q    Type
REMARK                         _______ _______ _______ _____ _____    ______ ____
ROOT
ATOM      1  N   UNL     1      36.518 -21.345 -16.793  0.00  0.00    +0.389 N 
ATOM      2  H   UNL     1      37.010 -20.459 -16.683  0.00  0.00    -0.084 HD
ATOM      3  H   UNL     1      35.542 -21.249 -16.515  0.00  0.00    -0.084 HD
ENDROOT
BRANCH   1   4
ATOM      4  C   UNL     1      37.146 -22.347 -15.942  0.00  0.00    -0.037 C 
BRANCH   4   6
ATOM      5  O   UNL     1      34.815 -22.813 -15.765  0.00  0.00    -0.482 OA
ATOM      6  C   UNL     1      36.098 -23.229 -15.274  0.00  0.00    +0.145 C 
ATOM      7  C   UNL     1      36.176 -23.108 -13.753  0.00  0.00    +0.046 C 
ATOM      8  C   UNL     1      35.151 -24.043 -13.124  0.00  0.00    +0.033 C 
ATOM      9  C   UNL     1      33.829 -23.922 -13.827  0.00  0.00    +0.012 C 
ATOM     10  C   UNL     1      33.739 -23.333 -15.094  0.00  0.00    +0.134 C 
ATOM     11  C   UNL     1      32.669 -24.428 -13.224  0.00  0.00    -0.001 C 
ATOM     12  C   UNL     1      32.500 -23.215 -15.729  0.00  0.00    +0.037 C 
ATOM     13  C   UNL     1      31.435 -24.321 -13.866  0.00  0.00    -0.000 C 
ATOM     14  C   UNL     1      31.351 -23.711 -15.116  0.00  0.00    +0.003 C 
ENDBRANCH   4   6
ENDBRANCH   1   4
BRANCH   1  15
ATOM     15  C   UNL     1      36.565 -21.747 -18.192  0.00  0.00    -0.053 C 
BRANCH  15  17
ATOM     16  N   UNL     1      33.035 -21.184 -19.383  0.00  0.00    -0.243 NA
ATOM     17  C   UNL     1      35.401 -21.197 -18.973  0.00  0.00    -0.025 C 
ATOM     18  C   UNL     1      35.606 -20.246 -19.954  0.00  0.00    -0.003 C 
ATOM     19  C   UNL     1      34.512 -19.756 -20.658  0.00  0.00    +0.019 C 
ATOM     20  C   UNL     1      34.122 -21.636 -18.720  0.00  0.00    +0.092 C 
ATOM     21  C   UNL     1      33.259 -20.253 -20.338  0.00  0.00    +0.099 C 
BRANCH  19  23
ATOM     22  F   UNL     1      35.147 -15.917 -24.652  0.00  0.00    -0.204 F 
ATOM     23  C   UNL     1      34.676 -18.761 -21.692  0.00  0.00    +0.002 C 
ATOM     24  C   UNL     1      34.220 -19.015 -22.987  0.00  0.00    +0.002 C 
ATOM     25  C   UNL     1      35.292 -17.543 -21.401  0.00  0.00    +0.002 C 
ATOM     26  C   UNL     1      34.379 -18.055 -23.986  0.00  0.00    +0.030 C 
ATOM     27  C   UNL     1      35.452 -16.582 -22.401  0.00  0.00    +0.030 C 
ATOM     28  C   UNL     1      34.995 -16.839 -23.693  0.00  0.00    +0.140 C 
ENDBRANCH  19  23
ENDBRANCH  15  17
ENDBRANCH   1  15
TORSDOF 5
ENDMDL
MODEL 8
REMARK VINA RESULT:     -11.5      1.803      2.689
REMARK  Name = 6918388
REMARK  5 active torsions:
REMARK  status: ('A' for Active; 'I' for Inactive)
REMARK    1  A    between atoms: N_1  and  C_4
REMARK    2  A    between atoms: N_1  and  C_15
REMARK    3  A    between atoms: C_4  and  C_6
REMARK    4  A    between atoms: C_15  and  C_17
REMARK    5  A    between atoms: C_19  and  C_23
REMARK                            x       y       z     vdW  Elec       q    Type
REMARK                         _______ _______ _______ _____ _____    ______ ____
ROOT
ATOM      1  N   UNL     1      34.414 -14.364 -23.598  0.00  0.00    +0.389 N 
ATOM      2  H   UNL     1      35.108 -13.739 -24.006  0.00  0.00    -0.084 HD
ATOM      3  H   UNL     1      34.071 -15.022 -24.299  0.00  0.00    -0.084 HD
ENDROOT
BRANCH   1   4
ATOM      4  C   UNL     1      33.291 -13.578 -23.110  0.00  0.00    -0.037 C 
BRANCH   4   6
ATOM      5  O   UNL     1      32.567 -11.447 -22.325  0.00  0.00    -0.482 OA
ATOM      6  C   UNL     1      33.689 -12.120 -22.917  0.00  0.00    +0.145 C 
ATOM      7  C   UNL     1      34.079 -11.482 -24.250  0.00  0.00    +0.046 C 
ATOM      8  C   UNL     1      34.520 -10.044 -24.005  0.00  0.00    +0.033 C 
ATOM      9  C   UNL     1      33.557  -9.348 -23.086  0.00  0.00    +0.012 C 
ATOM     10  C   UNL     1      32.656 -10.079 -22.301  0.00  0.00    +0.134 C 
ATOM     11  C   UNL     1      33.572  -7.951 -22.986  0.00  0.00    -0.001 C 
ATOM     12  C   UNL     1      31.757  -9.418 -21.460  0.00  0.00    +0.037 C 
ATOM     13  C   UNL     1      32.683  -7.293 -22.136  0.00  0.00    -0.000 C 
ATOM     14  C   UNL     1      31.773  -8.026 -21.377  0.00  0.00    +0.003 C 
ENDBRANCH   4   6
ENDBRANCH   1   4
BRANCH   1  15
ATOM     15  C   UNL     1      35.031 -15.120 -22.517  0.00  0.00    -0.053 C 
BRANCH  15  17
ATOM     16  N   UNL     1      34.354 -18.447 -24.151  0.00  0.00    -0.243 NA
ATOM     17  C   UNL     1      34.847 -16.604 -22.692  0.00  0.00    -0.025 C 
ATOM     18  C   UNL     1      34.991 -17.457 -21.616  0.00  0.00    -0.003 C 
ATOM     19  C   UNL     1      34.815 -18.823 -21.808  0.00  0.00    +0.019 C 
ATOM     20  C   UNL     1      34.532 -17.126 -23.926  0.00  0.00    +0.092 C 
ATOM     21  C   UNL     1      34.500 -19.263 -23.084  0.00  0.00    +0.099 C 
BRANCH  19  23
ATOM     22  F   UNL     1      35.363 -22.423 -17.585  0.00  0.00    -0.204 F 
ATOM     23  C   UNL     1      34.956 -19.754 -20.713  0.00  0.00    +0.002 C 
ATOM     24  C   UNL     1      36.222 -20.041 -20.197  0.00  0.00    +0.002 C 
ATOM     25  C   UNL     1      33.830 -20.373 -20.170  0.00  0.00    +0.002 C 
ATOM     26  C   UNL     1      36.359 -20.942 -19.141  0.00  0.00    +0.030 C 
ATOM     27  C   UNL     1      33.967 -21.274 -19.114  0.00  0.00    +0.030 C 
ATOM     28  C   UNL     1      35.231 -21.558 -18.599  0.00  0.00    +0.140 C 
ENDBRANCH  19  23
ENDBRANCH  15  17
ENDBRANCH   1  15
TORSDOF 5
ENDMDL
MODEL 9
REMARK VINA RESULT:     -11.5      2.961      5.480
REMARK  Name = 6918388
REMARK  5 active torsions:
REMARK  status: ('A' for Active; 'I' for Inactive)
REMARK    1  A    between atoms: N_1  and  C_4
REMARK    2  A    between atoms: N_1  and  C_15
REMARK    3  A    between atoms: C_4  and  C_6
REMARK    4  A    between atoms: C_15  and  C_17
REMARK    5  A    between atoms: C_19  and  C_23
REMARK                            x       y       z     vdW  Elec       q    Type
REMARK                         _______ _______ _______ _____ _____    ______ ____
ROOT
ATOM      1  N   UNL     1      35.554 -19.669 -20.031  0.00  0.00    +0.389 N 
ATOM      2  H   UNL     1      34.794 -19.860 -20.682  0.00  0.00    -0.084 HD
ATOM      3  H   UNL     1      35.223 -19.097 -19.254  0.00  0.00    -0.084 HD
ENDROOT
BRANCH   1   4
ATOM      4  C   UNL     1      36.607 -18.943 -20.726  0.00  0.00    -0.037 C 
BRANCH   4   6
ATOM      5  O   UNL     1      35.684 -17.026 -21.799  0.00  0.00    -0.482 OA
ATOM      6  C   UNL     1      36.100 -18.377 -22.046  0.00  0.00    +0.145 C 
ATOM      7  C   UNL     1      34.949 -19.220 -22.593  0.00  0.00    +0.046 C 
ATOM      8  C   UNL     1      34.508 -18.653 -23.937  0.00  0.00    +0.033 C 
ATOM      9  C   UNL     1      34.381 -17.158 -23.859  0.00  0.00    +0.012 C 
ATOM     10  C   UNL     1      34.977 -16.438 -22.816  0.00  0.00    +0.134 C 
ATOM     11  C   UNL     1      33.681 -16.464 -24.855  0.00  0.00    -0.001 C 
ATOM     12  C   UNL     1      34.839 -15.050 -22.749  0.00  0.00    +0.037 C 
ATOM     13  C   UNL     1      33.556 -15.076 -24.794  0.00  0.00    -0.000 C 
ATOM     14  C   UNL     1      34.131 -14.370 -23.739  0.00  0.00    +0.003 C 
ENDBRANCH   4   6
ENDBRANCH   1   4
BRANCH   1  15
ATOM     15  C   UNL     1      36.053 -20.930 -19.498  0.00  0.00    -0.053 C 
BRANCH  15  17
ATOM     16  N   UNL     1      32.761 -22.378 -18.378  0.00  0.00    -0.243 NA
ATOM     17  C   UNL     1      35.026 -21.626 -18.647  0.00  0.00    -0.025 C 
ATOM     18  C   UNL     1      35.371 -22.133 -17.410  0.00  0.00    -0.003 C 
ATOM     19  C   UNL     1      34.401 -22.772 -16.646  0.00  0.00    +0.019 C 
ATOM     20  C   UNL     1      33.731 -21.764 -19.091  0.00  0.00    +0.092 C 
ATOM     21  C   UNL     1      33.122 -22.868 -17.171  0.00  0.00    +0.099 C 
BRANCH  19  23
ATOM     22  F   UNL     1      35.616 -24.890 -11.633  0.00  0.00    -0.204 F 
ATOM     23  C   UNL     1      34.715 -23.319 -15.347  0.00  0.00    +0.002 C 
ATOM     24  C   UNL     1      36.043 -23.571 -14.996  0.00  0.00    +0.002 C 
ATOM     25  C   UNL     1      33.693 -23.601 -14.439  0.00  0.00    +0.002 C 
ATOM     26  C   UNL     1      36.347 -24.101 -13.742  0.00  0.00    +0.030 C 
ATOM     27  C   UNL     1      33.997 -24.132 -13.185  0.00  0.00    +0.030 C 
ATOM     28  C   UNL     1      35.324 -24.381 -12.837  0.00  0.00    +0.140 C 
ENDBRANCH  19  23
ENDBRANCH  15  17
ENDBRANCH   1  15
TORSDOF 5
ENDMDL
