MODEL 1
REMARK VINA RESULT:     -11.7      0.000      0.000
REMARK  Name = 46937052
REMARK  7 active torsions:
REMARK  status: ('A' for Active; 'I' for Inactive)
REMARK    1  A    between atoms: O_1  and  C_3
REMARK    2  A    between atoms: O_1  and  C_17
REMARK    3  A    between atoms: C_4  and  C_11
REMARK    4  A    between atoms: C_17  and  C_18
REMARK    5  A    between atoms: C_18  and  N_19
REMARK    6  A    between atoms: C_18  and  C_23
REMARK    7  A    between atoms: C_23  and  C_25
REMARK                            x       y       z     vdW  Elec       q    Type
REMARK                         _______ _______ _______ _____ _____    ______ ____
ROOT
ATOM      1  O   UNL     1      36.182 -22.426 -17.967  0.00  0.00    -0.476 OA
ENDROOT
BRANCH   1   3
ATOM      2  N   UNL     1      32.797 -21.559 -19.053  0.00  0.00    -0.239 NA
ATOM      3  C   UNL     1      35.166 -21.782 -18.625  0.00  0.00    +0.158 C 
ATOM      4  C   UNL     1      34.380 -20.102 -20.156  0.00  0.00    +0.039 C 
ATOM      5  C   UNL     1      35.430 -20.737 -19.503  0.00  0.00    +0.042 C 
ATOM      6  C   UNL     1      33.845 -22.152 -18.436  0.00  0.00    +0.136 C 
ATOM      7  C   UNL     1      33.093 -20.547 -19.899  0.00  0.00    +0.101 C 
BRANCH   4  11
ATOM      8  N   UNL     1      35.210 -17.922 -20.654  0.00  0.00    -0.264 NA
ATOM      9  N   UNL     1      35.155 -16.140 -23.905  0.00  0.00    -0.150 NA
ATOM     10  N   UNL     1      34.558 -16.772 -25.081  0.00  0.00    -0.147 NA
ATOM     11  C   UNL     1      34.629 -18.981 -21.102  0.00  0.00    +0.078 C 
ATOM     12  C   UNL     1      34.387 -18.194 -23.328  0.00  0.00    +0.040 C 
ATOM     13  C   UNL     1      35.042 -16.979 -22.910  0.00  0.00    +0.107 C 
ATOM     14  C   UNL     1      35.498 -16.771 -21.513  0.00  0.00    +0.173 C 
ATOM     15  C   UNL     1      34.153 -19.197 -22.497  0.00  0.00    +0.022 C 
ATOM     16  C   UNL     1      34.122 -17.946 -24.726  0.00  0.00    +0.123 C 
ENDBRANCH   4  11
ENDBRANCH   1   3
BRANCH   1  17
ATOM     17  C   UNL     1      36.411 -22.048 -16.616  0.00  0.00    +0.184 C 
BRANCH  17  18
ATOM     18  C   UNL     1      35.804 -23.082 -15.660  0.00  0.00    -0.017 C 
BRANCH  18  19
ATOM     19  N   UNL     1      36.900 -23.815 -15.020  0.00  0.00    +0.384 N 
ATOM     20  H   UNL     1      37.722 -23.794 -15.625  0.00  0.00    -0.089 HD
ATOM     21  H   UNL     1      36.617 -24.783 -14.865  0.00  0.00    -0.089 HD
ATOM     22  H   UNL     1      37.125 -23.378 -14.126  0.00  0.00    -0.089 HD
ENDBRANCH  18  19
BRANCH  18  23
ATOM     23  C   UNL     1      34.913 -22.448 -14.564  0.00  0.00    +0.010 C 
BRANCH  23  25
ATOM     24  N   UNL     1      32.899 -24.928 -12.623  0.00  0.00    -0.244 NA
ATOM     25  C   UNL     1      33.832 -23.318 -14.068  0.00  0.00    -0.004 C 
ATOM     26  C   UNL     1      32.564 -23.539 -14.434  0.00  0.00    +0.011 C 
ATOM     27  C   UNL     1      31.978 -24.528 -13.553  0.00  0.00    +0.080 C 
ATOM     28  C   UNL     1      33.956 -24.234 -12.922  0.00  0.00    +0.094 C 
ATOM     29  C   UNL     1      31.814 -22.942 -15.510  0.00  0.00    -0.020 C 
ATOM     30  C   UNL     1      30.709 -24.924 -13.711  0.00  0.00    +0.015 C 
ATOM     31  C   UNL     1      29.843 -24.352 -14.816  0.00  0.00    -0.020 C 
ATOM     32  C   UNL     1      30.537 -23.323 -15.690  0.00  0.00    +0.052 C 
ENDBRANCH  23  25
ENDBRANCH  18  23
ENDBRANCH  17  18
ENDBRANCH   1  17
TORSDOF 7
ENDMDL
MODEL 2
REMARK VINA RESULT:     -11.7      2.186     10.342
REMARK  Name = 46937052
REMARK  7 active torsions:
REMARK  status: ('A' for Active; 'I' for Inactive)
REMARK    1  A    between atoms: O_1  and  C_3
REMARK    2  A    between atoms: O_1  and  C_17
REMARK    3  A    between atoms: C_4  and  C_11
REMARK    4  A    between atoms: C_17  and  C_18
REMARK    5  A    between atoms: C_18  and  N_19
REMARK    6  A    between atoms: C_18  and  C_23
REMARK    7  A    between atoms: C_23  and  C_25
REMARK                            x       y       z     vdW  Elec       q    Type
REMARK                         _______ _______ _______ _____ _____    ______ ____
ROOT
ATOM      1  O   UNL     1      33.727 -20.130 -20.633  0.00  0.00    -0.476 OA
ENDROOT
BRANCH   1   3
ATOM      2  N   UNL     1      35.730 -22.112 -18.300  0.00  0.00    -0.239 NA
ATOM      3  C   UNL     1      34.042 -20.939 -19.572  0.00  0.00    +0.158 C 
ATOM      4  C   UNL     1      33.407 -22.223 -17.640  0.00  0.00    +0.039 C 
ATOM      5  C   UNL     1      33.057 -21.405 -18.709  0.00  0.00    +0.042 C 
ATOM      6  C   UNL     1      35.352 -21.318 -19.327  0.00  0.00    +0.136 C 
ATOM      7  C   UNL     1      34.746 -22.545 -17.481  0.00  0.00    +0.101 C 
BRANCH   4  11
ATOM      8  N   UNL     1      31.136 -22.533 -16.978  0.00  0.00    -0.264 NA
ATOM      9  N   UNL     1      29.848 -24.256 -13.959  0.00  0.00    -0.150 NA
ATOM     10  N   UNL     1      30.776 -24.838 -12.991  0.00  0.00    -0.147 NA
ATOM     11  C   UNL     1      32.377 -22.739 -16.698  0.00  0.00    +0.078 C 
ATOM     12  C   UNL     1      31.972 -23.899 -14.668  0.00  0.00    +0.040 C 
ATOM     13  C   UNL     1      30.562 -23.721 -14.914  0.00  0.00    +0.107 C 
ATOM     14  C   UNL     1      30.055 -23.006 -16.111  0.00  0.00    +0.173 C 
ATOM     15  C   UNL     1      32.899 -23.442 -15.493  0.00  0.00    +0.022 C 
ATOM     16  C   UNL     1      31.987 -24.619 -13.416  0.00  0.00    +0.123 C 
ENDBRANCH   4  11
ENDBRANCH   1   3
BRANCH   1  17
ATOM     17  C   UNL     1      34.802 -19.717 -21.466  0.00  0.00    +0.184 C 
BRANCH  17  18
ATOM     18  C   UNL     1      34.917 -18.188 -21.473  0.00  0.00    -0.017 C 
BRANCH  18  19
ATOM     19  N   UNL     1      35.675 -17.778 -20.288  0.00  0.00    +0.384 N 
ATOM     20  H   UNL     1      36.181 -16.915 -20.490  0.00  0.00    -0.089 HD
ATOM     21  H   UNL     1      36.339 -18.511 -20.039  0.00  0.00    -0.089 HD
ATOM     22  H   UNL     1      35.033 -17.622 -19.511  0.00  0.00    -0.089 HD
ENDBRANCH  18  19
BRANCH  18  23
ATOM     23  C   UNL     1      35.621 -17.638 -22.739  0.00  0.00    +0.010 C 
BRANCH  23  25
ATOM     24  N   UNL     1      33.440 -16.159 -25.390  0.00  0.00    -0.244 NA
ATOM     25  C   UNL     1      34.800 -16.722 -23.552  0.00  0.00    -0.004 C 
ATOM     26  C   UNL     1      34.443 -15.437 -23.443  0.00  0.00    +0.011 C 
ATOM     27  C   UNL     1      33.606 -15.077 -24.569  0.00  0.00    +0.080 C 
ATOM     28  C   UNL     1      34.124 -17.095 -24.805  0.00  0.00    +0.094 C 
ATOM     29  C   UNL     1      34.783 -14.486 -22.415  0.00  0.00    -0.020 C 
ATOM     30  C   UNL     1      33.116 -13.838 -24.693  0.00  0.00    +0.015 C 
ATOM     31  C   UNL     1      33.421 -12.769 -23.661  0.00  0.00    -0.020 C 
ATOM     32  C   UNL     1      34.303 -13.233 -22.517  0.00  0.00    +0.052 C 
ENDBRANCH  23  25
ENDBRANCH  18  23
ENDBRANCH  17  18
ENDBRANCH   1  17
TORSDOF 7
ENDMDL
MODEL 3
REMARK VINA RESULT:     -11.6      2.115      9.758
REMARK  Name = 46937052
REMARK  7 active torsions:
REMARK  status: ('A' for Active; 'I' for Inactive)
REMARK    1  A    between atoms: O_1  and  C_3
REMARK    2  A    between atoms: O_1  and  C_17
REMARK    3  A    between atoms: C_4  and  C_11
REMARK    4  A    between atoms: C_17  and  C_18
REMARK    5  A    between atoms: C_18  and  N_19
REMARK    6  A    between atoms: C_18  and  C_23
REMARK    7  A    between atoms: C_23  and  C_25
REMARK                            x       y       z     vdW  Elec       q    Type
REMARK                         _______ _______ _______ _____ _____    ______ ____
ROOT
ATOM      1  O   UNL     1      32.830 -22.370 -18.347  0.00  0.00    -0.476 OA
ENDROOT
BRANCH   1   3
ATOM      2  N   UNL     1      31.726 -23.485 -15.042  0.00  0.00    -0.239 NA
ATOM      3  C   UNL     1      32.890 -22.819 -17.053  0.00  0.00    +0.158 C 
ATOM      4  C   UNL     1      34.142 -23.517 -15.122  0.00  0.00    +0.039 C 
ATOM      5  C   UNL     1      34.111 -23.062 -16.435  0.00  0.00    +0.042 C 
ATOM      6  C   UNL     1      31.736 -23.044 -16.320  0.00  0.00    +0.136 C 
ATOM      7  C   UNL     1      32.932 -23.711 -14.475  0.00  0.00    +0.101 C 
BRANCH   4  11
ATOM      8  N   UNL     1      36.245 -24.633 -14.965  0.00  0.00    -0.264 NA
ATOM      9  N   UNL     1      38.825 -24.290 -12.325  0.00  0.00    -0.150 NA
ATOM     10  N   UNL     1      38.607 -23.390 -11.193  0.00  0.00    -0.147 NA
ATOM     11  C   UNL     1      35.432 -23.787 -14.432  0.00  0.00    +0.078 C 
ATOM     12  C   UNL     1      36.803 -23.292 -12.558  0.00  0.00    +0.040 C 
ATOM     13  C   UNL     1      37.772 -24.215 -13.095  0.00  0.00    +0.107 C 
ATOM     14  C   UNL     1      37.537 -24.958 -14.358  0.00  0.00    +0.173 C 
ATOM     15  C   UNL     1      35.649 -23.046 -13.157  0.00  0.00    +0.022 C 
ATOM     16  C   UNL     1      37.440 -22.832 -11.347  0.00  0.00    +0.123 C 
ENDBRANCH   4  11
ENDBRANCH   1   3
BRANCH   1  17
ATOM     17  C   UNL     1      34.062 -22.015 -18.960  0.00  0.00    +0.184 C 
BRANCH  17  18
ATOM     18  C   UNL     1      33.836 -20.947 -20.037  0.00  0.00    -0.017 C 
BRANCH  18  19
ATOM     19  N   UNL     1      32.614 -20.209 -19.704  0.00  0.00    +0.384 N 
ATOM     20  H   UNL     1      32.025 -20.782 -19.100  0.00  0.00    -0.089 HD
ATOM     21  H   UNL     1      32.107 -19.985 -20.560  0.00  0.00    -0.089 HD
ATOM     22  H   UNL     1      32.861 -19.346 -19.218  0.00  0.00    -0.089 HD
ENDBRANCH  18  19
BRANCH  18  23
ATOM     23  C   UNL     1      35.013 -19.948 -20.159  0.00  0.00    +0.010 C 
BRANCH  23  25
ATOM     24  N   UNL     1      34.756 -18.528 -23.608  0.00  0.00    -0.244 NA
ATOM     25  C   UNL     1      34.931 -19.036 -21.314  0.00  0.00    -0.004 C 
ATOM     26  C   UNL     1      34.929 -17.706 -21.459  0.00  0.00    +0.011 C 
ATOM     27  C   UNL     1      34.822 -17.379 -22.866  0.00  0.00    +0.080 C 
ATOM     28  C   UNL     1      34.819 -19.470 -22.716  0.00  0.00    +0.094 C 
ATOM     29  C   UNL     1      35.014 -16.684 -20.447  0.00  0.00    -0.020 C 
ATOM     30  C   UNL     1      34.799 -16.105 -23.276  0.00  0.00    +0.015 C 
ATOM     31  C   UNL     1      34.885 -14.962 -22.285  0.00  0.00    -0.020 C 
ATOM     32  C   UNL     1      34.993 -15.395 -20.834  0.00  0.00    +0.052 C 
ENDBRANCH  23  25
ENDBRANCH  18  23
ENDBRANCH  17  18
ENDBRANCH   1  17
TORSDOF 7
ENDMDL
MODEL 4
REMARK VINA RESULT:     -11.6      4.039      6.867
REMARK  Name = 46937052
REMARK  7 active torsions:
REMARK  status: ('A' for Active; 'I' for Inactive)
REMARK    1  A    between atoms: O_1  and  C_3
REMARK    2  A    between atoms: O_1  and  C_17
REMARK    3  A    between atoms: C_4  and  C_11
REMARK    4  A    between atoms: C_17  and  C_18
REMARK    5  A    between atoms: C_18  and  N_19
REMARK    6  A    between atoms: C_18  and  C_23
REMARK    7  A    between atoms: C_23  and  C_25
REMARK                            x       y       z     vdW  Elec       q    Type
REMARK                         _______ _______ _______ _____ _____    ______ ____
ROOT
ATOM      1  O   UNL     1      35.733 -17.195 -22.770  0.00  0.00    -0.476 OA
ENDROOT
BRANCH   1   3
ATOM      2  N   UNL     1      33.685 -15.925 -25.523  0.00  0.00    -0.239 NA
ATOM      3  C   UNL     1      34.942 -16.347 -23.502  0.00  0.00    +0.158 C 
ATOM      4  C   UNL     1      33.789 -14.255 -23.777  0.00  0.00    +0.039 C 
ATOM      5  C   UNL     1      34.593 -15.093 -23.014  0.00  0.00    +0.042 C 
ATOM      6  C   UNL     1      34.467 -16.712 -24.751  0.00  0.00    +0.136 C 
ATOM      7  C   UNL     1      33.365 -14.714 -25.015  0.00  0.00    +0.101 C 
BRANCH   4  11
ATOM      8  N   UNL     1      33.804 -11.875 -23.939  0.00  0.00    -0.264 NA
ATOM      9  N   UNL     1      32.170  -9.418 -21.696  0.00  0.00    -0.150 NA
ATOM     10  N   UNL     1      31.409  -9.874 -20.533  0.00  0.00    -0.147 NA
ATOM     11  C   UNL     1      33.397 -12.907 -23.284  0.00  0.00    +0.078 C 
ATOM     12  C   UNL     1      32.225 -11.684 -21.622  0.00  0.00    +0.040 C 
ATOM     13  C   UNL     1      32.629 -10.479 -22.304  0.00  0.00    +0.107 C 
ATOM     14  C   UNL     1      33.466 -10.510 -23.529  0.00  0.00    +0.173 C 
ATOM     15  C   UNL     1      32.569 -12.889 -22.045  0.00  0.00    +0.022 C 
ATOM     16  C   UNL     1      31.457 -11.175 -20.510  0.00  0.00    +0.123 C 
ENDBRANCH   4  11
ENDBRANCH   1   3
BRANCH   1  17
ATOM     17  C   UNL     1      35.271 -18.531 -22.619  0.00  0.00    +0.184 C 
BRANCH  17  18
ATOM     18  C   UNL     1      35.620 -19.064 -21.224  0.00  0.00    -0.017 C 
BRANCH  18  19
ATOM     19  N   UNL     1      35.605 -17.939 -20.285  0.00  0.00    +0.384 N 
ATOM     20  H   UNL     1      35.187 -17.126 -20.737  0.00  0.00    -0.089 HD
ATOM     21  H   UNL     1      36.560 -17.718 -20.004  0.00  0.00    -0.089 HD
ATOM     22  H   UNL     1      35.057 -18.191 -19.463  0.00  0.00    -0.089 HD
ENDBRANCH  18  19
BRANCH  18  23
ATOM     23  C   UNL     1      34.637 -20.153 -20.726  0.00  0.00    +0.010 C 
BRANCH  23  25
ATOM     24  N   UNL     1      36.693 -21.677 -18.002  0.00  0.00    -0.244 NA
ATOM     25  C   UNL     1      35.082 -20.883 -19.526  0.00  0.00    -0.004 C 
ATOM     26  C   UNL     1      34.460 -21.586 -18.573  0.00  0.00    +0.011 C 
ATOM     27  C   UNL     1      35.440 -22.081 -17.628  0.00  0.00    +0.080 C 
ATOM     28  C   UNL     1      36.482 -20.994 -19.086  0.00  0.00    +0.094 C 
ATOM     29  C   UNL     1      33.053 -21.861 -18.422  0.00  0.00    -0.020 C 
ATOM     30  C   UNL     1      35.068 -22.818 -16.574  0.00  0.00    +0.015 C 
ATOM     31  C   UNL     1      33.611 -23.160 -16.333  0.00  0.00    -0.020 C 
ATOM     32  C   UNL     1      32.654 -22.600 -17.371  0.00  0.00    +0.052 C 
ENDBRANCH  23  25
ENDBRANCH  18  23
ENDBRANCH  17  18
ENDBRANCH   1  17
TORSDOF 7
ENDMDL
MODEL 5
REMARK VINA RESULT:     -11.5      1.984     10.263
REMARK  Name = 46937052
REMARK  7 active torsions:
REMARK  status: ('A' for Active; 'I' for Inactive)
REMARK    1  A    between atoms: O_1  and  C_3
REMARK    2  A    between atoms: O_1  and  C_17
REMARK    3  A    between atoms: C_4  and  C_11
REMARK    4  A    between atoms: C_17  and  C_18
REMARK    5  A    between atoms: C_18  and  N_19
REMARK    6  A    between atoms: C_18  and  C_23
REMARK    7  A    between atoms: C_23  and  C_25
REMARK                            x       y       z     vdW  Elec       q    Type
REMARK                         _______ _______ _______ _____ _____    ______ ____
ROOT
ATOM      1  O   UNL     1      35.328 -20.537 -20.120  0.00  0.00    -0.476 OA
ENDROOT
BRANCH   1   3
ATOM      2  N   UNL     1      32.655 -22.320 -18.370  0.00  0.00    -0.239 NA
ATOM      3  C   UNL     1      34.686 -21.271 -19.156  0.00  0.00    +0.158 C 
ATOM      4  C   UNL     1      34.684 -22.452 -17.061  0.00  0.00    +0.039 C 
ATOM      5  C   UNL     1      35.360 -21.709 -18.022  0.00  0.00    +0.042 C 
ATOM      6  C   UNL     1      33.346 -21.601 -19.282  0.00  0.00    +0.136 C 
ATOM      7  C   UNL     1      33.343 -22.728 -17.280  0.00  0.00    +0.101 C 
BRANCH   4  11
ATOM      8  N   UNL     1      36.663 -22.980 -15.839  0.00  0.00    -0.264 NA
ATOM      9  N   UNL     1      36.938 -24.280 -12.378  0.00  0.00    -0.150 NA
ATOM     10  N   UNL     1      35.733 -24.544 -11.593  0.00  0.00    -0.147 NA
ATOM     11  C   UNL     1      35.376 -22.935 -15.835  0.00  0.00    +0.078 C 
ATOM     12  C   UNL     1      35.117 -23.762 -13.626  0.00  0.00    +0.040 C 
ATOM     13  C   UNL     1      36.555 -23.832 -13.544  0.00  0.00    +0.107 C 
ATOM     14  C   UNL     1      37.428 -23.439 -14.677  0.00  0.00    +0.173 C 
ATOM     15  C   UNL     1      34.487 -23.340 -14.710  0.00  0.00    +0.022 C 
ATOM     16  C   UNL     1      34.702 -24.243 -12.329  0.00  0.00    +0.123 C 
ENDBRANCH   4  11
ENDBRANCH   1   3
BRANCH   1  17
ATOM     17  C   UNL     1      34.506 -19.827 -21.037  0.00  0.00    +0.184 C 
BRANCH  17  18
ATOM     18  C   UNL     1      35.038 -18.403 -21.242  0.00  0.00    -0.017 C 
BRANCH  18  19
ATOM     19  N   UNL     1      36.114 -18.171 -20.274  0.00  0.00    +0.384 N 
ATOM     20  H   UNL     1      36.076 -17.205 -19.950  0.00  0.00    -0.089 HD
ATOM     21  H   UNL     1      37.015 -18.346 -20.718  0.00  0.00    -0.089 HD
ATOM     22  H   UNL     1      35.998 -18.801 -19.480  0.00  0.00    -0.089 HD
ENDBRANCH  18  19
BRANCH  18  23
ATOM     23  C   UNL     1      35.581 -18.157 -22.671  0.00  0.00    +0.010 C 
BRANCH  23  25
ATOM     24  N   UNL     1      33.474 -16.514 -25.285  0.00  0.00    -0.244 NA
ATOM     25  C   UNL     1      34.810 -17.183 -23.464  0.00  0.00    -0.004 C 
ATOM     26  C   UNL     1      34.529 -15.881 -23.334  0.00  0.00    +0.011 C 
ATOM     27  C   UNL     1      33.707 -15.457 -24.449  0.00  0.00    +0.080 C 
ATOM     28  C   UNL     1      34.106 -17.497 -24.718  0.00  0.00    +0.094 C 
ATOM     29  C   UNL     1      34.929 -14.968 -22.294  0.00  0.00    -0.020 C 
ATOM     30  C   UNL     1      33.289 -14.190 -24.550  0.00  0.00    +0.015 C 
ATOM     31  C   UNL     1      33.660 -13.156 -23.505  0.00  0.00    -0.020 C 
ATOM     32  C   UNL     1      34.521 -13.688 -22.374  0.00  0.00    +0.052 C 
ENDBRANCH  23  25
ENDBRANCH  18  23
ENDBRANCH  17  18
ENDBRANCH   1  17
TORSDOF 7
ENDMDL
MODEL 6
REMARK VINA RESULT:     -11.5      2.315      8.573
REMARK  Name = 46937052
REMARK  7 active torsions:
REMARK  status: ('A' for Active; 'I' for Inactive)
REMARK    1  A    between atoms: O_1  and  C_3
REMARK    2  A    between atoms: O_1  and  C_17
REMARK    3  A    between atoms: C_4  and  C_11
REMARK    4  A    between atoms: C_17  and  C_18
REMARK    5  A    between atoms: C_18  and  N_19
REMARK    6  A    between atoms: C_18  and  C_23
REMARK    7  A    between atoms: C_23  and  C_25
REMARK                            x       y       z     vdW  Elec       q    Type
REMARK                         _______ _______ _______ _____ _____    ______ ____
ROOT
ATOM      1  O   UNL     1      36.425 -23.516 -15.617  0.00  0.00    -0.476 OA
ENDROOT
BRANCH   1   3
ATOM      2  N   UNL     1      34.884 -23.866 -12.317  0.00  0.00    -0.239 NA
ATOM      3  C   UNL     1      35.461 -23.686 -14.658  0.00  0.00    +0.158 C 
ATOM      4  C   UNL     1      33.167 -24.017 -14.013  0.00  0.00    +0.039 C 
ATOM      5  C   UNL     1      34.124 -23.847 -15.007  0.00  0.00    +0.042 C 
ATOM      6  C   UNL     1      35.786 -23.702 -13.312  0.00  0.00    +0.136 C 
ATOM      7  C   UNL     1      33.595 -24.019 -12.695  0.00  0.00    +0.101 C 
BRANCH   4  11
ATOM      8  N   UNL     1      31.120 -25.237 -13.908  0.00  0.00    -0.264 NA
ATOM      9  N   UNL     1      27.859 -24.373 -15.444  0.00  0.00    -0.150 NA
ATOM     10  N   UNL     1      27.720 -23.156 -16.243  0.00  0.00    -0.147 NA
ATOM     11  C   UNL     1      31.729 -24.193 -14.353  0.00  0.00    +0.078 C 
ATOM     12  C   UNL     1      29.853 -23.294 -15.495  0.00  0.00    +0.040 C 
ATOM     13  C   UNL     1      29.096 -24.429 -15.027  0.00  0.00    +0.107 C 
ATOM     14  C   UNL     1      29.706 -25.491 -14.190  0.00  0.00    +0.173 C 
ATOM     15  C   UNL     1      31.133 -23.127 -15.206  0.00  0.00    +0.022 C 
ATOM     16  C   UNL     1      28.876 -22.556 -16.260  0.00  0.00    +0.123 C 
ENDBRANCH   4  11
ENDBRANCH   1   3
BRANCH   1  17
ATOM     17  C   UNL     1      37.172 -22.308 -15.567  0.00  0.00    +0.184 C 
BRANCH  17  18
ATOM     18  C   UNL     1      36.668 -21.322 -16.629  0.00  0.00    -0.017 C 
BRANCH  18  19
ATOM     19  N   UNL     1      37.628 -20.219 -16.724  0.00  0.00    +0.384 N 
ATOM     20  H   UNL     1      38.450 -20.528 -17.243  0.00  0.00    -0.089 HD
ATOM     21  H   UNL     1      37.907 -19.929 -15.786  0.00  0.00    -0.089 HD
ATOM     22  H   UNL     1      37.196 -19.433 -17.209  0.00  0.00    -0.089 HD
ENDBRANCH  18  19
BRANCH  18  23
ATOM     23  C   UNL     1      36.499 -21.968 -18.026  0.00  0.00    +0.010 C 
BRANCH  23  25
ATOM     24  N   UNL     1      33.509 -20.738 -19.902  0.00  0.00    -0.244 NA
ATOM     25  C   UNL     1      35.598 -21.239 -18.937  0.00  0.00    -0.004 C 
ATOM     26  C   UNL     1      35.765 -20.263 -19.837  0.00  0.00    +0.011 C 
ATOM     27  C   UNL     1      34.487 -19.945 -20.439  0.00  0.00    +0.080 C 
ATOM     28  C   UNL     1      34.150 -21.475 -19.045  0.00  0.00    +0.094 C 
ATOM     29  C   UNL     1      36.975 -19.577 -20.216  0.00  0.00    -0.020 C 
ATOM     30  C   UNL     1      34.386 -18.995 -21.377  0.00  0.00    +0.015 C 
ATOM     31  C   UNL     1      35.604 -18.221 -21.841  0.00  0.00    -0.020 C 
ATOM     32  C   UNL     1      36.899 -18.618 -21.157  0.00  0.00    +0.052 C 
ENDBRANCH  23  25
ENDBRANCH  18  23
ENDBRANCH  17  18
ENDBRANCH   1  17
TORSDOF 7
ENDMDL
MODEL 7
REMARK VINA RESULT:     -11.5      1.984      3.705
REMARK  Name = 46937052
REMARK  7 active torsions:
REMARK  status: ('A' for Active; 'I' for Inactive)
REMARK    1  A    between atoms: O_1  and  C_3
REMARK    2  A    between atoms: O_1  and  C_17
REMARK    3  A    between atoms: C_4  and  C_11
REMARK    4  A    between atoms: C_17  and  C_18
REMARK    5  A    between atoms: C_18  and  N_19
REMARK    6  A    between atoms: C_18  and  C_23
REMARK    7  A    between atoms: C_23  and  C_25
REMARK                            x       y       z     vdW  Elec       q    Type
REMARK                         _______ _______ _______ _____ _____    ______ ____
ROOT
ATOM      1  O   UNL     1      33.014 -22.423 -18.320  0.00  0.00    -0.476 OA
ENDROOT
BRANCH   1   3
ATOM      2  N   UNL     1      36.514 -21.415 -18.668  0.00  0.00    -0.239 NA
ATOM      3  C   UNL     1      34.120 -21.738 -18.754  0.00  0.00    +0.158 C 
ATOM      4  C   UNL     1      35.146 -20.032 -20.103  0.00  0.00    +0.039 C 
ATOM      5  C   UNL     1      34.007 -20.708 -19.680  0.00  0.00    +0.042 C 
ATOM      6  C   UNL     1      35.384 -22.050 -18.283  0.00  0.00    +0.136 C 
ATOM      7  C   UNL     1      36.365 -20.420 -19.571  0.00  0.00    +0.101 C 
BRANCH   4  11
ATOM      8  N   UNL     1      35.478 -17.758 -20.742  0.00  0.00    -0.264 NA
ATOM      9  N   UNL     1      34.689 -16.155 -23.990  0.00  0.00    -0.150 NA
ATOM     10  N   UNL     1      34.084 -16.935 -25.069  0.00  0.00    -0.147 NA
ATOM     11  C   UNL     1      35.059 -18.924 -21.093  0.00  0.00    +0.078 C 
ATOM     12  C   UNL     1      34.402 -18.290 -23.283  0.00  0.00    +0.040 C 
ATOM     13  C   UNL     1      34.860 -16.958 -22.974  0.00  0.00    +0.107 C 
ATOM     14  C   UNL     1      35.433 -16.610 -21.651  0.00  0.00    +0.173 C 
ATOM     15  C   UNL     1      34.468 -19.284 -22.412  0.00  0.00    +0.022 C 
ATOM     16  C   UNL     1      33.927 -18.154 -24.640  0.00  0.00    +0.123 C 
ENDBRANCH   4  11
ENDBRANCH   1   3
BRANCH   1  17
ATOM     17  C   UNL     1      33.235 -23.472 -17.387  0.00  0.00    +0.184 C 
BRANCH  17  18
ATOM     18  C   UNL     1      32.854 -23.019 -15.972  0.00  0.00    -0.017 C 
BRANCH  18  19
ATOM     19  N   UNL     1      31.395 -23.071 -15.850  0.00  0.00    +0.384 N 
ATOM     20  H   UNL     1      31.042 -22.148 -15.597  0.00  0.00    -0.089 HD
ATOM     21  H   UNL     1      31.138 -23.744 -15.128  0.00  0.00    -0.089 HD
ATOM     22  H   UNL     1      30.990 -23.357 -16.741  0.00  0.00    -0.089 HD
ENDBRANCH  18  19
BRANCH  18  23
ATOM     23  C   UNL     1      33.486 -23.896 -14.862  0.00  0.00    +0.010 C 
BRANCH  23  25
ATOM     24  N   UNL     1      36.957 -22.532 -14.592  0.00  0.00    -0.244 NA
ATOM     25  C   UNL     1      34.947 -23.754 -14.722  0.00  0.00    -0.004 C 
ATOM     26  C   UNL     1      35.961 -24.613 -14.563  0.00  0.00    +0.011 C 
ATOM     27  C   UNL     1      37.204 -23.874 -14.482  0.00  0.00    +0.080 C 
ATOM     28  C   UNL     1      35.666 -22.470 -14.729  0.00  0.00    +0.094 C 
ATOM     29  C   UNL     1      35.925 -26.051 -14.475  0.00  0.00    -0.020 C 
ATOM     30  C   UNL     1      38.371 -24.509 -14.322  0.00  0.00    +0.015 C 
ATOM     31  C   UNL     1      38.433 -26.020 -14.220  0.00  0.00    -0.020 C 
ATOM     32  C   UNL     1      37.085 -26.712 -14.314  0.00  0.00    +0.052 C 
ENDBRANCH  23  25
ENDBRANCH  18  23
ENDBRANCH  17  18
ENDBRANCH   1  17
TORSDOF 7
ENDMDL
MODEL 8
REMARK VINA RESULT:     -11.5      4.117      7.078
REMARK  Name = 46937052
REMARK  7 active torsions:
REMARK  status: ('A' for Active; 'I' for Inactive)
REMARK    1  A    between atoms: O_1  and  C_3
REMARK    2  A    between atoms: O_1  and  C_17
REMARK    3  A    between atoms: C_4  and  C_11
REMARK    4  A    between atoms: C_17  and  C_18
REMARK    5  A    between atoms: C_18  and  N_19
REMARK    6  A    between atoms: C_18  and  C_23
REMARK    7  A    between atoms: C_23  and  C_25
REMARK                            x       y       z     vdW  Elec       q    Type
REMARK                         _______ _______ _______ _____ _____    ______ ____
ROOT
ATOM      1  O   UNL     1      35.722 -17.172 -22.850  0.00  0.00    -0.476 OA
ENDROOT
BRANCH   1   3
ATOM      2  N   UNL     1      33.821 -15.616 -25.561  0.00  0.00    -0.239 NA
ATOM      3  C   UNL     1      34.945 -16.264 -23.521  0.00  0.00    +0.158 C 
ATOM      4  C   UNL     1      33.705 -14.205 -23.602  0.00  0.00    +0.039 C 
ATOM      5  C   UNL     1      34.493 -15.107 -22.896  0.00  0.00    +0.042 C 
ATOM      6  C   UNL     1      34.584 -16.470 -24.842  0.00  0.00    +0.136 C 
ATOM      7  C   UNL     1      33.400 -14.503 -24.920  0.00  0.00    +0.101 C 
BRANCH   4  11
ATOM      8  N   UNL     1      32.375 -13.063 -21.983  0.00  0.00    -0.264 NA
ATOM      9  N   UNL     1      32.050  -9.408 -21.456  0.00  0.00    -0.150 NA
ATOM     10  N   UNL     1      32.783  -8.473 -22.308  0.00  0.00    -0.147 NA
ATOM     11  C   UNL     1      33.206 -12.957 -22.963  0.00  0.00    +0.078 C 
ATOM     12  C   UNL     1      33.268 -10.585 -22.963  0.00  0.00    +0.040 C 
ATOM     13  C   UNL     1      32.347 -10.616 -21.854  0.00  0.00    +0.107 C 
ATOM     14  C   UNL     1      31.834 -11.890 -21.293  0.00  0.00    +0.173 C 
ATOM     15  C   UNL     1      33.717 -11.685 -23.546  0.00  0.00    +0.022 C 
ATOM     16  C   UNL     1      33.471  -9.169 -23.166  0.00  0.00    +0.123 C 
ENDBRANCH   4  11
ENDBRANCH   1   3
BRANCH   1  17
ATOM     17  C   UNL     1      35.291 -17.547 -21.548  0.00  0.00    +0.184 C 
BRANCH  17  18
ATOM     18  C   UNL     1      34.802 -19.000 -21.544  0.00  0.00    -0.017 C 
BRANCH  18  19
ATOM     19  N   UNL     1      34.975 -19.548 -22.892  0.00  0.00    +0.384 N 
ATOM     20  H   UNL     1      34.103 -19.453 -23.412  0.00  0.00    -0.089 HD
ATOM     21  H   UNL     1      35.228 -20.534 -22.829  0.00  0.00    -0.089 HD
ATOM     22  H   UNL     1      35.715 -19.037 -23.374  0.00  0.00    -0.089 HD
ENDBRANCH  18  19
BRANCH  18  23
ATOM     23  C   UNL     1      35.562 -19.894 -20.533  0.00  0.00    +0.010 C 
BRANCH  23  25
ATOM     24  N   UNL     1      32.659 -21.726 -19.052  0.00  0.00    -0.244 NA
ATOM     25  C   UNL     1      34.698 -20.726 -19.675  0.00  0.00    -0.004 C 
ATOM     26  C   UNL     1      34.894 -21.440 -18.560  0.00  0.00    +0.011 C 
ATOM     27  C   UNL     1      33.646 -22.061 -18.166  0.00  0.00    +0.080 C 
ATOM     28  C   UNL     1      33.265 -20.964 -19.912  0.00  0.00    +0.094 C 
ATOM     29  C   UNL     1      36.106 -21.624 -17.803  0.00  0.00    -0.020 C 
ATOM     30  C   UNL     1      33.577 -22.832 -17.075  0.00  0.00    +0.015 C 
ATOM     31  C   UNL     1      34.800 -23.083 -16.214  0.00  0.00    -0.020 C 
ATOM     32  C   UNL     1      36.063 -22.396 -16.702  0.00  0.00    +0.052 C 
ENDBRANCH  23  25
ENDBRANCH  18  23
ENDBRANCH  17  18
ENDBRANCH   1  17
TORSDOF 7
ENDMDL
MODEL 9
REMARK VINA RESULT:     -11.4      2.044      9.671
REMARK  Name = 46937052
REMARK  7 active torsions:
REMARK  status: ('A' for Active; 'I' for Inactive)
REMARK    1  A    between atoms: O_1  and  C_3
REMARK    2  A    between atoms: O_1  and  C_17
REMARK    3  A    between atoms: C_4  and  C_11
REMARK    4  A    between atoms: C_17  and  C_18
REMARK    5  A    between atoms: C_18  and  N_19
REMARK    6  A    between atoms: C_18  and  C_23
REMARK    7  A    between atoms: C_23  and  C_25
REMARK                            x       y       z     vdW  Elec       q    Type
REMARK                         _______ _______ _______ _____ _____    ______ ____
ROOT
ATOM      1  O   UNL     1      32.989 -22.309 -18.559  0.00  0.00    -0.476 OA
ENDROOT
BRANCH   1   3
ATOM      2  N   UNL     1      31.760 -23.304 -15.260  0.00  0.00    -0.239 NA
ATOM      3  C   UNL     1      32.999 -22.726 -17.254  0.00  0.00    +0.158 C 
ATOM      4  C   UNL     1      34.175 -23.418 -15.272  0.00  0.00    +0.039 C 
ATOM      5  C   UNL     1      34.195 -22.994 -16.597  0.00  0.00    +0.042 C 
ATOM      6  C   UNL     1      31.820 -22.895 -16.547  0.00  0.00    +0.136 C 
ATOM      7  C   UNL     1      32.942 -23.555 -14.654  0.00  0.00    +0.101 C 
BRANCH   4  11
ATOM      8  N   UNL     1      36.255 -24.565 -15.054  0.00  0.00    -0.264 NA
ATOM      9  N   UNL     1      38.748 -24.285 -12.325  0.00  0.00    -0.150 NA
ATOM     10  N   UNL     1      38.503 -23.392 -11.192  0.00  0.00    -0.147 NA
ATOM     11  C   UNL     1      35.437 -23.712 -14.541  0.00  0.00    +0.078 C 
ATOM     12  C   UNL     1      36.749 -23.254 -12.617  0.00  0.00    +0.040 C 
ATOM     13  C   UNL     1      37.723 -24.187 -13.129  0.00  0.00    +0.107 C 
ATOM     14  C   UNL     1      37.521 -24.915 -14.406  0.00  0.00    +0.173 C 
ATOM     15  C   UNL     1      35.620 -22.986 -13.253  0.00  0.00    +0.022 C 
ATOM     16  C   UNL     1      37.351 -22.815 -11.380  0.00  0.00    +0.123 C 
ENDBRANCH   4  11
ENDBRANCH   1   3
BRANCH   1  17
ATOM     17  C   UNL     1      34.249 -22.031 -19.154  0.00  0.00    +0.184 C 
BRANCH  17  18
ATOM     18  C   UNL     1      34.127 -20.878 -20.158  0.00  0.00    -0.017 C 
BRANCH  18  19
ATOM     19  N   UNL     1      33.022 -20.015 -19.733  0.00  0.00    +0.384 N 
ATOM     20  H   UNL     1      32.492 -20.479 -18.995  0.00  0.00    -0.089 HD
ATOM     21  H   UNL     1      32.408 -19.832 -20.527  0.00  0.00    -0.089 HD
ATOM     22  H   UNL     1      33.395 -19.134 -19.381  0.00  0.00    -0.089 HD
ENDBRANCH  18  19
BRANCH  18  23
ATOM     23  C   UNL     1      35.418 -20.030 -20.270  0.00  0.00    +0.010 C 
BRANCH  23  25
ATOM     24  N   UNL     1      35.331 -16.411 -21.201  0.00  0.00    -0.244 NA
ATOM     25  C   UNL     1      35.257 -18.756 -20.993  0.00  0.00    -0.004 C 
ATOM     26  C   UNL     1      34.872 -18.424 -22.231  0.00  0.00    +0.011 C 
ATOM     27  C   UNL     1      34.913 -16.983 -22.372  0.00  0.00    +0.080 C 
ATOM     28  C   UNL     1      35.526 -17.429 -20.418  0.00  0.00    +0.094 C 
ATOM     29  C   UNL     1      34.467 -19.282 -23.315  0.00  0.00    -0.020 C 
ATOM     30  C   UNL     1      34.571 -16.396 -23.526  0.00  0.00    +0.015 C 
ATOM     31  C   UNL     1      34.130 -17.217 -24.722  0.00  0.00    -0.020 C 
ATOM     32  C   UNL     1      34.119 -18.716 -24.485  0.00  0.00    +0.052 C 
ENDBRANCH  23  25
ENDBRANCH  18  23
ENDBRANCH  17  18
ENDBRANCH   1  17
TORSDOF 7
ENDMDL
