MODEL 1
REMARK VINA RESULT:     -11.8      0.000      0.000
REMARK  Name = 52913524
REMARK  9 active torsions:
REMARK  status: ('A' for Active; 'I' for Inactive)
REMARK    1  A    between atoms: C_1  and  C_10
REMARK    2  A    between atoms: C_4  and  C_24
REMARK    3  A    between atoms: C_5  and  C_22
REMARK    4  A    between atoms: C_8  and  O_13
REMARK    5  A    between atoms: C_9  and  O_15
REMARK    6  A    between atoms: C_11  and  O_17
REMARK    7  A    between atoms: C_12  and  C_19
REMARK    8  A    between atoms: C_19  and  O_20
REMARK    9  A    between atoms: C_24  and  C_27
REMARK                            x       y       z     vdW  Elec       q    Type
REMARK                         _______ _______ _______ _____ _____    ______ ____
ROOT
ATOM      1  C   UNL     1      34.048 -23.564 -14.350  0.00  0.00    +0.007 C 
ATOM      2  C   UNL     1      34.090 -23.541 -15.744  0.00  0.00    -0.006 C 
ATOM      3  C   UNL     1      32.866 -23.245 -13.681  0.00  0.00    -0.002 C 
ATOM      4  C   UNL     1      32.949 -23.197 -16.469  0.00  0.00    -0.022 C 
ATOM      5  C   UNL     1      31.767 -22.877 -15.800  0.00  0.00    -0.026 C 
ATOM      6  C   UNL     1      31.725 -22.901 -14.407  0.00  0.00    -0.005 C 
ENDROOT
BRANCH   1  10
ATOM      7  O   UNL     1      35.928 -25.020 -14.247  0.00  0.00    -0.347 OA
ATOM      8  C   UNL     1      34.951 -24.332 -12.114  0.00  0.00    +0.171 C 
ATOM      9  C   UNL     1      36.192 -24.860 -11.387  0.00  0.00    +0.169 C 
ATOM     10  C   UNL     1      35.288 -23.940 -13.561  0.00  0.00    +0.167 C 
ATOM     11  C   UNL     1      36.921 -25.911 -12.222  0.00  0.00    +0.169 C 
ATOM     12  C   UNL     1      37.166 -25.402 -13.644  0.00  0.00    +0.174 C 
BRANCH   8  13
ATOM     13  O   UNL     1      34.465 -23.180 -11.428  0.00  0.00    -0.379 OA
ATOM     14  H   UNL     1      35.165 -22.821 -10.861  0.00  0.00    +0.211 HD
ENDBRANCH   8  13
BRANCH   9  15
ATOM     15  O   UNL     1      35.797 -25.469 -10.157  0.00  0.00    -0.379 OA
ATOM     16  H   UNL     1      36.219 -26.339 -10.077  0.00  0.00    +0.211 HD
ENDBRANCH   9  15
BRANCH  11  17
ATOM     17  O   UNL     1      38.173 -26.213 -11.611  0.00  0.00    -0.379 OA
ATOM     18  H   UNL     1      38.232 -27.169 -11.452  0.00  0.00    +0.211 HD
ENDBRANCH  11  17
BRANCH  12  19
ATOM     19  C   UNL     1      37.793 -26.475 -14.529  0.00  0.00    +0.169 C 
BRANCH  19  20
ATOM     20  O   UNL     1      36.812 -26.940 -15.437  0.00  0.00    -0.379 OA
ATOM     21  H   UNL     1      37.096 -27.788 -15.813  0.00  0.00    +0.211 HD
ENDBRANCH  19  20
ENDBRANCH  12  19
ENDBRANCH   1  10
BRANCH   5  22
ATOM     22  C   UNL     1      30.534 -22.504 -16.556  0.00  0.00    +0.026 C 
ATOM     23  C   UNL     1      29.260 -22.829 -15.781  0.00  0.00    +0.005 C 
ENDBRANCH   5  22
BRANCH   4  24
ATOM     24  C   UNL     1      33.017 -23.177 -17.961  0.00  0.00    +0.052 C 
BRANCH  24  27
ATOM     25  O   UNL     1      34.094 -19.477 -20.951  0.00  0.00    -0.468 OA
ATOM     26  O   UNL     1      36.805 -19.462 -19.969  0.00  0.00    -0.468 OA
ATOM     27  C   UNL     1      34.018 -22.185 -18.516  0.00  0.00    -0.015 C 
ATOM     28  C   UNL     1      33.618 -21.258 -19.478  0.00  0.00    +0.036 C 
ATOM     29  C   UNL     1      35.340 -22.203 -18.069  0.00  0.00    -0.001 C 
ATOM     30  C   UNL     1      34.543 -20.350 -19.993  0.00  0.00    +0.172 C 
ATOM     31  C   UNL     1      35.858 -20.350 -19.526  0.00  0.00    +0.172 C 
ATOM     32  C   UNL     1      36.262 -21.286 -18.574  0.00  0.00    +0.040 C 
ATOM     33  C   UNL     1      35.174 -18.846 -21.644  0.00  0.00    +0.253 C 
ATOM     34  C   UNL     1      36.216 -18.356 -20.658  0.00  0.00    +0.253 C 
ENDBRANCH  24  27
ENDBRANCH   4  24
TORSDOF 9
ENDMDL
MODEL 2
REMARK VINA RESULT:     -11.7      1.245      2.325
REMARK  Name = 52913524
REMARK  9 active torsions:
REMARK  status: ('A' for Active; 'I' for Inactive)
REMARK    1  A    between atoms: C_1  and  C_10
REMARK    2  A    between atoms: C_4  and  C_24
REMARK    3  A    between atoms: C_5  and  C_22
REMARK    4  A    between atoms: C_8  and  O_13
REMARK    5  A    between atoms: C_9  and  O_15
REMARK    6  A    between atoms: C_11  and  O_17
REMARK    7  A    between atoms: C_12  and  C_19
REMARK    8  A    between atoms: C_19  and  O_20
REMARK    9  A    between atoms: C_24  and  C_27
REMARK                            x       y       z     vdW  Elec       q    Type
REMARK                         _______ _______ _______ _____ _____    ______ ____
ROOT
ATOM      1  C   UNL     1      34.166 -23.950 -14.308  0.00  0.00    +0.007 C 
ATOM      2  C   UNL     1      34.077 -23.810 -15.693  0.00  0.00    -0.006 C 
ATOM      3  C   UNL     1      33.080 -23.611 -13.501  0.00  0.00    -0.002 C 
ATOM      4  C   UNL     1      32.902 -23.330 -16.271  0.00  0.00    -0.022 C 
ATOM      5  C   UNL     1      31.816 -22.990 -15.463  0.00  0.00    -0.026 C 
ATOM      6  C   UNL     1      31.905 -23.131 -14.079  0.00  0.00    -0.005 C 
ENDROOT
BRANCH   1  10
ATOM      7  O   UNL     1      36.162 -23.351 -13.158  0.00  0.00    -0.347 OA
ATOM      8  C   UNL     1      36.302 -25.252 -14.687  0.00  0.00    +0.171 C 
ATOM      9  C   UNL     1      37.655 -25.631 -14.078  0.00  0.00    +0.169 C 
ATOM     10  C   UNL     1      35.443 -24.473 -13.680  0.00  0.00    +0.167 C 
ATOM     11  C   UNL     1      38.319 -24.428 -13.409  0.00  0.00    +0.169 C 
ATOM     12  C   UNL     1      37.347 -23.730 -12.456  0.00  0.00    +0.174 C 
BRANCH   8  13
ATOM     13  O   UNL     1      35.608 -26.444 -15.055  0.00  0.00    -0.379 OA
ATOM     14  H   UNL     1      35.266 -26.354 -15.958  0.00  0.00    +0.211 HD
ENDBRANCH   8  13
BRANCH   9  15
ATOM     15  O   UNL     1      38.526 -26.100 -15.108  0.00  0.00    -0.379 OA
ATOM     16  H   UNL     1      39.417 -25.744 -14.965  0.00  0.00    +0.211 HD
ENDBRANCH   9  15
BRANCH  11  17
ATOM     17  O   UNL     1      39.460 -24.868 -12.676  0.00  0.00    -0.379 OA
ATOM     18  H   UNL     1      39.530 -24.360 -11.851  0.00  0.00    +0.211 HD
ENDBRANCH  11  17
BRANCH  12  19
ATOM     19  C   UNL     1      37.951 -22.461 -11.861  0.00  0.00    +0.169 C 
BRANCH  19  20
ATOM     20  O   UNL     1      38.993 -22.831 -10.977  0.00  0.00    -0.379 OA
ATOM     21  H   UNL     1      39.769 -22.271 -11.140  0.00  0.00    +0.211 HD
ENDBRANCH  19  20
ENDBRANCH  12  19
ENDBRANCH   1  10
BRANCH   5  22
ATOM     22  C   UNL     1      30.548 -22.473 -16.059  0.00  0.00    +0.026 C 
ATOM     23  C   UNL     1      29.316 -22.929 -15.283  0.00  0.00    +0.005 C 
ENDBRANCH   5  22
BRANCH   4  24
ATOM     24  C   UNL     1      32.830 -23.187 -17.755  0.00  0.00    +0.052 C 
BRANCH  24  27
ATOM     25  O   UNL     1      34.057 -19.614 -20.840  0.00  0.00    -0.468 OA
ATOM     26  O   UNL     1      36.762 -19.672 -19.844  0.00  0.00    -0.468 OA
ATOM     27  C   UNL     1      33.869 -22.248 -18.332  0.00  0.00    -0.015 C 
ATOM     28  C   UNL     1      33.508 -21.334 -19.322  0.00  0.00    +0.036 C 
ATOM     29  C   UNL     1      35.188 -22.303 -17.877  0.00  0.00    -0.001 C 
ATOM     30  C   UNL     1      34.469 -20.476 -19.856  0.00  0.00    +0.172 C 
ATOM     31  C   UNL     1      35.781 -20.511 -19.382  0.00  0.00    +0.172 C 
ATOM     32  C   UNL     1      36.145 -21.435 -18.402  0.00  0.00    +0.040 C 
ATOM     33  C   UNL     1      35.163 -19.042 -21.545  0.00  0.00    +0.253 C 
ATOM     34  C   UNL     1      36.218 -18.565 -20.567  0.00  0.00    +0.253 C 
ENDBRANCH  24  27
ENDBRANCH   4  24
TORSDOF 9
ENDMDL
MODEL 3
REMARK VINA RESULT:     -11.6      0.693      1.363
REMARK  Name = 52913524
REMARK  9 active torsions:
REMARK  status: ('A' for Active; 'I' for Inactive)
REMARK    1  A    between atoms: C_1  and  C_10
REMARK    2  A    between atoms: C_4  and  C_24
REMARK    3  A    between atoms: C_5  and  C_22
REMARK    4  A    between atoms: C_8  and  O_13
REMARK    5  A    between atoms: C_9  and  O_15
REMARK    6  A    between atoms: C_11  and  O_17
REMARK    7  A    between atoms: C_12  and  C_19
REMARK    8  A    between atoms: C_19  and  O_20
REMARK    9  A    between atoms: C_24  and  C_27
REMARK                            x       y       z     vdW  Elec       q    Type
REMARK                         _______ _______ _______ _____ _____    ______ ____
ROOT
ATOM      1  C   UNL     1      34.166 -23.431 -14.337  0.00  0.00    +0.007 C 
ATOM      2  C   UNL     1      34.257 -23.584 -15.720  0.00  0.00    -0.006 C 
ATOM      3  C   UNL     1      32.966 -23.020 -13.757  0.00  0.00    -0.002 C 
ATOM      4  C   UNL     1      33.146 -23.324 -16.524  0.00  0.00    -0.022 C 
ATOM      5  C   UNL     1      31.946 -22.912 -15.944  0.00  0.00    -0.026 C 
ATOM      6  C   UNL     1      31.856 -22.760 -14.561  0.00  0.00    -0.005 C 
ENDROOT
BRANCH   1  10
ATOM      7  O   UNL     1      36.208 -24.642 -14.163  0.00  0.00    -0.347 OA
ATOM      8  C   UNL     1      34.969 -24.270 -12.089  0.00  0.00    +0.171 C 
ATOM      9  C   UNL     1      36.202 -24.698 -11.287  0.00  0.00    +0.169 C 
ATOM     10  C   UNL     1      35.373 -23.714 -13.463  0.00  0.00    +0.167 C 
ATOM     11  C   UNL     1      37.134 -25.573 -12.125  0.00  0.00    +0.169 C 
ATOM     12  C   UNL     1      37.429 -24.916 -13.475  0.00  0.00    +0.174 C 
BRANCH   8  13
ATOM     13  O   UNL     1      34.277 -23.251 -11.368  0.00  0.00    -0.379 OA
ATOM     14  H   UNL     1      33.500 -23.634 -10.932  0.00  0.00    +0.211 HD
ENDBRANCH   8  13
BRANCH   9  15
ATOM     15  O   UNL     1      35.789 -25.456 -10.150  0.00  0.00    -0.379 OA
ATOM     16  H   UNL     1      36.322 -25.202  -9.380  0.00  0.00    +0.211 HD
ENDBRANCH   9  15
BRANCH  11  17
ATOM     17  O   UNL     1      38.357 -25.767 -11.420  0.00  0.00    -0.379 OA
ATOM     18  H   UNL     1      38.782 -26.584 -11.728  0.00  0.00    +0.211 HD
ENDBRANCH  11  17
BRANCH  12  19
ATOM     19  C   UNL     1      38.267 -25.820 -14.373  0.00  0.00    +0.169 C 
BRANCH  19  20
ATOM     20  O   UNL     1      37.972 -27.168 -14.056  0.00  0.00    -0.379 OA
ATOM     21  H   UNL     1      37.323 -27.196 -13.335  0.00  0.00    +0.211 HD
ENDBRANCH  19  20
ENDBRANCH  12  19
ENDBRANCH   1  10
BRANCH   5  22
ATOM     22  C   UNL     1      30.745 -22.628 -16.784  0.00  0.00    +0.026 C 
ATOM     23  C   UNL     1      29.442 -22.822 -16.016  0.00  0.00    +0.005 C 
ENDBRANCH   5  22
BRANCH   4  24
ATOM     24  C   UNL     1      33.267 -23.494 -18.003  0.00  0.00    +0.052 C 
BRANCH  24  27
ATOM     25  O   UNL     1      36.749 -20.568 -19.764  0.00  0.00    -0.468 OA
ATOM     26  O   UNL     1      34.736 -18.772 -20.782  0.00  0.00    -0.468 OA
ATOM     27  C   UNL     1      33.678 -22.232 -18.734  0.00  0.00    -0.015 C 
ATOM     28  C   UNL     1      35.029 -21.958 -18.941  0.00  0.00    +0.036 C 
ATOM     29  C   UNL     1      32.704 -21.343 -19.192  0.00  0.00    -0.001 C 
ATOM     30  C   UNL     1      35.405 -20.792 -19.608  0.00  0.00    +0.172 C 
ATOM     31  C   UNL     1      34.431 -19.916 -20.091  0.00  0.00    +0.172 C 
ATOM     32  C   UNL     1      33.080 -20.184 -19.871  0.00  0.00    +0.040 C 
ATOM     33  C   UNL     1      37.024 -19.214 -20.136  0.00  0.00    +0.253 C 
ATOM     34  C   UNL     1      36.089 -18.774 -21.245  0.00  0.00    +0.253 C 
ENDBRANCH  24  27
ENDBRANCH   4  24
TORSDOF 9
ENDMDL
MODEL 4
REMARK VINA RESULT:     -10.8      3.334      7.864
REMARK  Name = 52913524
REMARK  9 active torsions:
REMARK  status: ('A' for Active; 'I' for Inactive)
REMARK    1  A    between atoms: C_1  and  C_10
REMARK    2  A    between atoms: C_4  and  C_24
REMARK    3  A    between atoms: C_5  and  C_22
REMARK    4  A    between atoms: C_8  and  O_13
REMARK    5  A    between atoms: C_9  and  O_15
REMARK    6  A    between atoms: C_11  and  O_17
REMARK    7  A    between atoms: C_12  and  C_19
REMARK    8  A    between atoms: C_19  and  O_20
REMARK    9  A    between atoms: C_24  and  C_27
REMARK                            x       y       z     vdW  Elec       q    Type
REMARK                         _______ _______ _______ _____ _____    ______ ____
ROOT
ATOM      1  C   UNL     1      35.637 -22.047 -17.389  0.00  0.00    +0.007 C 
ATOM      2  C   UNL     1      34.802 -22.894 -16.660  0.00  0.00    -0.006 C 
ATOM      3  C   UNL     1      36.845 -21.617 -16.841  0.00  0.00    -0.002 C 
ATOM      4  C   UNL     1      35.176 -23.310 -15.382  0.00  0.00    -0.022 C 
ATOM      5  C   UNL     1      36.384 -22.879 -14.834  0.00  0.00    -0.026 C 
ATOM      6  C   UNL     1      37.219 -22.032 -15.563  0.00  0.00    -0.005 C 
ENDROOT
BRANCH   1  10
ATOM      7  O   UNL     1      35.999 -20.432 -19.099  0.00  0.00    -0.347 OA
ATOM      8  C   UNL     1      33.727 -21.302 -18.871  0.00  0.00    +0.171 C 
ATOM      9  C   UNL     1      33.369 -20.696 -20.232  0.00  0.00    +0.169 C 
ATOM     10  C   UNL     1      35.232 -21.596 -18.779  0.00  0.00    +0.167 C 
ATOM     11  C   UNL     1      34.308 -19.546 -20.593  0.00  0.00    +0.169 C 
ATOM     12  C   UNL     1      35.770 -19.966 -20.430  0.00  0.00    +0.174 C 
BRANCH   8  13
ATOM     13  O   UNL     1      33.010 -22.524 -18.704  0.00  0.00    -0.379 OA
ATOM     14  H   UNL     1      33.197 -22.892 -17.826  0.00  0.00    +0.211 HD
ENDBRANCH   8  13
BRANCH   9  15
ATOM     15  O   UNL     1      32.037 -20.182 -20.188  0.00  0.00    -0.379 OA
ATOM     16  H   UNL     1      32.061 -19.216 -20.270  0.00  0.00    +0.211 HD
ENDBRANCH   9  15
BRANCH  11  17
ATOM     17  O   UNL     1      34.079 -19.159 -21.946  0.00  0.00    -0.379 OA
ATOM     18  H   UNL     1      34.227 -18.204 -22.037  0.00  0.00    +0.211 HD
ENDBRANCH  11  17
BRANCH  12  19
ATOM     19  C   UNL     1      36.724 -18.801 -20.677  0.00  0.00    +0.169 C 
BRANCH  19  20
ATOM     20  O   UNL     1      36.101 -17.608 -20.240  0.00  0.00    -0.379 OA
ATOM     21  H   UNL     1      36.606 -17.231 -19.502  0.00  0.00    +0.211 HD
ENDBRANCH  19  20
ENDBRANCH  12  19
ENDBRANCH   1  10
BRANCH   5  22
ATOM     22  C   UNL     1      36.804 -23.310 -13.467  0.00  0.00    +0.026 C 
ATOM     23  C   UNL     1      37.841 -24.428 -13.506  0.00  0.00    +0.005 C 
ENDBRANCH   5  22
BRANCH   4  24
ATOM     24  C   UNL     1      34.266 -24.216 -14.620  0.00  0.00    +0.052 C 
BRANCH  24  27
ATOM     25  O   UNL     1      29.920 -23.304 -16.639  0.00  0.00    -0.468 OA
ATOM     26  O   UNL     1      28.944 -22.317 -14.112  0.00  0.00    -0.468 OA
ATOM     27  C   UNL     1      32.845 -23.703 -14.505  0.00  0.00    -0.015 C 
ATOM     28  C   UNL     1      32.001 -23.739 -15.615  0.00  0.00    +0.036 C 
ATOM     29  C   UNL     1      32.385 -23.189 -13.292  0.00  0.00    -0.001 C 
ATOM     30  C   UNL     1      30.695 -23.260 -15.509  0.00  0.00    +0.172 C 
ATOM     31  C   UNL     1      30.226 -22.772 -14.288  0.00  0.00    +0.172 C 
ATOM     32  C   UNL     1      31.075 -22.722 -13.182  0.00  0.00    +0.040 C 
ATOM     33  C   UNL     1      28.752 -22.488 -16.516  0.00  0.00    +0.253 C 
ATOM     34  C   UNL     1      28.083 -22.727 -15.177  0.00  0.00    +0.253 C 
ENDBRANCH  24  27
ENDBRANCH   4  24
TORSDOF 9
ENDMDL
MODEL 5
REMARK VINA RESULT:     -10.7      2.493      5.562
REMARK  Name = 52913524
REMARK  9 active torsions:
REMARK  status: ('A' for Active; 'I' for Inactive)
REMARK    1  A    between atoms: C_1  and  C_10
REMARK    2  A    between atoms: C_4  and  C_24
REMARK    3  A    between atoms: C_5  and  C_22
REMARK    4  A    between atoms: C_8  and  O_13
REMARK    5  A    between atoms: C_9  and  O_15
REMARK    6  A    between atoms: C_11  and  O_17
REMARK    7  A    between atoms: C_12  and  C_19
REMARK    8  A    between atoms: C_19  and  O_20
REMARK    9  A    between atoms: C_24  and  C_27
REMARK                            x       y       z     vdW  Elec       q    Type
REMARK                         _______ _______ _______ _____ _____    ______ ____
ROOT
ATOM      1  C   UNL     1      36.663 -22.638 -15.641  0.00  0.00    +0.007 C 
ATOM      2  C   UNL     1      35.391 -22.923 -16.135  0.00  0.00    -0.006 C 
ATOM      3  C   UNL     1      37.526 -21.817 -16.366  0.00  0.00    -0.002 C 
ATOM      4  C   UNL     1      34.981 -22.387 -17.356  0.00  0.00    -0.022 C 
ATOM      5  C   UNL     1      35.845 -21.565 -18.082  0.00  0.00    -0.026 C 
ATOM      6  C   UNL     1      37.117 -21.280 -17.587  0.00  0.00    -0.005 C 
ENDROOT
BRANCH   1  10
ATOM      7  O   UNL     1      38.116 -24.199 -14.583  0.00  0.00    -0.347 OA
ATOM      8  C   UNL     1      35.937 -23.841 -13.537  0.00  0.00    +0.171 C 
ATOM      9  C   UNL     1      36.433 -24.562 -12.280  0.00  0.00    +0.169 C 
ATOM     10  C   UNL     1      37.108 -23.220 -14.313  0.00  0.00    +0.167 C 
ATOM     11  C   UNL     1      37.604 -25.491 -12.597  0.00  0.00    +0.169 C 
ATOM     12  C   UNL     1      38.681 -24.755 -13.395  0.00  0.00    +0.174 C 
BRANCH   8  13
ATOM     13  O   UNL     1      35.039 -22.801 -13.152  0.00  0.00    -0.379 OA
ATOM     14  H   UNL     1      35.544 -22.002 -12.933  0.00  0.00    +0.211 HD
ENDBRANCH   8  13
BRANCH   9  15
ATOM     15  O   UNL     1      35.375 -25.354 -11.738  0.00  0.00    -0.379 OA
ATOM     16  H   UNL     1      34.720 -24.775 -11.317  0.00  0.00    +0.211 HD
ENDBRANCH   9  15
BRANCH  11  17
ATOM     17  O   UNL     1      38.167 -25.971 -11.379  0.00  0.00    -0.379 OA
ATOM     18  H   UNL     1      39.037 -26.361 -11.558  0.00  0.00    +0.211 HD
ENDBRANCH  11  17
BRANCH  12  19
ATOM     19  C   UNL     1      39.809 -25.690 -13.819  0.00  0.00    +0.169 C 
BRANCH  19  20
ATOM     20  O   UNL     1      40.927 -24.907 -14.192  0.00  0.00    -0.379 OA
ATOM     21  H   UNL     1      40.978 -24.856 -15.160  0.00  0.00    +0.211 HD
ENDBRANCH  19  20
ENDBRANCH  12  19
ENDBRANCH   1  10
BRANCH   5  22
ATOM     22  C   UNL     1      35.429 -20.981 -19.392  0.00  0.00    +0.026 C 
ATOM     23  C   UNL     1      36.454 -19.991 -19.935  0.00  0.00    +0.005 C 
ENDBRANCH   5  22
BRANCH   4  24
ATOM     24  C   UNL     1      33.615 -22.706 -17.866  0.00  0.00    +0.052 C 
BRANCH  24  27
ATOM     25  O   UNL     1      32.456 -24.695 -13.566  0.00  0.00    -0.468 OA
ATOM     26  O   UNL     1      29.779 -23.650 -13.795  0.00  0.00    -0.468 OA
ATOM     27  C   UNL     1      32.600 -22.977 -16.774  0.00  0.00    -0.015 C 
ATOM     28  C   UNL     1      32.973 -23.704 -15.644  0.00  0.00    +0.036 C 
ATOM     29  C   UNL     1      31.294 -22.504 -16.903  0.00  0.00    -0.001 C 
ATOM     30  C   UNL     1      32.035 -23.958 -14.643  0.00  0.00    +0.172 C 
ATOM     31  C   UNL     1      30.735 -23.461 -14.759  0.00  0.00    +0.172 C 
ATOM     32  C   UNL     1      30.360 -22.747 -15.896  0.00  0.00    +0.040 C 
ATOM     33  C   UNL     1      31.357 -25.183 -12.792  0.00  0.00    +0.253 C 
ATOM     34  C   UNL     1      30.349 -24.076 -12.555  0.00  0.00    +0.253 C 
ENDBRANCH  24  27
ENDBRANCH   4  24
TORSDOF 9
ENDMDL
MODEL 6
REMARK VINA RESULT:     -10.5      2.647      7.030
REMARK  Name = 52913524
REMARK  9 active torsions:
REMARK  status: ('A' for Active; 'I' for Inactive)
REMARK    1  A    between atoms: C_1  and  C_10
REMARK    2  A    between atoms: C_4  and  C_24
REMARK    3  A    between atoms: C_5  and  C_22
REMARK    4  A    between atoms: C_8  and  O_13
REMARK    5  A    between atoms: C_9  and  O_15
REMARK    6  A    between atoms: C_11  and  O_17
REMARK    7  A    between atoms: C_12  and  C_19
REMARK    8  A    between atoms: C_19  and  O_20
REMARK    9  A    between atoms: C_24  and  C_27
REMARK                            x       y       z     vdW  Elec       q    Type
REMARK                         _______ _______ _______ _____ _____    ______ ____
ROOT
ATOM      1  C   UNL     1      33.501 -22.845 -17.015  0.00  0.00    +0.007 C 
ATOM      2  C   UNL     1      34.751 -22.658 -16.423  0.00  0.00    -0.006 C 
ATOM      3  C   UNL     1      33.269 -22.392 -18.313  0.00  0.00    -0.002 C 
ATOM      4  C   UNL     1      35.768 -22.017 -17.130  0.00  0.00    -0.022 C 
ATOM      5  C   UNL     1      35.535 -21.563 -18.429  0.00  0.00    -0.026 C 
ATOM      6  C   UNL     1      34.287 -21.751 -19.021  0.00  0.00    -0.005 C 
ENDROOT
BRANCH   1  10
ATOM      7  O   UNL     1      31.168 -22.872 -16.547  0.00  0.00    -0.347 OA
ATOM      8  C   UNL     1      32.661 -23.545 -14.733  0.00  0.00    +0.171 C 
ATOM      9  C   UNL     1      31.461 -24.109 -13.967  0.00  0.00    +0.169 C 
ATOM     10  C   UNL     1      32.396 -23.543 -16.246  0.00  0.00    +0.167 C 
ATOM     11  C   UNL     1      30.155 -23.461 -14.424  0.00  0.00    +0.169 C 
ATOM     12  C   UNL     1      30.033 -23.501 -15.949  0.00  0.00    +0.174 C 
BRANCH   8  13
ATOM     13  O   UNL     1      33.804 -24.358 -14.470  0.00  0.00    -0.379 OA
ATOM     14  H   UNL     1      33.880 -25.042 -15.153  0.00  0.00    +0.211 HD
ENDBRANCH   8  13
BRANCH   9  15
ATOM     15  O   UNL     1      31.621 -23.843 -12.572  0.00  0.00    -0.379 OA
ATOM     16  H   UNL     1      31.663 -24.682 -12.086  0.00  0.00    +0.211 HD
ENDBRANCH   9  15
BRANCH  11  17
ATOM     17  O   UNL     1      29.055 -24.160 -13.847  0.00  0.00    -0.379 OA
ATOM     18  H   UNL     1      29.121 -25.104 -14.066  0.00  0.00    +0.211 HD
ENDBRANCH  11  17
BRANCH  12  19
ATOM     19  C   UNL     1      28.791 -22.762 -16.437  0.00  0.00    +0.169 C 
BRANCH  19  20
ATOM     20  O   UNL     1      27.812 -23.717 -16.799  0.00  0.00    -0.379 OA
ATOM     21  H   UNL     1      27.797 -23.815 -17.764  0.00  0.00    +0.211 HD
ENDBRANCH  19  20
ENDBRANCH  12  19
ENDBRANCH   1  10
BRANCH   5  22
ATOM     22  C   UNL     1      36.609 -20.874 -19.206  0.00  0.00    +0.026 C 
ATOM     23  C   UNL     1      36.046 -19.867 -20.203  0.00  0.00    +0.005 C 
ENDBRANCH   5  22
BRANCH   4  24
ATOM     24  C   UNL     1      37.097 -21.827 -16.476  0.00  0.00    +0.052 C 
BRANCH  24  27
ATOM     25  O   UNL     1      36.028 -23.063 -11.881  0.00  0.00    -0.468 OA
ATOM     26  O   UNL     1      37.947 -25.212 -12.003  0.00  0.00    -0.468 OA
ATOM     27  C   UNL     1      37.318 -22.715 -15.269  0.00  0.00    -0.015 C 
ATOM     28  C   UNL     1      36.570 -22.511 -14.110  0.00  0.00    +0.036 C 
ATOM     29  C   UNL     1      38.275 -23.730 -15.315  0.00  0.00    -0.001 C 
ATOM     30  C   UNL     1      36.780 -23.325 -12.997  0.00  0.00    +0.172 C 
ATOM     31  C   UNL     1      37.717 -24.359 -13.052  0.00  0.00    +0.172 C 
ATOM     32  C   UNL     1      38.476 -24.552 -14.207  0.00  0.00    +0.040 C 
ATOM     33  C   UNL     1      36.557 -23.708 -10.718  0.00  0.00    +0.253 C 
ATOM     34  C   UNL     1      36.902 -25.150 -11.029  0.00  0.00    +0.253 C 
ENDBRANCH  24  27
ENDBRANCH   4  24
TORSDOF 9
ENDMDL
MODEL 7
REMARK VINA RESULT:     -10.3      3.195      7.487
REMARK  Name = 52913524
REMARK  9 active torsions:
REMARK  status: ('A' for Active; 'I' for Inactive)
REMARK    1  A    between atoms: C_1  and  C_10
REMARK    2  A    between atoms: C_4  and  C_24
REMARK    3  A    between atoms: C_5  and  C_22
REMARK    4  A    between atoms: C_8  and  O_13
REMARK    5  A    between atoms: C_9  and  O_15
REMARK    6  A    between atoms: C_11  and  O_17
REMARK    7  A    between atoms: C_12  and  C_19
REMARK    8  A    between atoms: C_19  and  O_20
REMARK    9  A    between atoms: C_24  and  C_27
REMARK                            x       y       z     vdW  Elec       q    Type
REMARK                         _______ _______ _______ _____ _____    ______ ____
ROOT
ATOM      1  C   UNL     1      35.005 -22.776 -16.191  0.00  0.00    +0.007 C 
ATOM      2  C   UNL     1      33.885 -22.973 -15.383  0.00  0.00    -0.006 C 
ATOM      3  C   UNL     1      36.285 -22.916 -15.655  0.00  0.00    -0.002 C 
ATOM      4  C   UNL     1      34.045 -23.308 -14.039  0.00  0.00    -0.022 C 
ATOM      5  C   UNL     1      35.326 -23.448 -13.503  0.00  0.00    -0.026 C 
ATOM      6  C   UNL     1      36.445 -23.252 -14.310  0.00  0.00    -0.005 C 
ENDROOT
BRANCH   1  10
ATOM      7  O   UNL     1      35.866 -21.486 -17.997  0.00  0.00    -0.347 OA
ATOM      8  C   UNL     1      33.445 -21.813 -17.934  0.00  0.00    +0.171 C 
ATOM      9  C   UNL     1      33.349 -21.307 -19.377  0.00  0.00    +0.169 C 
ATOM     10  C   UNL     1      34.831 -22.413 -17.653  0.00  0.00    +0.167 C 
ATOM     11  C   UNL     1      34.551 -20.436 -19.741  0.00  0.00    +0.169 C 
ATOM     12  C   UNL     1      35.861 -21.139 -19.382  0.00  0.00    +0.174 C 
BRANCH   8  13
ATOM     13  O   UNL     1      32.459 -22.824 -17.731  0.00  0.00    -0.379 OA
ATOM     14  H   UNL     1      32.783 -23.468 -17.082  0.00  0.00    +0.211 HD
ENDBRANCH   8  13
BRANCH   9  15
ATOM     15  O   UNL     1      32.169 -20.516 -19.525  0.00  0.00    -0.379 OA
ATOM     16  H   UNL     1      31.437 -21.079 -19.820  0.00  0.00    +0.211 HD
ENDBRANCH   9  15
BRANCH  11  17
ATOM     17  O   UNL     1      34.530 -20.168 -21.141  0.00  0.00    -0.379 OA
ATOM     18  H   UNL     1      33.816 -20.676 -21.557  0.00  0.00    +0.211 HD
ENDBRANCH  11  17
BRANCH  12  19
ATOM     19  C   UNL     1      37.071 -20.245 -19.634  0.00  0.00    +0.169 C 
BRANCH  19  20
ATOM     20  O   UNL     1      36.620 -18.912 -19.790  0.00  0.00    -0.379 OA
ATOM     21  H   UNL     1      37.253 -18.306 -19.373  0.00  0.00    +0.211 HD
ENDBRANCH  19  20
ENDBRANCH  12  19
ENDBRANCH   1  10
BRANCH   5  22
ATOM     22  C   UNL     1      35.522 -23.805 -12.066  0.00  0.00    +0.026 C 
ATOM     23  C   UNL     1      36.716 -23.085 -11.448  0.00  0.00    +0.005 C 
ENDBRANCH   5  22
BRANCH   4  24
ATOM     24  C   UNL     1      32.832 -23.513 -13.193  0.00  0.00    +0.052 C 
BRANCH  24  27
ATOM     25  O   UNL     1      28.968 -21.945 -15.724  0.00  0.00    -0.468 OA
ATOM     26  O   UNL     1      28.154 -24.672 -16.186  0.00  0.00    -0.468 OA
ATOM     27  C   UNL     1      31.574 -23.804 -13.986  0.00  0.00    -0.015 C 
ATOM     28  C   UNL     1      30.829 -22.752 -14.519  0.00  0.00    +0.036 C 
ATOM     29  C   UNL     1      31.158 -25.122 -14.177  0.00  0.00    -0.001 C 
ATOM     30  C   UNL     1      29.668 -23.021 -15.243  0.00  0.00    +0.172 C 
ATOM     31  C   UNL     1      29.267 -24.341 -15.457  0.00  0.00    +0.172 C 
ATOM     32  C   UNL     1      30.004 -25.392 -14.911  0.00  0.00    +0.040 C 
ATOM     33  C   UNL     1      27.647 -22.308 -16.134  0.00  0.00    +0.253 C 
ATOM     34  C   UNL     1      27.686 -23.572 -16.970  0.00  0.00    +0.253 C 
ENDBRANCH  24  27
ENDBRANCH   4  24
TORSDOF 9
ENDMDL
MODEL 8
REMARK VINA RESULT:     -10.3      5.550     10.015
REMARK  Name = 52913524
REMARK  9 active torsions:
REMARK  status: ('A' for Active; 'I' for Inactive)
REMARK    1  A    between atoms: C_1  and  C_10
REMARK    2  A    between atoms: C_4  and  C_24
REMARK    3  A    between atoms: C_5  and  C_22
REMARK    4  A    between atoms: C_8  and  O_13
REMARK    5  A    between atoms: C_9  and  O_15
REMARK    6  A    between atoms: C_11  and  O_17
REMARK    7  A    between atoms: C_12  and  C_19
REMARK    8  A    between atoms: C_19  and  O_20
REMARK    9  A    between atoms: C_24  and  C_27
REMARK                            x       y       z     vdW  Elec       q    Type
REMARK                         _______ _______ _______ _____ _____    ______ ____
ROOT
ATOM      1  C   UNL     1      34.819 -18.074 -22.815  0.00  0.00    +0.007 C 
ATOM      2  C   UNL     1      35.169 -16.770 -22.463  0.00  0.00    -0.006 C 
ATOM      3  C   UNL     1      34.166 -18.319 -24.023  0.00  0.00    -0.002 C 
ATOM      4  C   UNL     1      34.866 -15.711 -23.319  0.00  0.00    -0.022 C 
ATOM      5  C   UNL     1      34.212 -15.957 -24.527  0.00  0.00    -0.026 C 
ATOM      6  C   UNL     1      33.863 -17.260 -24.879  0.00  0.00    -0.005 C 
ENDROOT
BRANCH   1  10
ATOM      7  O   UNL     1      33.963 -19.546 -21.153  0.00  0.00    -0.347 OA
ATOM      8  C   UNL     1      36.303 -18.879 -20.931  0.00  0.00    +0.171 C 
ATOM      9  C   UNL     1      36.512 -19.990 -19.898  0.00  0.00    +0.169 C 
ATOM     10  C   UNL     1      35.150 -19.224 -21.884  0.00  0.00    +0.167 C 
ATOM     11  C   UNL     1      35.192 -20.398 -19.245  0.00  0.00    +0.169 C 
ATOM     12  C   UNL     1      34.127 -20.684 -20.304  0.00  0.00    +0.174 C 
BRANCH   8  13
ATOM     13  O   UNL     1      37.498 -18.724 -21.694  0.00  0.00    -0.379 OA
ATOM     14  H   UNL     1      37.764 -19.583 -22.059  0.00  0.00    +0.211 HD
ENDBRANCH   8  13
BRANCH   9  15
ATOM     15  O   UNL     1      37.388 -19.524 -18.870  0.00  0.00    -0.379 OA
ATOM     16  H   UNL     1      38.308 -19.617 -19.162  0.00  0.00    +0.211 HD
ENDBRANCH   9  15
BRANCH  11  17
ATOM     17  O   UNL     1      35.398 -21.568 -18.458  0.00  0.00    -0.379 OA
ATOM     18  H   UNL     1      35.896 -22.221 -18.975  0.00  0.00    +0.211 HD
ENDBRANCH  11  17
BRANCH  12  19
ATOM     19  C   UNL     1      32.770 -20.985 -19.676  0.00  0.00    +0.169 C 
BRANCH  19  20
ATOM     20  O   UNL     1      32.784 -22.313 -19.188  0.00  0.00    -0.379 OA
ATOM     21  H   UNL     1      33.692 -22.562 -18.953  0.00  0.00    +0.211 HD
ENDBRANCH  19  20
ENDBRANCH  12  19
ENDBRANCH   1  10
BRANCH   5  22
ATOM     22  C   UNL     1      33.877 -14.840 -25.459  0.00  0.00    +0.026 C 
ATOM     23  C   UNL     1      32.515 -14.223 -25.157  0.00  0.00    +0.005 C 
ENDBRANCH   5  22
BRANCH   4  24
ATOM     24  C   UNL     1      35.250 -14.324 -22.921  0.00  0.00    +0.052 C 
BRANCH  24  27
ATOM     25  O   UNL     1      32.421 -10.378 -22.459  0.00  0.00    -0.468 OA
ATOM     26  O   UNL     1      31.118 -11.569 -20.180  0.00  0.00    -0.468 OA
ATOM     27  C   UNL     1      34.156 -13.570 -22.195  0.00  0.00    -0.015 C 
ATOM     28  C   UNL     1      33.757 -12.313 -22.650  0.00  0.00    +0.036 C 
ATOM     29  C   UNL     1      33.552 -14.129 -21.068  0.00  0.00    -0.001 C 
ATOM     30  C   UNL     1      32.754 -11.617 -21.976  0.00  0.00    +0.172 C 
ATOM     31  C   UNL     1      32.131 -12.189 -20.865  0.00  0.00    +0.172 C 
ATOM     32  C   UNL     1      32.540 -13.439 -20.401  0.00  0.00    +0.040 C 
ATOM     33  C   UNL     1      31.655  -9.625 -21.514  0.00  0.00    +0.253 C 
ATOM     34  C   UNL     1      30.555 -10.486 -20.926  0.00  0.00    +0.253 C 
ENDBRANCH  24  27
ENDBRANCH   4  24
TORSDOF 9
ENDMDL
MODEL 9
REMARK VINA RESULT:     -10.3      1.530      2.602
REMARK  Name = 52913524
REMARK  9 active torsions:
REMARK  status: ('A' for Active; 'I' for Inactive)
REMARK    1  A    between atoms: C_1  and  C_10
REMARK    2  A    between atoms: C_4  and  C_24
REMARK    3  A    between atoms: C_5  and  C_22
REMARK    4  A    between atoms: C_8  and  O_13
REMARK    5  A    between atoms: C_9  and  O_15
REMARK    6  A    between atoms: C_11  and  O_17
REMARK    7  A    between atoms: C_12  and  C_19
REMARK    8  A    between atoms: C_19  and  O_20
REMARK    9  A    between atoms: C_24  and  C_27
REMARK                            x       y       z     vdW  Elec       q    Type
REMARK                         _______ _______ _______ _____ _____    ______ ____
ROOT
ATOM      1  C   UNL     1      34.216 -23.533 -14.311  0.00  0.00    +0.007 C 
ATOM      2  C   UNL     1      34.278 -23.683 -15.697  0.00  0.00    -0.006 C 
ATOM      3  C   UNL     1      33.045 -23.073 -13.710  0.00  0.00    -0.002 C 
ATOM      4  C   UNL     1      33.167 -23.371 -16.481  0.00  0.00    -0.022 C 
ATOM      5  C   UNL     1      31.995 -22.910 -15.879  0.00  0.00    -0.026 C 
ATOM      6  C   UNL     1      31.934 -22.761 -14.494  0.00  0.00    -0.005 C 
ENDROOT
BRANCH   1  10
ATOM      7  O   UNL     1      34.944 -24.356 -12.200  0.00  0.00    -0.347 OA
ATOM      8  C   UNL     1      36.348 -22.662 -13.263  0.00  0.00    +0.171 C 
ATOM      9  C   UNL     1      37.470 -22.984 -12.272  0.00  0.00    +0.169 C 
ATOM     10  C   UNL     1      35.423 -23.873 -13.459  0.00  0.00    +0.167 C 
ATOM     11  C   UNL     1      36.921 -23.628 -11.000  0.00  0.00    +0.169 C 
ATOM     12  C   UNL     1      35.995 -24.798 -11.339  0.00  0.00    +0.174 C 
BRANCH   8  13
ATOM     13  O   UNL     1      36.925 -22.319 -14.522  0.00  0.00    -0.379 OA
ATOM     14  H   UNL     1      36.382 -22.684 -15.238  0.00  0.00    +0.211 HD
ENDBRANCH   8  13
BRANCH   9  15
ATOM     15  O   UNL     1      38.137 -21.776 -11.901  0.00  0.00    -0.379 OA
ATOM     16  H   UNL     1      38.867 -21.982 -11.296  0.00  0.00    +0.211 HD
ENDBRANCH   9  15
BRANCH  11  17
ATOM     17  O   UNL     1      38.005 -24.103 -10.206  0.00  0.00    -0.379 OA
ATOM     18  H   UNL     1      38.841 -23.941 -10.671  0.00  0.00    +0.211 HD
ENDBRANCH  11  17
BRANCH  12  19
ATOM     19  C   UNL     1      35.347 -25.387 -10.090  0.00  0.00    +0.169 C 
BRANCH  19  20
ATOM     20  O   UNL     1      35.393 -24.419  -9.059  0.00  0.00    -0.379 OA
ATOM     21  H   UNL     1      35.460 -24.865  -8.200  0.00  0.00    +0.211 HD
ENDBRANCH  19  20
ENDBRANCH  12  19
ENDBRANCH   1  10
BRANCH   5  22
ATOM     22  C   UNL     1      30.794 -22.570 -16.699  0.00  0.00    +0.026 C 
ATOM     23  C   UNL     1      29.491 -22.942 -15.998  0.00  0.00    +0.005 C 
ENDBRANCH   5  22
BRANCH   4  24
ATOM     24  C   UNL     1      33.256 -23.539 -17.962  0.00  0.00    +0.052 C 
BRANCH  24  27
ATOM     25  O   UNL     1      36.735 -20.608 -19.721  0.00  0.00    -0.468 OA
ATOM     26  O   UNL     1      34.721 -18.826 -20.761  0.00  0.00    -0.468 OA
ATOM     27  C   UNL     1      33.665 -22.279 -18.698  0.00  0.00    -0.015 C 
ATOM     28  C   UNL     1      35.017 -22.000 -18.900  0.00  0.00    +0.036 C 
ATOM     29  C   UNL     1      32.691 -21.397 -19.167  0.00  0.00    -0.001 C 
ATOM     30  C   UNL     1      35.392 -20.837 -19.572  0.00  0.00    +0.172 C 
ATOM     31  C   UNL     1      34.416 -19.968 -20.065  0.00  0.00    +0.172 C 
ATOM     32  C   UNL     1      33.065 -20.241 -19.850  0.00  0.00    +0.040 C 
ATOM     33  C   UNL     1      37.006 -19.255 -20.100  0.00  0.00    +0.253 C 
ATOM     34  C   UNL     1      36.076 -18.826 -21.216  0.00  0.00    +0.253 C 
ENDBRANCH  24  27
ENDBRANCH   4  24
TORSDOF 9
ENDMDL
