MODEL 1
REMARK VINA RESULT:     -12.3      0.000      0.000
REMARK  Name = 444698
REMARK  5 active torsions:
REMARK  status: ('A' for Active; 'I' for Inactive)
REMARK    1  A    between atoms: S_1  and  N_4
REMARK    2  A    between atoms: S_1  and  C_18
REMARK    3  A    between atoms: C_5  and  C_15
REMARK    4  A    between atoms: C_15  and  O_16
REMARK    5  A    between atoms: C_21  and  C_24
REMARK                            x       y       z     vdW  Elec       q    Type
REMARK                         _______ _______ _______ _____ _____    ______ ____
ROOT
ATOM      1  S   UNL     1      34.435 -15.927 -24.735  0.00  0.00    +0.064 S 
ATOM      2  O   UNL     1      35.785 -15.644 -25.179  0.00  0.00    -0.153 OA
ATOM      3  O   UNL     1      33.449 -16.520 -25.614  0.00  0.00    -0.153 OA
ENDROOT
BRANCH   1   4
ATOM      4  N   UNL     1      33.783 -14.510 -24.033  0.00  0.00    -0.141 NA
ATOM      5  C   UNL     1      34.067 -13.222 -24.730  0.00  0.00    +0.182 C 
ATOM      6  C   UNL     1      34.265 -12.021 -23.802  0.00  0.00    +0.055 C 
ATOM      7  C   UNL     1      33.730 -14.480 -22.545  0.00  0.00    +0.122 C 
ATOM      8  C   UNL     1      33.321 -12.026 -22.631  0.00  0.00    -0.023 C 
ATOM      9  C   UNL     1      33.053 -13.252 -22.006  0.00  0.00    -0.008 C 
ATOM     10  C   UNL     1      32.756 -10.849 -22.129  0.00  0.00    -0.004 C 
ATOM     11  C   UNL     1      32.224 -13.295 -20.883  0.00  0.00    -0.003 C 
ATOM     12  C   UNL     1      31.916 -10.900 -21.016  0.00  0.00    -0.000 C 
ATOM     13  C   UNL     1      31.651 -12.120 -20.394  0.00  0.00    -0.000 C 
BRANCH   5  15
ATOM     14  O   UNL     1      32.676 -12.044 -26.317  0.00  0.00    -0.249 OA
ATOM     15  C   UNL     1      32.876 -13.027 -25.618  0.00  0.00    +0.330 C 
BRANCH  15  16
ATOM     16  O   UNL     1      32.042 -14.092 -25.542  0.00  0.00    -0.479 OA
ATOM     17  H   UNL     1      31.823 -14.571 -26.317  0.00  0.00    +0.295 HD
ENDBRANCH  15  16
ENDBRANCH   5  15
ENDBRANCH   1   4
BRANCH   1  18
ATOM     18  C   UNL     1      34.627 -17.135 -23.428  0.00  0.00    +0.122 C 
ATOM     19  C   UNL     1      34.066 -18.377 -23.598  0.00  0.00    +0.020 C 
ATOM     20  C   UNL     1      35.330 -16.776 -22.304  0.00  0.00    +0.020 C 
ATOM     21  C   UNL     1      34.923 -18.988 -21.424  0.00  0.00    +0.000 C 
ATOM     22  C   UNL     1      34.215 -19.318 -22.579  0.00  0.00    +0.001 C 
ATOM     23  C   UNL     1      35.480 -17.717 -21.285  0.00  0.00    +0.001 C 
BRANCH  21  24
ATOM     24  C   UNL     1      35.078 -19.965 -20.368  0.00  0.00    +0.000 C 
ATOM     25  C   UNL     1      36.347 -20.264 -19.873  0.00  0.00    +0.000 C 
ATOM     26  C   UNL     1      33.956 -20.608 -19.843  0.00  0.00    +0.000 C 
ATOM     27  C   UNL     1      36.495 -21.206 -18.855  0.00  0.00    +0.000 C 
ATOM     28  C   UNL     1      34.104 -21.550 -18.825  0.00  0.00    +0.000 C 
ATOM     29  C   UNL     1      35.375 -21.849 -18.331  0.00  0.00    +0.000 C 
ENDBRANCH  21  24
ENDBRANCH   1  18
TORSDOF 5
ENDMDL
MODEL 2
REMARK VINA RESULT:     -11.5      7.776     11.357
REMARK  Name = 444698
REMARK  5 active torsions:
REMARK  status: ('A' for Active; 'I' for Inactive)
REMARK    1  A    between atoms: S_1  and  N_4
REMARK    2  A    between atoms: S_1  and  C_18
REMARK    3  A    between atoms: C_5  and  C_15
REMARK    4  A    between atoms: C_15  and  O_16
REMARK    5  A    between atoms: C_21  and  C_24
REMARK                            x       y       z     vdW  Elec       q    Type
REMARK                         _______ _______ _______ _____ _____    ______ ____
ROOT
ATOM      1  S   UNL     1      35.098 -23.511 -15.161  0.00  0.00    +0.064 S 
ATOM      2  O   UNL     1      35.546 -24.833 -15.550  0.00  0.00    -0.153 OA
ATOM      3  O   UNL     1      35.758 -22.756 -14.117  0.00  0.00    -0.153 OA
ENDROOT
BRANCH   1   4
ATOM      4  N   UNL     1      33.421 -23.579 -14.832  0.00  0.00    -0.141 NA
ATOM      5  C   UNL     1      32.990 -24.469 -13.716  0.00  0.00    +0.182 C 
ATOM      6  C   UNL     1      31.649 -25.172 -13.938  0.00  0.00    +0.055 C 
ATOM      7  C   UNL     1      32.517 -23.481 -16.011  0.00  0.00    +0.122 C 
ATOM      8  C   UNL     1      30.629 -24.288 -14.603  0.00  0.00    -0.023 C 
ATOM      9  C   UNL     1      31.063 -23.444 -15.635  0.00  0.00    -0.008 C 
ATOM     10  C   UNL     1      29.275 -24.327 -14.256  0.00  0.00    -0.004 C 
ATOM     11  C   UNL     1      30.141 -22.645 -16.315  0.00  0.00    -0.003 C 
ATOM     12  C   UNL     1      28.361 -23.516 -14.929  0.00  0.00    -0.000 C 
ATOM     13  C   UNL     1      28.793 -22.676 -15.956  0.00  0.00    -0.000 C 
BRANCH   5  15
ATOM     14  O   UNL     1      31.939 -22.931 -12.175  0.00  0.00    -0.249 OA
ATOM     15  C   UNL     1      32.930 -23.554 -12.532  0.00  0.00    +0.330 C 
BRANCH  15  16
ATOM     16  O   UNL     1      34.129 -23.503 -11.903  0.00  0.00    -0.479 OA
ATOM     17  H   UNL     1      34.466 -24.267 -11.476  0.00  0.00    +0.295 HD
ENDBRANCH  15  16
ENDBRANCH   5  15
ENDBRANCH   1   4
BRANCH   1  18
ATOM     18  C   UNL     1      35.319 -22.504 -16.624  0.00  0.00    +0.122 C 
ATOM     19  C   UNL     1      36.507 -21.834 -16.784  0.00  0.00    +0.020 C 
ATOM     20  C   UNL     1      34.292 -22.437 -17.533  0.00  0.00    +0.020 C 
ATOM     21  C   UNL     1      35.658 -20.959 -18.868  0.00  0.00    +0.000 C 
ATOM     22  C   UNL     1      36.679 -21.049 -17.924  0.00  0.00    +0.001 C 
ATOM     23  C   UNL     1      34.464 -21.652 -18.673  0.00  0.00    +0.001 C 
BRANCH  21  24
ATOM     24  C   UNL     1      35.836 -20.144 -20.051  0.00  0.00    +0.000 C 
ATOM     25  C   UNL     1      37.013 -19.417 -20.227  0.00  0.00    +0.000 C 
ATOM     26  C   UNL     1      34.830 -20.086 -21.015  0.00  0.00    +0.000 C 
ATOM     27  C   UNL     1      37.184 -18.631 -21.367  0.00  0.00    +0.000 C 
ATOM     28  C   UNL     1      35.001 -19.302 -22.156  0.00  0.00    +0.000 C 
ATOM     29  C   UNL     1      36.179 -18.574 -22.332  0.00  0.00    +0.000 C 
ENDBRANCH  21  24
ENDBRANCH   1  18
TORSDOF 5
ENDMDL
MODEL 3
REMARK VINA RESULT:     -11.4      2.208      3.645
REMARK  Name = 444698
REMARK  5 active torsions:
REMARK  status: ('A' for Active; 'I' for Inactive)
REMARK    1  A    between atoms: S_1  and  N_4
REMARK    2  A    between atoms: S_1  and  C_18
REMARK    3  A    between atoms: C_5  and  C_15
REMARK    4  A    between atoms: C_15  and  O_16
REMARK    5  A    between atoms: C_21  and  C_24
REMARK                            x       y       z     vdW  Elec       q    Type
REMARK                         _______ _______ _______ _____ _____    ______ ____
ROOT
ATOM      1  S   UNL     1      36.013 -18.662 -22.306  0.00  0.00    +0.064 S 
ATOM      2  O   UNL     1      37.355 -18.352 -21.854  0.00  0.00    -0.153 OA
ATOM      3  O   UNL     1      35.770 -19.446 -23.499  0.00  0.00    -0.153 OA
ENDROOT
BRANCH   1   4
ATOM      4  N   UNL     1      35.118 -17.208 -22.396  0.00  0.00    -0.141 NA
ATOM      5  C   UNL     1      35.086 -16.518 -23.718  0.00  0.00    +0.182 C 
ATOM      6  C   UNL     1      35.078 -14.990 -23.645  0.00  0.00    +0.055 C 
ATOM      7  C   UNL     1      35.142 -16.346 -21.181  0.00  0.00    +0.122 C 
ATOM      8  C   UNL     1      34.222 -14.463 -22.525  0.00  0.00    -0.023 C 
ATOM      9  C   UNL     1      34.253 -15.141 -21.298  0.00  0.00    -0.008 C 
ATOM     10  C   UNL     1      33.451 -13.305 -22.663  0.00  0.00    -0.004 C 
ATOM     11  C   UNL     1      33.514 -14.657 -20.216  0.00  0.00    -0.003 C 
ATOM     12  C   UNL     1      32.704 -12.834 -21.583  0.00  0.00    -0.000 C 
ATOM     13  C   UNL     1      32.736 -13.508 -20.362  0.00  0.00    -0.000 C 
BRANCH   5  15
ATOM     14  O   UNL     1      33.238 -16.487 -25.276  0.00  0.00    -0.249 OA
ATOM     15  C   UNL     1      33.834 -17.034 -24.359  0.00  0.00    +0.330 C 
BRANCH  15  16
ATOM     16  O   UNL     1      33.443 -18.196 -23.782  0.00  0.00    -0.479 OA
ATOM     17  H   UNL     1      33.889 -18.513 -23.021  0.00  0.00    +0.295 HD
ENDBRANCH  15  16
ENDBRANCH   5  15
ENDBRANCH   1   4
BRANCH   1  18
ATOM     18  C   UNL     1      35.305 -19.649 -20.992  0.00  0.00    +0.122 C 
ATOM     19  C   UNL     1      33.938 -19.738 -20.904  0.00  0.00    +0.020 C 
ATOM     20  C   UNL     1      36.156 -20.282 -20.118  0.00  0.00    +0.020 C 
ATOM     21  C   UNL     1      34.220 -21.164 -18.975  0.00  0.00    +0.000 C 
ATOM     22  C   UNL     1      33.386 -20.507 -19.880  0.00  0.00    +0.001 C 
ATOM     23  C   UNL     1      35.605 -21.051 -19.094  0.00  0.00    +0.001 C 
BRANCH  21  24
ATOM     24  C   UNL     1      33.647 -21.962 -17.913  0.00  0.00    +0.000 C 
ATOM     25  C   UNL     1      32.265 -21.995 -17.732  0.00  0.00    +0.000 C 
ATOM     26  C   UNL     1      34.479 -22.698 -17.069  0.00  0.00    +0.000 C 
ATOM     27  C   UNL     1      31.714 -22.764 -16.706  0.00  0.00    +0.000 C 
ATOM     28  C   UNL     1      33.928 -23.468 -16.044  0.00  0.00    +0.000 C 
ATOM     29  C   UNL     1      32.545 -23.501 -15.863  0.00  0.00    +0.000 C 
ENDBRANCH  21  24
ENDBRANCH   1  18
TORSDOF 5
ENDMDL
MODEL 4
REMARK VINA RESULT:     -10.6      1.410      2.509
REMARK  Name = 444698
REMARK  5 active torsions:
REMARK  status: ('A' for Active; 'I' for Inactive)
REMARK    1  A    between atoms: S_1  and  N_4
REMARK    2  A    between atoms: S_1  and  C_18
REMARK    3  A    between atoms: C_5  and  C_15
REMARK    4  A    between atoms: C_15  and  O_16
REMARK    5  A    between atoms: C_21  and  C_24
REMARK                            x       y       z     vdW  Elec       q    Type
REMARK                         _______ _______ _______ _____ _____    ______ ____
ROOT
ATOM      1  S   UNL     1      34.352 -15.811 -24.782  0.00  0.00    +0.064 S 
ATOM      2  O   UNL     1      35.600 -15.756 -25.516  0.00  0.00    -0.153 OA
ATOM      3  O   UNL     1      33.118 -16.247 -25.402  0.00  0.00    -0.153 OA
ENDROOT
BRANCH   1   4
ATOM      4  N   UNL     1      34.097 -14.299 -24.026  0.00  0.00    -0.141 NA
ATOM      5  C   UNL     1      33.244 -14.293 -22.803  0.00  0.00    +0.182 C 
ATOM      6  C   UNL     1      32.363 -13.051 -22.642  0.00  0.00    +0.055 C 
ATOM      7  C   UNL     1      33.994 -13.121 -24.932  0.00  0.00    +0.122 C 
ATOM      8  C   UNL     1      33.060 -11.783 -23.052  0.00  0.00    -0.023 C 
ATOM      9  C   UNL     1      33.875 -11.819 -24.193  0.00  0.00    -0.008 C 
ATOM     10  C   UNL     1      32.876 -10.580 -22.364  0.00  0.00    -0.004 C 
ATOM     11  C   UNL     1      34.500 -10.652 -24.639  0.00  0.00    -0.003 C 
ATOM     12  C   UNL     1      33.515  -9.421 -22.806  0.00  0.00    -0.000 C 
ATOM     13  C   UNL     1      34.324  -9.457 -23.942  0.00  0.00    -0.000 C 
BRANCH   5  15
ATOM     14  O   UNL     1      34.022 -14.983 -20.621  0.00  0.00    -0.249 OA
ATOM     15  C   UNL     1      34.228 -14.405 -21.680  0.00  0.00    +0.330 C 
BRANCH  15  16
ATOM     16  O   UNL     1      35.386 -13.775 -21.992  0.00  0.00    -0.479 OA
ATOM     17  H   UNL     1      35.595 -12.954 -21.590  0.00  0.00    +0.295 HD
ENDBRANCH  15  16
ENDBRANCH   5  15
ENDBRANCH   1   4
BRANCH   1  18
ATOM     18  C   UNL     1      34.634 -17.018 -23.491  0.00  0.00    +0.122 C 
ATOM     19  C   UNL     1      33.804 -18.111 -23.424  0.00  0.00    +0.020 C 
ATOM     20  C   UNL     1      35.670 -16.808 -22.614  0.00  0.00    +0.020 C 
ATOM     21  C   UNL     1      35.067 -18.870 -21.510  0.00  0.00    +0.000 C 
ATOM     22  C   UNL     1      34.024 -19.051 -22.418  0.00  0.00    +0.001 C 
ATOM     23  C   UNL     1      35.889 -17.748 -21.607  0.00  0.00    +0.001 C 
BRANCH  21  24
ATOM     24  C   UNL     1      35.294 -19.846 -20.466  0.00  0.00    +0.000 C 
ATOM     25  C   UNL     1      36.579 -20.040 -19.960  0.00  0.00    +0.000 C 
ATOM     26  C   UNL     1      34.227 -20.592 -19.966  0.00  0.00    +0.000 C 
ATOM     27  C   UNL     1      36.797 -20.982 -18.954  0.00  0.00    +0.000 C 
ATOM     28  C   UNL     1      34.445 -21.533 -18.959  0.00  0.00    +0.000 C 
ATOM     29  C   UNL     1      35.731 -21.728 -18.453  0.00  0.00    +0.000 C 
ENDBRANCH  21  24
ENDBRANCH   1  18
TORSDOF 5
ENDMDL
MODEL 5
REMARK VINA RESULT:     -10.0      1.917      3.091
REMARK  Name = 444698
REMARK  5 active torsions:
REMARK  status: ('A' for Active; 'I' for Inactive)
REMARK    1  A    between atoms: S_1  and  N_4
REMARK    2  A    between atoms: S_1  and  C_18
REMARK    3  A    between atoms: C_5  and  C_15
REMARK    4  A    between atoms: C_15  and  O_16
REMARK    5  A    between atoms: C_21  and  C_24
REMARK                            x       y       z     vdW  Elec       q    Type
REMARK                         _______ _______ _______ _____ _____    ______ ____
ROOT
ATOM      1  S   UNL     1      35.404 -18.384 -22.907  0.00  0.00    +0.064 S 
ATOM      2  O   UNL     1      36.833 -18.223 -22.730  0.00  0.00    -0.153 OA
ATOM      3  O   UNL     1      34.847 -19.067 -24.056  0.00  0.00    -0.153 OA
ENDROOT
BRANCH   1   4
ATOM      4  N   UNL     1      34.659 -16.853 -22.747  0.00  0.00    -0.141 NA
ATOM      5  C   UNL     1      34.723 -15.946 -23.929  0.00  0.00    +0.182 C 
ATOM      6  C   UNL     1      34.864 -14.460 -23.591  0.00  0.00    +0.055 C 
ATOM      7  C   UNL     1      34.741 -16.221 -21.401  0.00  0.00    +0.122 C 
ATOM      8  C   UNL     1      34.041 -14.051 -22.401  0.00  0.00    -0.023 C 
ATOM      9  C   UNL     1      33.978 -14.930 -21.310  0.00  0.00    -0.008 C 
ATOM     10  C   UNL     1      33.391 -12.814 -22.339  0.00  0.00    -0.004 C 
ATOM     11  C   UNL     1      33.267 -14.567 -20.164  0.00  0.00    -0.003 C 
ATOM     12  C   UNL     1      32.670 -12.464 -21.197  0.00  0.00    -0.000 C 
ATOM     13  C   UNL     1      32.609 -13.338 -20.111  0.00  0.00    -0.000 C 
BRANCH   5  15
ATOM     14  O   UNL     1      33.005 -17.325 -24.923  0.00  0.00    -0.249 OA
ATOM     15  C   UNL     1      33.441 -16.214 -24.655  0.00  0.00    +0.330 C 
BRANCH  15  16
ATOM     16  O   UNL     1      32.823 -15.053 -24.982  0.00  0.00    -0.479 OA
ATOM     17  H   UNL     1      32.997 -14.276 -24.489  0.00  0.00    +0.295 HD
ENDBRANCH  15  16
ENDBRANCH   5  15
ENDBRANCH   1   4
BRANCH   1  18
ATOM     18  C   UNL     1      34.881 -19.385 -21.518  0.00  0.00    +0.122 C 
ATOM     19  C   UNL     1      35.832 -19.809 -20.623  0.00  0.00    +0.020 C 
ATOM     20  C   UNL     1      33.547 -19.692 -21.399  0.00  0.00    +0.020 C 
ATOM     21  C   UNL     1      34.078 -20.920 -19.388  0.00  0.00    +0.000 C 
ATOM     22  C   UNL     1      35.424 -20.589 -19.541  0.00  0.00    +0.001 C 
ATOM     23  C   UNL     1      33.140 -20.472 -20.317  0.00  0.00    +0.001 C 
BRANCH  21  24
ATOM     24  C   UNL     1      33.656 -21.730 -18.266  0.00  0.00    +0.000 C 
ATOM     25  C   UNL     1      34.601 -22.421 -17.508  0.00  0.00    +0.000 C 
ATOM     26  C   UNL     1      32.302 -21.818 -17.941  0.00  0.00    +0.000 C 
ATOM     27  C   UNL     1      34.192 -23.202 -16.427  0.00  0.00    +0.000 C 
ATOM     28  C   UNL     1      31.893 -22.598 -16.860  0.00  0.00    +0.000 C 
ATOM     29  C   UNL     1      32.839 -23.291 -16.102  0.00  0.00    +0.000 C 
ENDBRANCH  21  24
ENDBRANCH   1  18
TORSDOF 5
ENDMDL
MODEL 6
REMARK VINA RESULT:      -9.9      7.259     11.788
REMARK  Name = 444698
REMARK  5 active torsions:
REMARK  status: ('A' for Active; 'I' for Inactive)
REMARK    1  A    between atoms: S_1  and  N_4
REMARK    2  A    between atoms: S_1  and  C_18
REMARK    3  A    between atoms: C_5  and  C_15
REMARK    4  A    between atoms: C_15  and  O_16
REMARK    5  A    between atoms: C_21  and  C_24
REMARK                            x       y       z     vdW  Elec       q    Type
REMARK                         _______ _______ _______ _____ _____    ______ ____
ROOT
ATOM      1  S   UNL     1      32.846 -23.575 -16.435  0.00  0.00    +0.064 S 
ATOM      2  O   UNL     1      31.795 -22.784 -15.827  0.00  0.00    -0.153 OA
ATOM      3  O   UNL     1      32.559 -24.775 -17.193  0.00  0.00    -0.153 OA
ENDROOT
BRANCH   1   4
ATOM      4  N   UNL     1      34.020 -23.929 -15.243  0.00  0.00    -0.141 NA
ATOM      5  C   UNL     1      34.232 -22.904 -14.181  0.00  0.00    +0.182 C 
ATOM      6  C   UNL     1      35.679 -22.769 -13.700  0.00  0.00    +0.055 C 
ATOM      7  C   UNL     1      35.216 -24.687 -15.706  0.00  0.00    +0.122 C 
ATOM      8  C   UNL     1      36.383 -24.093 -13.587  0.00  0.00    -0.023 C 
ATOM      9  C   UNL     1      36.151 -25.050 -14.586  0.00  0.00    -0.008 C 
ATOM     10  C   UNL     1      37.287 -24.367 -12.557  0.00  0.00    -0.004 C 
ATOM     11  C   UNL     1      36.823 -26.274 -14.549  0.00  0.00    -0.003 C 
ATOM     12  C   UNL     1      37.945 -25.597 -12.517  0.00  0.00    -0.000 C 
ATOM     13  C   UNL     1      37.714 -26.548 -13.511  0.00  0.00    -0.000 C 
BRANCH   5  15
ATOM     14  O   UNL     1      33.533 -24.319 -12.351  0.00  0.00    -0.249 OA
ATOM     15  C   UNL     1      33.334 -23.349 -13.069  0.00  0.00    +0.330 C 
BRANCH  15  16
ATOM     16  O   UNL     1      32.259 -22.530 -12.963  0.00  0.00    -0.479 OA
ATOM     17  H   UNL     1      32.236 -21.873 -12.296  0.00  0.00    +0.295 HD
ENDBRANCH  15  16
ENDBRANCH   5  15
ENDBRANCH   1   4
BRANCH   1  18
ATOM     18  C   UNL     1      33.607 -22.482 -17.631  0.00  0.00    +0.122 C 
ATOM     19  C   UNL     1      34.977 -22.409 -17.672  0.00  0.00    +0.020 C 
ATOM     20  C   UNL     1      32.791 -21.757 -18.466  0.00  0.00    +0.020 C 
ATOM     21  C   UNL     1      34.773 -20.806 -19.467  0.00  0.00    +0.000 C 
ATOM     22  C   UNL     1      35.570 -21.557 -18.604  0.00  0.00    +0.001 C 
ATOM     23  C   UNL     1      33.383 -20.906 -19.398  0.00  0.00    +0.001 C 
BRANCH  21  24
ATOM     24  C   UNL     1      35.388 -19.923 -20.434  0.00  0.00    +0.000 C 
ATOM     25  C   UNL     1      34.671 -19.510 -21.557  0.00  0.00    +0.000 C 
ATOM     26  C   UNL     1      36.698 -19.484 -20.242  0.00  0.00    +0.000 C 
ATOM     27  C   UNL     1      35.266 -18.659 -22.490  0.00  0.00    +0.000 C 
ATOM     28  C   UNL     1      37.292 -18.633 -21.174  0.00  0.00    +0.000 C 
ATOM     29  C   UNL     1      36.575 -18.220 -22.298  0.00  0.00    +0.000 C 
ENDBRANCH  21  24
ENDBRANCH   1  18
TORSDOF 5
ENDMDL
MODEL 7
REMARK VINA RESULT:      -9.7      4.934      7.503
REMARK  Name = 444698
REMARK  5 active torsions:
REMARK  status: ('A' for Active; 'I' for Inactive)
REMARK    1  A    between atoms: S_1  and  N_4
REMARK    2  A    between atoms: S_1  and  C_18
REMARK    3  A    between atoms: C_5  and  C_15
REMARK    4  A    between atoms: C_15  and  O_16
REMARK    5  A    between atoms: C_21  and  C_24
REMARK                            x       y       z     vdW  Elec       q    Type
REMARK                         _______ _______ _______ _____ _____    ______ ____
ROOT
ATOM      1  S   UNL     1      31.507  -9.799 -20.036  0.00  0.00    +0.064 S 
ATOM      2  O   UNL     1      30.090 -10.082 -19.938  0.00  0.00    -0.153 OA
ATOM      3  O   UNL     1      32.360  -9.752 -18.866  0.00  0.00    -0.153 OA
ENDROOT
BRANCH   1   4
ATOM      4  N   UNL     1      31.717  -8.364 -20.942  0.00  0.00    -0.141 NA
ATOM      5  C   UNL     1      31.996  -7.117 -20.173  0.00  0.00    +0.182 C 
ATOM      6  C   UNL     1      31.374  -5.848 -20.761  0.00  0.00    +0.055 C 
ATOM      7  C   UNL     1      30.879  -8.234 -22.167  0.00  0.00    +0.122 C 
ATOM      8  C   UNL     1      31.437  -5.809 -22.263  0.00  0.00    -0.023 C 
ATOM      9  C   UNL     1      31.192  -6.999 -22.964  0.00  0.00    -0.008 C 
ATOM     10  C   UNL     1      31.677  -4.624 -22.965  0.00  0.00    -0.004 C 
ATOM     11  C   UNL     1      31.189  -6.998 -24.361  0.00  0.00    -0.003 C 
ATOM     12  C   UNL     1      31.687  -4.631 -24.360  0.00  0.00    -0.000 C 
ATOM     13  C   UNL     1      31.443  -5.815 -25.057  0.00  0.00    -0.000 C 
BRANCH   5  15
ATOM     14  O   UNL     1      34.207  -7.138 -21.149  0.00  0.00    -0.249 OA
ATOM     15  C   UNL     1      33.491  -7.030 -20.163  0.00  0.00    +0.330 C 
BRANCH  15  16
ATOM     16  O   UNL     1      33.951  -6.817 -18.907  0.00  0.00    -0.479 OA
ATOM     17  H   UNL     1      34.868  -6.888 -18.726  0.00  0.00    +0.295 HD
ENDBRANCH  15  16
ENDBRANCH   5  15
ENDBRANCH   1   4
BRANCH   1  18
ATOM     18  C   UNL     1      32.177 -11.149 -21.002  0.00  0.00    +0.122 C 
ATOM     19  C   UNL     1      32.725 -10.866 -22.229  0.00  0.00    +0.020 C 
ATOM     20  C   UNL     1      32.119 -12.418 -20.480  0.00  0.00    +0.020 C 
ATOM     21  C   UNL     1      33.205 -13.219 -22.483  0.00  0.00    +0.000 C 
ATOM     22  C   UNL     1      33.247 -11.918 -22.982  0.00  0.00    +0.001 C 
ATOM     23  C   UNL     1      32.640 -13.470 -21.233  0.00  0.00    +0.001 C 
BRANCH  21  24
ATOM     24  C   UNL     1      33.746 -14.310 -23.265  0.00  0.00    +0.000 C 
ATOM     25  C   UNL     1      34.640 -15.209 -22.683  0.00  0.00    +0.000 C 
ATOM     26  C   UNL     1      33.373 -14.463 -24.600  0.00  0.00    +0.000 C 
ATOM     27  C   UNL     1      35.162 -16.261 -23.438  0.00  0.00    +0.000 C 
ATOM     28  C   UNL     1      33.894 -15.514 -25.355  0.00  0.00    +0.000 C 
ATOM     29  C   UNL     1      34.789 -16.414 -24.773  0.00  0.00    +0.000 C 
ENDBRANCH  21  24
ENDBRANCH   1  18
TORSDOF 5
ENDMDL
MODEL 8
REMARK VINA RESULT:      -9.6      5.734      8.781
REMARK  Name = 444698
REMARK  5 active torsions:
REMARK  status: ('A' for Active; 'I' for Inactive)
REMARK    1  A    between atoms: S_1  and  N_4
REMARK    2  A    between atoms: S_1  and  C_18
REMARK    3  A    between atoms: C_5  and  C_15
REMARK    4  A    between atoms: C_15  and  O_16
REMARK    5  A    between atoms: C_21  and  C_24
REMARK                            x       y       z     vdW  Elec       q    Type
REMARK                         _______ _______ _______ _____ _____    ______ ____
ROOT
ATOM      1  S   UNL     1      32.541  -7.590 -21.034  0.00  0.00    +0.064 S 
ATOM      2  O   UNL     1      31.197  -7.685 -20.501  0.00  0.00    -0.153 OA
ATOM      3  O   UNL     1      33.692  -7.393 -20.177  0.00  0.00    -0.153 OA
ENDROOT
BRANCH   1   4
ATOM      4  N   UNL     1      32.555  -6.412 -22.273  0.00  0.00    -0.141 NA
ATOM      5  C   UNL     1      31.242  -5.809 -22.643  0.00  0.00    +0.182 C 
ATOM      6  C   UNL     1      31.082  -5.484 -24.130  0.00  0.00    +0.055 C 
ATOM      7  C   UNL     1      33.538  -6.627 -23.371  0.00  0.00    +0.122 C 
ATOM      8  C   UNL     1      32.339  -4.932 -24.746  0.00  0.00    -0.023 C 
ATOM      9  C   UNL     1      33.563  -5.501 -24.366  0.00  0.00    -0.008 C 
ATOM     10  C   UNL     1      32.310  -3.919 -25.710  0.00  0.00    -0.004 C 
ATOM     11  C   UNL     1      34.750  -5.055 -24.952  0.00  0.00    -0.003 C 
ATOM     12  C   UNL     1      33.500  -3.467 -26.280  0.00  0.00    -0.000 C 
ATOM     13  C   UNL     1      34.717  -4.034 -25.903  0.00  0.00    -0.000 C 
BRANCH   5  15
ATOM     14  O   UNL     1      32.095  -4.111 -21.149  0.00  0.00    -0.249 OA
ATOM     15  C   UNL     1      31.172  -4.567 -21.809  0.00  0.00    +0.330 C 
BRANCH  15  16
ATOM     16  O   UNL     1      29.938  -4.010 -21.881  0.00  0.00    -0.479 OA
ATOM     17  H   UNL     1      29.731  -3.419 -22.578  0.00  0.00    +0.295 HD
ENDBRANCH  15  16
ENDBRANCH   5  15
ENDBRANCH   1   4
BRANCH   1  18
ATOM     18  C   UNL     1      32.844  -9.180 -21.799  0.00  0.00    +0.122 C 
ATOM     19  C   UNL     1      32.209 -10.284 -21.286  0.00  0.00    +0.020 C 
ATOM     20  C   UNL     1      33.701  -9.237 -22.871  0.00  0.00    +0.020 C 
ATOM     21  C   UNL     1      33.308 -11.618 -22.973  0.00  0.00    +0.000 C 
ATOM     22  C   UNL     1      32.445 -11.522 -21.882  0.00  0.00    +0.001 C 
ATOM     23  C   UNL     1      33.937 -10.475 -23.467  0.00  0.00    +0.001 C 
BRANCH  21  24
ATOM     24  C   UNL     1      33.553 -12.903 -23.591  0.00  0.00    +0.000 C 
ATOM     25  C   UNL     1      33.202 -13.115 -24.924  0.00  0.00    +0.000 C 
ATOM     26  C   UNL     1      34.141 -13.930 -22.852  0.00  0.00    +0.000 C 
ATOM     27  C   UNL     1      33.438 -14.355 -25.518  0.00  0.00    +0.000 C 
ATOM     28  C   UNL     1      34.378 -15.170 -23.447  0.00  0.00    +0.000 C 
ATOM     29  C   UNL     1      34.026 -15.382 -24.781  0.00  0.00    +0.000 C 
ENDBRANCH  21  24
ENDBRANCH   1  18
TORSDOF 5
ENDMDL
MODEL 9
REMARK VINA RESULT:      -9.4      1.616      7.603
REMARK  Name = 444698
REMARK  5 active torsions:
REMARK  status: ('A' for Active; 'I' for Inactive)
REMARK    1  A    between atoms: S_1  and  N_4
REMARK    2  A    between atoms: S_1  and  C_18
REMARK    3  A    between atoms: C_5  and  C_15
REMARK    4  A    between atoms: C_15  and  O_16
REMARK    5  A    between atoms: C_21  and  C_24
REMARK                            x       y       z     vdW  Elec       q    Type
REMARK                         _______ _______ _______ _____ _____    ______ ____
ROOT
ATOM      1  S   UNL     1      34.506 -16.247 -24.489  0.00  0.00    +0.064 S 
ATOM      2  O   UNL     1      33.407 -16.607 -25.361  0.00  0.00    -0.153 OA
ATOM      3  O   UNL     1      35.770 -15.769 -25.008  0.00  0.00    -0.153 OA
ENDROOT
BRANCH   1   4
ATOM      4  N   UNL     1      34.793 -17.543 -23.411  0.00  0.00    -0.141 NA
ATOM      5  C   UNL     1      33.693 -18.536 -23.244  0.00  0.00    +0.182 C 
ATOM      6  C   UNL     1      33.555 -19.107 -21.831  0.00  0.00    +0.055 C 
ATOM      7  C   UNL     1      35.611 -17.225 -22.207  0.00  0.00    +0.122 C 
ATOM      8  C   UNL     1      34.882 -19.369 -21.173  0.00  0.00    -0.023 C 
ATOM      9  C   UNL     1      35.907 -18.432 -21.362  0.00  0.00    -0.008 C 
ATOM     10  C   UNL     1      35.095 -20.480 -20.350  0.00  0.00    -0.004 C 
ATOM     11  C   UNL     1      37.139 -18.609 -20.728  0.00  0.00    -0.003 C 
ATOM     12  C   UNL     1      36.333 -20.659 -19.732  0.00  0.00    -0.000 C 
ATOM     13  C   UNL     1      37.352 -19.726 -19.920  0.00  0.00    -0.000 C 
BRANCH   5  15
ATOM     14  O   UNL     1      35.050 -20.288 -24.209  0.00  0.00    -0.249 OA
ATOM     15  C   UNL     1      34.031 -19.612 -24.229  0.00  0.00    +0.330 C 
BRANCH  15  16
ATOM     16  O   UNL     1      33.052 -19.737 -25.157  0.00  0.00    -0.479 OA
ATOM     17  H   UNL     1      32.154 -19.759 -24.889  0.00  0.00    +0.295 HD
ENDBRANCH  15  16
ENDBRANCH   5  15
ENDBRANCH   1   4
BRANCH   1  18
ATOM     18  C   UNL     1      33.891 -14.870 -23.524  0.00  0.00    +0.122 C 
ATOM     19  C   UNL     1      34.283 -14.763 -22.212  0.00  0.00    +0.020 C 
ATOM     20  C   UNL     1      33.050 -13.970 -24.132  0.00  0.00    +0.020 C 
ATOM     21  C   UNL     1      32.948 -12.758 -22.045  0.00  0.00    +0.000 C 
ATOM     22  C   UNL     1      33.803 -13.691 -21.461  0.00  0.00    +0.001 C 
ATOM     23  C   UNL     1      32.570 -12.897 -23.380  0.00  0.00    +0.001 C 
BRANCH  21  24
ATOM     24  C   UNL     1      32.451 -11.645 -21.265  0.00  0.00    +0.000 C 
ATOM     25  C   UNL     1      32.214 -10.414 -21.876  0.00  0.00    +0.000 C 
ATOM     26  C   UNL     1      32.208 -11.804 -19.900  0.00  0.00    +0.000 C 
ATOM     27  C   UNL     1      31.735  -9.342 -21.123  0.00  0.00    +0.000 C 
ATOM     28  C   UNL     1      31.728 -10.733 -19.147  0.00  0.00    +0.000 C 
ATOM     29  C   UNL     1      31.492  -9.500 -19.759  0.00  0.00    +0.000 C 
ENDBRANCH  21  24
ENDBRANCH   1  18
TORSDOF 5
ENDMDL
