MODEL 1
REMARK VINA RESULT:     -11.4      0.000      0.000
REMARK  Name = 5289411
REMARK  6 active torsions:
REMARK  status: ('A' for Active; 'I' for Inactive)
REMARK    1  A    between atoms: N_3  and  C_9
REMARK    2  A    between atoms: C_4  and  O_25
REMARK    3  A    between atoms: C_5  and  N_24
REMARK    4  A    between atoms: C_12  and  C_17
REMARK    5  A    between atoms: O_25  and  C_26
REMARK    6  A    between atoms: C_26  and  C_27
REMARK                            x       y       z     vdW  Elec       q    Type
REMARK                         _______ _______ _______ _____ _____    ______ ____
ROOT
ATOM      1  N   UNL     1      34.028 -23.934 -14.795  0.00  0.00    -0.293 NA
ATOM      2  N   UNL     1      32.586 -24.131 -12.874  0.00  0.00    -0.316 NA
ATOM      3  N   UNL     1      34.868 -24.658 -12.728  0.00  0.00    -0.238 N 
ATOM      4  C   UNL     1      32.959 -23.519 -15.506  0.00  0.00    +0.292 C 
ATOM      5  C   UNL     1      31.691 -23.387 -14.981  0.00  0.00    +0.261 C 
ATOM      6  C   UNL     1      31.562 -23.710 -13.645  0.00  0.00    +0.196 C 
ATOM      7  C   UNL     1      33.774 -24.220 -13.504  0.00  0.00    +0.207 C 
ATOM      8  H   UNL     1      34.636 -24.855 -11.791  0.00  0.00    +0.166 HD
ATOM      9  N   UNL     1      30.289 -23.599 -13.031  0.00  0.00    -0.334 N 
ATOM     10  H   UNL     1      30.180 -23.826 -12.079  0.00  0.00    +0.144 HD
ATOM     11  H   UNL     1      29.514 -23.295 -13.556  0.00  0.00    +0.144 HD
ENDROOT
BRANCH   3  12
ATOM     12  C   UNL     1      36.226 -24.868 -13.030  0.00  0.00    +0.058 C 
ATOM     13  C   UNL     1      37.218 -24.236 -12.276  0.00  0.00    +0.015 C 
ATOM     14  C   UNL     1      36.588 -25.707 -14.086  0.00  0.00    +0.015 C 
ATOM     15  C   UNL     1      38.922 -25.282 -13.632  0.00  0.00    +0.053 C 
ATOM     16  C   UNL     1      38.564 -24.444 -12.577  0.00  0.00    +0.006 C 
ATOM     17  C   UNL     1      37.934 -25.914 -14.387  0.00  0.00    +0.006 C 
BRANCH  15  20
ATOM     18  O   UNL     1      41.028 -24.589 -14.427  0.00  0.00    -0.270 OA
ATOM     19  N   UNL     1      40.868 -26.748 -13.672  0.00  0.00    -0.325 N 
ATOM     20  C   UNL     1      40.326 -25.496 -13.946  0.00  0.00    +0.243 C 
ATOM     21  H   UNL     1      41.814 -26.929 -13.871  0.00  0.00    +0.145 HD
ATOM     22  H   UNL     1      40.304 -27.452 -13.279  0.00  0.00    +0.145 HD
ENDBRANCH  15  20
ENDBRANCH   3  12
BRANCH   5  24
ATOM     23  O   UNL     1      29.694 -23.767 -15.791  0.00  0.00    -0.099 OA
ATOM     24  N   UNL     1      30.634 -22.960 -15.747  0.00  0.00    -0.030 NA
ENDBRANCH   5  24
BRANCH   4  25
ATOM     25  O   UNL     1      33.199 -23.225 -16.825  0.00  0.00    -0.453 OA
BRANCH  25  26
ATOM     26  C   UNL     1      34.489 -22.743 -17.153  0.00  0.00    +0.208 C 
BRANCH  26  27
ATOM     27  C   UNL     1      34.433 -22.114 -18.544  0.00  0.00    +0.044 C 
ATOM     28  C   UNL     1      33.150 -21.290 -18.713  0.00  0.00    +0.004 C 
ATOM     29  C   UNL     1      35.675 -21.250 -18.798  0.00  0.00    +0.004 C 
ATOM     30  C   UNL     1      33.095 -20.606 -20.078  0.00  0.00    +0.000 C 
ATOM     31  C   UNL     1      35.617 -20.566 -20.162  0.00  0.00    +0.000 C 
ATOM     32  C   UNL     1      34.336 -19.755 -20.330  0.00  0.00    +0.000 C 
ENDBRANCH  26  27
ENDBRANCH  25  26
ENDBRANCH   4  25
TORSDOF 6
ENDMDL
MODEL 2
REMARK VINA RESULT:     -11.3      2.074      6.754
REMARK  Name = 5289411
REMARK  6 active torsions:
REMARK  status: ('A' for Active; 'I' for Inactive)
REMARK    1  A    between atoms: N_3  and  C_9
REMARK    2  A    between atoms: C_4  and  O_25
REMARK    3  A    between atoms: C_5  and  N_24
REMARK    4  A    between atoms: C_12  and  C_17
REMARK    5  A    between atoms: O_25  and  C_26
REMARK    6  A    between atoms: C_26  and  C_27
REMARK                            x       y       z     vdW  Elec       q    Type
REMARK                         _______ _______ _______ _____ _____    ______ ____
ROOT
ATOM      1  N   UNL     1      34.313 -23.409 -14.844  0.00  0.00    -0.293 NA
ATOM      2  N   UNL     1      35.035 -24.150 -12.667  0.00  0.00    -0.316 NA
ATOM      3  N   UNL     1      32.757 -24.094 -13.228  0.00  0.00    -0.238 N 
ATOM      4  C   UNL     1      35.609 -23.210 -15.162  0.00  0.00    +0.292 C 
ATOM      5  C   UNL     1      36.658 -23.452 -14.301  0.00  0.00    +0.261 C 
ATOM      6  C   UNL     1      36.308 -23.927 -13.053  0.00  0.00    +0.196 C 
ATOM      7  C   UNL     1      34.101 -23.874 -13.597  0.00  0.00    +0.207 C 
ATOM      8  H   UNL     1      32.650 -24.433 -12.309  0.00  0.00    +0.166 HD
ATOM      9  N   UNL     1      37.331 -24.201 -12.111  0.00  0.00    -0.334 N 
ATOM     10  H   UNL     1      37.098 -24.540 -11.216  0.00  0.00    +0.144 HD
ATOM     11  H   UNL     1      38.274 -24.053 -12.351  0.00  0.00    +0.144 HD
ENDROOT
BRANCH   3  12
ATOM     12  C   UNL     1      31.541 -23.927 -13.914  0.00  0.00    +0.058 C 
ATOM     13  C   UNL     1      30.792 -25.042 -14.297  0.00  0.00    +0.015 C 
ATOM     14  C   UNL     1      31.078 -22.644 -14.216  0.00  0.00    +0.015 C 
ATOM     15  C   UNL     1      29.127 -23.593 -15.280  0.00  0.00    +0.053 C 
ATOM     16  C   UNL     1      29.587 -24.874 -14.979  0.00  0.00    +0.006 C 
ATOM     17  C   UNL     1      29.872 -22.477 -14.898  0.00  0.00    +0.006 C 
BRANCH  15  20
ATOM     18  O   UNL     1      27.575 -24.134 -16.966  0.00  0.00    -0.270 OA
ATOM     19  N   UNL     1      26.998 -22.436 -15.537  0.00  0.00    -0.325 N 
ATOM     20  C   UNL     1      27.871 -23.419 -15.992  0.00  0.00    +0.243 C 
ATOM     21  H   UNL     1      26.138 -22.291 -15.994  0.00  0.00    +0.145 HD
ATOM     22  H   UNL     1      27.240 -21.887 -14.757  0.00  0.00    +0.145 HD
ENDBRANCH  15  20
ENDBRANCH   3  12
BRANCH   5  24
ATOM     23  O   UNL     1      38.685 -24.233 -14.566  0.00  0.00    -0.099 OA
ATOM     24  N   UNL     1      37.962 -23.232 -14.673  0.00  0.00    -0.030 NA
ENDBRANCH   5  24
BRANCH   4  25
ATOM     25  O   UNL     1      35.844 -22.736 -16.429  0.00  0.00    -0.453 OA
BRANCH  25  26
ATOM     26  C   UNL     1      34.761 -22.766 -17.339  0.00  0.00    +0.208 C 
BRANCH  26  27
ATOM     27  C   UNL     1      34.813 -21.503 -18.197  0.00  0.00    +0.044 C 
ATOM     28  C   UNL     1      36.125 -21.441 -18.990  0.00  0.00    +0.004 C 
ATOM     29  C   UNL     1      33.602 -21.435 -19.136  0.00  0.00    +0.004 C 
ATOM     30  C   UNL     1      36.178 -20.212 -19.897  0.00  0.00    +0.000 C 
ATOM     31  C   UNL     1      33.659 -20.207 -20.042  0.00  0.00    +0.000 C 
ATOM     32  C   UNL     1      34.968 -20.145 -20.823  0.00  0.00    +0.000 C 
ENDBRANCH  26  27
ENDBRANCH  25  26
ENDBRANCH   4  25
TORSDOF 6
ENDMDL
MODEL 3
REMARK VINA RESULT:     -11.1      2.963      6.769
REMARK  Name = 5289411
REMARK  6 active torsions:
REMARK  status: ('A' for Active; 'I' for Inactive)
REMARK    1  A    between atoms: N_3  and  C_9
REMARK    2  A    between atoms: C_4  and  O_25
REMARK    3  A    between atoms: C_5  and  N_24
REMARK    4  A    between atoms: C_12  and  C_17
REMARK    5  A    between atoms: O_25  and  C_26
REMARK    6  A    between atoms: C_26  and  C_27
REMARK                            x       y       z     vdW  Elec       q    Type
REMARK                         _______ _______ _______ _____ _____    ______ ____
ROOT
ATOM      1  N   UNL     1      35.189 -23.616 -13.710  0.00  0.00    -0.293 NA
ATOM      2  N   UNL     1      37.508 -23.627 -13.055  0.00  0.00    -0.316 NA
ATOM      3  N   UNL     1      36.853 -22.811 -15.155  0.00  0.00    -0.238 N 
ATOM      4  C   UNL     1      34.889 -24.160 -12.513  0.00  0.00    +0.292 C 
ATOM      5  C   UNL     1      35.826 -24.462 -11.549  0.00  0.00    +0.261 C 
ATOM      6  C   UNL     1      37.135 -24.171 -11.878  0.00  0.00    +0.196 C 
ATOM      7  C   UNL     1      36.500 -23.379 -13.912  0.00  0.00    +0.207 C 
ATOM      8  H   UNL     1      37.820 -22.656 -15.259  0.00  0.00    +0.166 HD
ATOM      9  N   UNL     1      38.159 -24.452 -10.938  0.00  0.00    -0.334 N 
ATOM     10  H   UNL     1      39.097 -24.250 -11.157  0.00  0.00    +0.144 HD
ATOM     11  H   UNL     1      37.931 -24.849 -10.066  0.00  0.00    +0.144 HD
ENDROOT
BRANCH   3  12
ATOM     12  C   UNL     1      36.095 -22.421 -16.274  0.00  0.00    +0.058 C 
ATOM     13  C   UNL     1      34.748 -22.780 -16.368  0.00  0.00    +0.015 C 
ATOM     14  C   UNL     1      36.686 -21.677 -17.296  0.00  0.00    +0.015 C 
ATOM     15  C   UNL     1      34.591 -21.652 -18.498  0.00  0.00    +0.053 C 
ATOM     16  C   UNL     1      33.997 -22.395 -17.479  0.00  0.00    +0.006 C 
ATOM     17  C   UNL     1      35.936 -21.292 -18.408  0.00  0.00    +0.006 C 
BRANCH  15  20
ATOM     18  O   UNL     1      32.638 -21.643 -19.814  0.00  0.00    -0.270 OA
ATOM     19  N   UNL     1      34.405 -20.399 -20.581  0.00  0.00    -0.325 N 
ATOM     20  C   UNL     1      33.808 -21.252 -19.657  0.00  0.00    +0.243 C 
ATOM     21  H   UNL     1      33.905 -20.108 -21.377  0.00  0.00    +0.145 HD
ATOM     22  H   UNL     1      35.327 -20.088 -20.437  0.00  0.00    +0.145 HD
ENDBRANCH  15  20
ENDBRANCH   3  12
BRANCH   5  24
ATOM     23  O   UNL     1      35.653 -24.263  -9.376  0.00  0.00    -0.099 OA
ATOM     24  N   UNL     1      35.469 -25.017 -10.344  0.00  0.00    -0.030 NA
ENDBRANCH   5  24
BRANCH   4  25
ATOM     25  O   UNL     1      33.557 -24.410 -12.290  0.00  0.00    -0.453 OA
BRANCH  25  26
ATOM     26  C   UNL     1      32.640 -23.404 -12.678  0.00  0.00    +0.208 C 
BRANCH  26  27
ATOM     27  C   UNL     1      31.780 -23.946 -13.818  0.00  0.00    +0.044 C 
ATOM     28  C   UNL     1      30.723 -24.921 -13.282  0.00  0.00    +0.004 C 
ATOM     29  C   UNL     1      31.121 -22.798 -14.593  0.00  0.00    +0.004 C 
ATOM     30  C   UNL     1      29.815 -25.436 -14.397  0.00  0.00    +0.000 C 
ATOM     31  C   UNL     1      30.212 -23.316 -15.706  0.00  0.00    +0.000 C 
ATOM     32  C   UNL     1      29.169 -24.291 -15.170  0.00  0.00    +0.000 C 
ENDBRANCH  26  27
ENDBRANCH  25  26
ENDBRANCH   4  25
TORSDOF 6
ENDMDL
MODEL 4
REMARK VINA RESULT:     -11.1      1.104      1.517
REMARK  Name = 5289411
REMARK  6 active torsions:
REMARK  status: ('A' for Active; 'I' for Inactive)
REMARK    1  A    between atoms: N_3  and  C_9
REMARK    2  A    between atoms: C_4  and  O_25
REMARK    3  A    between atoms: C_5  and  N_24
REMARK    4  A    between atoms: C_12  and  C_17
REMARK    5  A    between atoms: O_25  and  C_26
REMARK    6  A    between atoms: C_26  and  C_27
REMARK                            x       y       z     vdW  Elec       q    Type
REMARK                         _______ _______ _______ _____ _____    ______ ____
ROOT
ATOM      1  N   UNL     1      33.112 -23.467 -15.478  0.00  0.00    -0.293 NA
ATOM      2  N   UNL     1      31.505 -23.730 -13.701  0.00  0.00    -0.316 NA
ATOM      3  N   UNL     1      33.760 -24.292 -13.380  0.00  0.00    -0.238 N 
ATOM      4  C   UNL     1      32.114 -23.008 -16.260  0.00  0.00    +0.292 C 
ATOM      5  C   UNL     1      30.806 -22.883 -15.843  0.00  0.00    +0.261 C 
ATOM      6  C   UNL     1      30.556 -23.262 -14.540  0.00  0.00    +0.196 C 
ATOM      7  C   UNL     1      32.742 -23.806 -14.228  0.00  0.00    +0.207 C 
ATOM      8  H   UNL     1      33.444 -24.527 -12.477  0.00  0.00    +0.166 HD
ATOM      9  N   UNL     1      29.235 -23.163 -14.036  0.00  0.00    -0.334 N 
ATOM     10  H   UNL     1      29.041 -23.430 -13.108  0.00  0.00    +0.144 HD
ATOM     11  H   UNL     1      28.512 -22.826 -14.613  0.00  0.00    +0.144 HD
ENDROOT
BRANCH   3  12
ATOM     12  C   UNL     1      35.138 -24.505 -13.570  0.00  0.00    +0.058 C 
ATOM     13  C   UNL     1      36.070 -23.689 -12.924  0.00  0.00    +0.015 C 
ATOM     14  C   UNL     1      35.579 -25.532 -14.408  0.00  0.00    +0.015 C 
ATOM     15  C   UNL     1      37.872 -24.926 -13.952  0.00  0.00    +0.053 C 
ATOM     16  C   UNL     1      37.435 -23.900 -13.115  0.00  0.00    +0.006 C 
ATOM     17  C   UNL     1      36.944 -25.743 -14.599  0.00  0.00    +0.006 C 
BRANCH  15  20
ATOM     18  O   UNL     1      39.966 -24.410 -14.898  0.00  0.00    -0.270 OA
ATOM     19  N   UNL     1      39.894 -26.195 -13.462  0.00  0.00    -0.325 N 
ATOM     20  C   UNL     1      39.296 -25.145 -14.151  0.00  0.00    +0.243 C 
ATOM     21  H   UNL     1      40.856 -26.373 -13.572  0.00  0.00    +0.145 HD
ATOM     22  H   UNL     1      39.354 -26.761 -12.864  0.00  0.00    +0.145 HD
ENDBRANCH  15  20
ENDBRANCH   3  12
BRANCH   5  24
ATOM     23  O   UNL     1      28.869 -23.188 -16.816  0.00  0.00    -0.099 OA
ATOM     24  N   UNL     1      29.824 -22.409 -16.679  0.00  0.00    -0.030 NA
ENDBRANCH   5  24
BRANCH   4  25
ATOM     25  O   UNL     1      32.472 -22.658 -17.539  0.00  0.00    -0.453 OA
BRANCH  25  26
ATOM     26  C   UNL     1      33.838 -22.795 -17.885  0.00  0.00    +0.208 C 
BRANCH  26  27
ATOM     27  C   UNL     1      34.304 -21.498 -18.543  0.00  0.00    +0.044 C 
ATOM     28  C   UNL     1      35.699 -21.673 -19.156  0.00  0.00    +0.004 C 
ATOM     29  C   UNL     1      33.296 -21.034 -19.603  0.00  0.00    +0.004 C 
ATOM     30  C   UNL     1      36.166 -20.404 -19.867  0.00  0.00    +0.000 C 
ATOM     31  C   UNL     1      33.766 -19.767 -20.313  0.00  0.00    +0.000 C 
ATOM     32  C   UNL     1      35.157 -19.943 -20.913  0.00  0.00    +0.000 C 
ENDBRANCH  26  27
ENDBRANCH  25  26
ENDBRANCH   4  25
TORSDOF 6
ENDMDL
MODEL 5
REMARK VINA RESULT:     -10.8      2.756      7.014
REMARK  Name = 5289411
REMARK  6 active torsions:
REMARK  status: ('A' for Active; 'I' for Inactive)
REMARK    1  A    between atoms: N_3  and  C_9
REMARK    2  A    between atoms: C_4  and  O_25
REMARK    3  A    between atoms: C_5  and  N_24
REMARK    4  A    between atoms: C_12  and  C_17
REMARK    5  A    between atoms: O_25  and  C_26
REMARK    6  A    between atoms: C_26  and  C_27
REMARK                            x       y       z     vdW  Elec       q    Type
REMARK                         _______ _______ _______ _____ _____    ______ ____
ROOT
ATOM      1  N   UNL     1      33.511 -22.626 -16.240  0.00  0.00    -0.293 NA
ATOM      2  N   UNL     1      31.234 -23.318 -16.619  0.00  0.00    -0.316 NA
ATOM      3  N   UNL     1      32.399 -22.072 -18.230  0.00  0.00    -0.238 N 
ATOM      4  C   UNL     1      33.457 -23.240 -15.040  0.00  0.00    +0.292 C 
ATOM      5  C   UNL     1      32.346 -23.903 -14.565  0.00  0.00    +0.261 C 
ATOM      6  C   UNL     1      31.251 -23.910 -15.406  0.00  0.00    +0.196 C 
ATOM      7  C   UNL     1      32.380 -22.703 -16.967  0.00  0.00    +0.207 C 
ATOM      8  H   UNL     1      31.551 -22.153 -18.725  0.00  0.00    +0.166 HD
ATOM      9  N   UNL     1      30.069 -24.573 -14.989  0.00  0.00    -0.334 N 
ATOM     10  H   UNL     1      29.279 -24.587 -15.578  0.00  0.00    +0.144 HD
ATOM     11  H   UNL     1      30.037 -25.018 -14.112  0.00  0.00    +0.144 HD
ENDROOT
BRANCH   3  12
ATOM     12  C   UNL     1      33.390 -21.350 -18.919  0.00  0.00    +0.058 C 
ATOM     13  C   UNL     1      34.740 -21.647 -18.719  0.00  0.00    +0.015 C 
ATOM     14  C   UNL     1      33.028 -20.332 -19.804  0.00  0.00    +0.015 C 
ATOM     15  C   UNL     1      35.357 -19.913 -20.285  0.00  0.00    +0.053 C 
ATOM     16  C   UNL     1      35.723 -20.929 -19.402  0.00  0.00    +0.006 C 
ATOM     17  C   UNL     1      34.010 -19.614 -20.486  0.00  0.00    +0.006 C 
BRANCH  15  20
ATOM     18  O   UNL     1      37.522 -19.016 -20.520  0.00  0.00    -0.270 OA
ATOM     19  N   UNL     1      36.053 -18.633 -22.238  0.00  0.00    -0.325 N 
ATOM     20  C   UNL     1      36.383 -19.165 -20.995  0.00  0.00    +0.243 C 
ATOM     21  H   UNL     1      36.722 -18.121 -22.747  0.00  0.00    +0.145 HD
ATOM     22  H   UNL     1      35.151 -18.769 -22.608  0.00  0.00    +0.145 HD
ENDBRANCH  15  20
ENDBRANCH   3  12
BRANCH   5  24
ATOM     23  O   UNL     1      31.628 -23.938 -12.498  0.00  0.00    -0.099 OA
ATOM     24  N   UNL     1      32.340 -24.512 -13.334  0.00  0.00    -0.030 NA
ENDBRANCH   5  24
BRANCH   4  25
ATOM     25  O   UNL     1      34.601 -23.171 -14.284  0.00  0.00    -0.453 OA
BRANCH  25  26
ATOM     26  C   UNL     1      35.831 -23.106 -14.981  0.00  0.00    +0.208 C 
BRANCH  26  27
ATOM     27  C   UNL     1      36.841 -24.003 -14.269  0.00  0.00    +0.044 C 
ATOM     28  C   UNL     1      37.089 -23.508 -12.838  0.00  0.00    +0.004 C 
ATOM     29  C   UNL     1      36.364 -25.462 -14.268  0.00  0.00    +0.004 C 
ATOM     30  C   UNL     1      38.056 -24.421 -12.086  0.00  0.00    +0.000 C 
ATOM     31  C   UNL     1      37.332 -26.371 -13.514  0.00  0.00    +0.000 C 
ATOM     32  C   UNL     1      37.582 -25.871 -12.095  0.00  0.00    +0.000 C 
ENDBRANCH  26  27
ENDBRANCH  25  26
ENDBRANCH   4  25
TORSDOF 6
ENDMDL
MODEL 6
REMARK VINA RESULT:     -10.8      2.859      5.368
REMARK  Name = 5289411
REMARK  6 active torsions:
REMARK  status: ('A' for Active; 'I' for Inactive)
REMARK    1  A    between atoms: N_3  and  C_9
REMARK    2  A    between atoms: C_4  and  O_25
REMARK    3  A    between atoms: C_5  and  N_24
REMARK    4  A    between atoms: C_12  and  C_17
REMARK    5  A    between atoms: O_25  and  C_26
REMARK    6  A    between atoms: C_26  and  C_27
REMARK                            x       y       z     vdW  Elec       q    Type
REMARK                         _______ _______ _______ _____ _____    ______ ____
ROOT
ATOM      1  N   UNL     1      34.755 -22.614 -17.032  0.00  0.00    -0.293 NA
ATOM      2  N   UNL     1      36.105 -21.159 -18.399  0.00  0.00    -0.316 NA
ATOM      3  N   UNL     1      36.974 -22.128 -16.447  0.00  0.00    -0.238 N 
ATOM      4  C   UNL     1      33.742 -22.428 -17.903  0.00  0.00    +0.292 C 
ATOM      5  C   UNL     1      33.831 -21.635 -19.028  0.00  0.00    +0.261 C 
ATOM      6  C   UNL     1      35.049 -21.018 -19.228  0.00  0.00    +0.196 C 
ATOM      7  C   UNL     1      35.891 -21.958 -17.336  0.00  0.00    +0.207 C 
ATOM      8  H   UNL     1      37.783 -21.630 -16.708  0.00  0.00    +0.166 HD
ATOM      9  N   UNL     1      35.220 -20.186 -20.363  0.00  0.00    -0.334 N 
ATOM     10  H   UNL     1      36.083 -19.739 -20.520  0.00  0.00    +0.144 HD
ATOM     11  H   UNL     1      34.476 -20.057 -20.994  0.00  0.00    +0.144 HD
ENDROOT
BRANCH   3  12
ATOM     12  C   UNL     1      37.124 -22.868 -15.260  0.00  0.00    +0.058 C 
ATOM     13  C   UNL     1      36.206 -22.717 -14.218  0.00  0.00    +0.015 C 
ATOM     14  C   UNL     1      38.194 -23.754 -15.118  0.00  0.00    +0.015 C 
ATOM     15  C   UNL     1      37.427 -24.335 -12.903  0.00  0.00    +0.053 C 
ATOM     16  C   UNL     1      36.357 -23.451 -13.041  0.00  0.00    +0.006 C 
ATOM     17  C   UNL     1      38.345 -24.487 -13.941  0.00  0.00    +0.006 C 
BRANCH  15  20
ATOM     18  O   UNL     1      37.661 -24.535 -10.568  0.00  0.00    -0.270 OA
ATOM     19  N   UNL     1      37.627 -26.485 -11.773  0.00  0.00    -0.325 N 
ATOM     20  C   UNL     1      37.584 -25.098 -11.674  0.00  0.00    +0.243 C 
ATOM     21  H   UNL     1      37.733 -27.033 -10.963  0.00  0.00    +0.145 HD
ATOM     22  H   UNL     1      37.552 -26.917 -12.655  0.00  0.00    +0.145 HD
ENDBRANCH  15  20
ENDBRANCH   3  12
BRANCH   5  24
ATOM     23  O   UNL     1      32.281 -20.339 -19.869  0.00  0.00    -0.099 OA
ATOM     24  N   UNL     1      32.769 -21.478 -19.885  0.00  0.00    -0.030 NA
ENDBRANCH   5  24
BRANCH   4  25
ATOM     25  O   UNL     1      32.575 -23.089 -17.609  0.00  0.00    -0.453 OA
BRANCH  25  26
ATOM     26  C   UNL     1      31.830 -22.618 -16.501  0.00  0.00    +0.208 C 
BRANCH  26  27
ATOM     27  C   UNL     1      31.682 -23.758 -15.496  0.00  0.00    +0.044 C 
ATOM     28  C   UNL     1      32.524 -23.487 -14.243  0.00  0.00    +0.004 C 
ATOM     29  C   UNL     1      30.207 -23.968 -15.128  0.00  0.00    +0.004 C 
ATOM     30  C   UNL     1      32.351 -24.589 -13.199  0.00  0.00    +0.000 C 
ATOM     31  C   UNL     1      30.037 -25.068 -14.083  0.00  0.00    +0.000 C 
ATOM     32  C   UNL     1      30.884 -24.800 -12.843  0.00  0.00    +0.000 C 
ENDBRANCH  26  27
ENDBRANCH  25  26
ENDBRANCH   4  25
TORSDOF 6
ENDMDL
MODEL 7
REMARK VINA RESULT:     -10.3      3.565      8.129
REMARK  Name = 5289411
REMARK  6 active torsions:
REMARK  status: ('A' for Active; 'I' for Inactive)
REMARK    1  A    between atoms: N_3  and  C_9
REMARK    2  A    between atoms: C_4  and  O_25
REMARK    3  A    between atoms: C_5  and  N_24
REMARK    4  A    between atoms: C_12  and  C_17
REMARK    5  A    between atoms: O_25  and  C_26
REMARK    6  A    between atoms: C_26  and  C_27
REMARK                            x       y       z     vdW  Elec       q    Type
REMARK                         _______ _______ _______ _____ _____    ______ ____
ROOT
ATOM      1  N   UNL     1      35.217 -21.970 -17.930  0.00  0.00    -0.293 NA
ATOM      2  N   UNL     1      37.255 -21.729 -16.667  0.00  0.00    -0.316 NA
ATOM      3  N   UNL     1      36.882 -20.461 -18.605  0.00  0.00    -0.238 N 
ATOM      4  C   UNL     1      34.817 -22.897 -17.036  0.00  0.00    +0.292 C 
ATOM      5  C   UNL     1      35.568 -23.288 -15.948  0.00  0.00    +0.261 C 
ATOM      6  C   UNL     1      36.791 -22.664 -15.811  0.00  0.00    +0.196 C 
ATOM      7  C   UNL     1      36.429 -21.435 -17.689  0.00  0.00    +0.207 C 
ATOM      8  H   UNL     1      37.772 -20.098 -18.390  0.00  0.00    +0.166 HD
ATOM      9  N   UNL     1      37.622 -23.013 -14.716  0.00  0.00    -0.334 N 
ATOM     10  H   UNL     1      38.498 -22.577 -14.605  0.00  0.00    +0.144 HD
ATOM     11  H   UNL     1      37.323 -23.689 -14.067  0.00  0.00    +0.144 HD
ENDROOT
BRANCH   3  12
ATOM     12  C   UNL     1      36.311 -19.907 -19.765  0.00  0.00    +0.058 C 
ATOM     13  C   UNL     1      37.053 -19.032 -20.562  0.00  0.00    +0.015 C 
ATOM     14  C   UNL     1      35.000 -20.227 -20.123  0.00  0.00    +0.015 C 
ATOM     15  C   UNL     1      35.176 -18.803 -22.066  0.00  0.00    +0.053 C 
ATOM     16  C   UNL     1      36.486 -18.481 -21.712  0.00  0.00    +0.006 C 
ATOM     17  C   UNL     1      34.433 -19.676 -21.273  0.00  0.00    +0.006 C 
BRANCH  15  20
ATOM     18  O   UNL     1      33.745 -18.850 -23.936  0.00  0.00    -0.270 OA
ATOM     19  N   UNL     1      34.978 -16.942 -23.627  0.00  0.00    -0.325 N 
ATOM     20  C   UNL     1      34.586 -18.226 -23.264  0.00  0.00    +0.243 C 
ATOM     21  H   UNL     1      34.599 -16.520 -24.432  0.00  0.00    +0.145 HD
ATOM     22  H   UNL     1      35.635 -16.455 -23.079  0.00  0.00    +0.145 HD
ENDBRANCH  15  20
ENDBRANCH   3  12
BRANCH   5  24
ATOM     23  O   UNL     1      35.732 -25.312 -15.129  0.00  0.00    -0.099 OA
ATOM     24  N   UNL     1      35.116 -24.238 -15.064  0.00  0.00    -0.030 NA
ENDBRANCH   5  24
BRANCH   4  25
ATOM     25  O   UNL     1      33.584 -23.454 -17.266  0.00  0.00    -0.453 OA
BRANCH  25  26
ATOM     26  C   UNL     1      32.452 -22.684 -16.907  0.00  0.00    +0.208 C 
BRANCH  26  27
ATOM     27  C   UNL     1      31.710 -23.406 -15.784  0.00  0.00    +0.044 C 
ATOM     28  C   UNL     1      32.185 -22.906 -14.413  0.00  0.00    +0.004 C 
ATOM     29  C   UNL     1      30.194 -23.230 -15.935  0.00  0.00    +0.004 C 
ATOM     30  C   UNL     1      31.420 -23.576 -13.273  0.00  0.00    +0.000 C 
ATOM     31  C   UNL     1      29.432 -23.899 -14.793  0.00  0.00    +0.000 C 
ATOM     32  C   UNL     1      29.913 -23.405 -13.432  0.00  0.00    +0.000 C 
ENDBRANCH  26  27
ENDBRANCH  25  26
ENDBRANCH   4  25
TORSDOF 6
ENDMDL
MODEL 8
REMARK VINA RESULT:     -10.1      8.681     12.110
REMARK  Name = 5289411
REMARK  6 active torsions:
REMARK  status: ('A' for Active; 'I' for Inactive)
REMARK    1  A    between atoms: N_3  and  C_9
REMARK    2  A    between atoms: C_4  and  O_25
REMARK    3  A    between atoms: C_5  and  N_24
REMARK    4  A    between atoms: C_12  and  C_17
REMARK    5  A    between atoms: O_25  and  C_26
REMARK    6  A    between atoms: C_26  and  C_27
REMARK                            x       y       z     vdW  Elec       q    Type
REMARK                         _______ _______ _______ _____ _____    ______ ____
ROOT
ATOM      1  N   UNL     1      34.279 -15.119 -22.950  0.00  0.00    -0.293 NA
ATOM      2  N   UNL     1      34.276 -15.333 -25.350  0.00  0.00    -0.316 NA
ATOM      3  N   UNL     1      34.807 -17.160 -23.978  0.00  0.00    -0.238 N 
ATOM      4  C   UNL     1      33.924 -13.827 -23.104  0.00  0.00    +0.292 C 
ATOM      5  C   UNL     1      33.730 -13.223 -24.328  0.00  0.00    +0.261 C 
ATOM      6  C   UNL     1      33.922 -14.033 -25.429  0.00  0.00    +0.196 C 
ATOM      7  C   UNL     1      34.436 -15.804 -24.099  0.00  0.00    +0.207 C 
ATOM      8  H   UNL     1      34.911 -17.621 -24.843  0.00  0.00    +0.166 HD
ATOM      9  N   UNL     1      33.740 -13.485 -26.724  0.00  0.00    -0.334 N 
ATOM     10  H   UNL     1      33.873 -14.050 -27.520  0.00  0.00    +0.144 HD
ATOM     11  H   UNL     1      33.482 -12.542 -26.828  0.00  0.00    +0.144 HD
ENDROOT
BRANCH   3  12
ATOM     12  C   UNL     1      35.058 -17.984 -22.865  0.00  0.00    +0.058 C 
ATOM     13  C   UNL     1      36.246 -17.846 -22.145  0.00  0.00    +0.015 C 
ATOM     14  C   UNL     1      34.120 -18.943 -22.479  0.00  0.00    +0.015 C 
ATOM     15  C   UNL     1      35.556 -19.622 -20.659  0.00  0.00    +0.053 C 
ATOM     16  C   UNL     1      36.495 -18.664 -21.042  0.00  0.00    +0.006 C 
ATOM     17  C   UNL     1      34.368 -19.762 -21.376  0.00  0.00    +0.006 C 
BRANCH  15  20
ATOM     18  O   UNL     1      36.795 -20.280 -18.767  0.00  0.00    -0.270 OA
ATOM     19  N   UNL     1      34.923 -21.511 -19.256  0.00  0.00    -0.325 N 
ATOM     20  C   UNL     1      35.817 -20.475 -19.510  0.00  0.00    +0.243 C 
ATOM     21  H   UNL     1      35.068 -22.108 -18.487  0.00  0.00    +0.145 HD
ATOM     22  H   UNL     1      34.146 -21.645 -19.845  0.00  0.00    +0.145 HD
ENDBRANCH  15  20
ENDBRANCH   3  12
BRANCH   5  24
ATOM     23  O   UNL     1      34.281 -11.168 -24.840  0.00  0.00    -0.099 OA
ATOM     24  N   UNL     1      33.369 -11.901 -24.432  0.00  0.00    -0.030 NA
ENDBRANCH   5  24
BRANCH   4  25
ATOM     25  O   UNL     1      33.760 -13.112 -21.942  0.00  0.00    -0.453 OA
BRANCH  25  26
ATOM     26  C   UNL     1      32.636 -13.430 -21.144  0.00  0.00    +0.208 C 
BRANCH  26  27
ATOM     27  C   UNL     1      31.901 -12.135 -20.803  0.00  0.00    +0.044 C 
ATOM     28  C   UNL     1      32.227 -11.690 -19.371  0.00  0.00    +0.004 C 
ATOM     29  C   UNL     1      32.250 -11.032 -21.810  0.00  0.00    +0.004 C 
ATOM     30  C   UNL     1      31.546 -10.368 -19.023  0.00  0.00    +0.000 C 
ATOM     31  C   UNL     1      31.569  -9.711 -21.459  0.00  0.00    +0.000 C 
ATOM     32  C   UNL     1      31.889  -9.277 -20.032  0.00  0.00    +0.000 C 
ENDBRANCH  26  27
ENDBRANCH  25  26
ENDBRANCH   4  25
TORSDOF 6
ENDMDL
MODEL 9
REMARK VINA RESULT:      -9.5      3.166      7.360
REMARK  Name = 5289411
REMARK  6 active torsions:
REMARK  status: ('A' for Active; 'I' for Inactive)
REMARK    1  A    between atoms: N_3  and  C_9
REMARK    2  A    between atoms: C_4  and  O_25
REMARK    3  A    between atoms: C_5  and  N_24
REMARK    4  A    between atoms: C_12  and  C_17
REMARK    5  A    between atoms: O_25  and  C_26
REMARK    6  A    between atoms: C_26  and  C_27
REMARK                            x       y       z     vdW  Elec       q    Type
REMARK                         _______ _______ _______ _____ _____    ______ ____
ROOT
ATOM      1  N   UNL     1      34.836 -22.535 -16.625  0.00  0.00    -0.293 NA
ATOM      2  N   UNL     1      36.988 -23.112 -15.707  0.00  0.00    -0.316 NA
ATOM      3  N   UNL     1      36.815 -21.736 -17.600  0.00  0.00    -0.238 N 
ATOM      4  C   UNL     1      34.266 -23.272 -15.650  0.00  0.00    +0.292 C 
ATOM      5  C   UNL     1      34.977 -23.950 -14.683  0.00  0.00    +0.261 C 
ATOM      6  C   UNL     1      36.350 -23.832 -14.760  0.00  0.00    +0.196 C 
ATOM      7  C   UNL     1      36.182 -22.498 -16.594  0.00  0.00    +0.207 C 
ATOM      8  H   UNL     1      37.798 -21.739 -17.539  0.00  0.00    +0.166 HD
ATOM      9  N   UNL     1      37.152 -24.500 -13.800  0.00  0.00    -0.334 N 
ATOM     10  H   UNL     1      38.133 -24.426 -13.842  0.00  0.00    +0.144 HD
ATOM     11  H   UNL     1      36.728 -25.035 -13.092  0.00  0.00    +0.144 HD
ENDROOT
BRANCH   3  12
ATOM     12  C   UNL     1      36.317 -20.973 -18.671  0.00  0.00    +0.058 C 
ATOM     13  C   UNL     1      35.006 -21.159 -19.115  0.00  0.00    +0.015 C 
ATOM     14  C   UNL     1      37.133 -20.028 -19.297  0.00  0.00    +0.015 C 
ATOM     15  C   UNL     1      35.331 -19.460 -20.802  0.00  0.00    +0.053 C 
ATOM     16  C   UNL     1      34.513 -20.403 -20.179  0.00  0.00    +0.006 C 
ATOM     17  C   UNL     1      36.641 -19.272 -20.361  0.00  0.00    +0.006 C 
BRANCH  15  20
ATOM     18  O   UNL     1      35.104 -17.470 -22.041  0.00  0.00    -0.270 OA
ATOM     19  N   UNL     1      34.005 -19.316 -22.841  0.00  0.00    -0.325 N 
ATOM     20  C   UNL     1      34.817 -18.673 -21.912  0.00  0.00    +0.243 C 
ATOM     21  H   UNL     1      33.639 -18.816 -23.606  0.00  0.00    +0.145 HD
ATOM     22  H   UNL     1      33.797 -20.272 -22.734  0.00  0.00    +0.145 HD
ENDBRANCH  15  20
ENDBRANCH   3  12
BRANCH   5  24
ATOM     23  O   UNL     1      34.487 -24.228 -12.568  0.00  0.00    -0.099 OA
ATOM     24  N   UNL     1      34.349 -24.689 -13.710  0.00  0.00    -0.030 NA
ENDBRANCH   5  24
BRANCH   4  25
ATOM     25  O   UNL     1      32.894 -23.321 -15.666  0.00  0.00    -0.453 OA
BRANCH  25  26
ATOM     26  C   UNL     1      32.212 -22.630 -14.636  0.00  0.00    +0.208 C 
BRANCH  26  27
ATOM     27  C   UNL     1      30.727 -22.976 -14.719  0.00  0.00    +0.044 C 
ATOM     28  C   UNL     1      30.159 -22.595 -16.093  0.00  0.00    +0.004 C 
ATOM     29  C   UNL     1      30.500 -24.465 -14.428  0.00  0.00    +0.004 C 
ATOM     30  C   UNL     1      28.686 -22.980 -16.220  0.00  0.00    +0.000 C 
ATOM     31  C   UNL     1      29.027 -24.847 -14.558  0.00  0.00    +0.000 C 
ATOM     32  C   UNL     1      28.464 -24.459 -15.921  0.00  0.00    +0.000 C 
ENDBRANCH  26  27
ENDBRANCH  25  26
ENDBRANCH   4  25
TORSDOF 6
ENDMDL
