MODEL 1
REMARK VINA RESULT:     -12.2      0.000      0.000
REMARK  Name = 60149
REMARK  5 active torsions:
REMARK  status: ('A' for Active; 'I' for Inactive)
REMARK    1  A    between atoms: N_2  and  C_12
REMARK    2  A    between atoms: C_3  and  C_19
REMARK    3  A    between atoms: N_18  and  C_25
REMARK    4  A    between atoms: C_25  and  C_26
REMARK    5  A    between atoms: C_26  and  N_28
REMARK                            x       y       z     vdW  Elec       q    Type
REMARK                         _______ _______ _______ _____ _____    ______ ____
ROOT
ATOM      1 CL   UNL     1      29.064 -22.978 -15.776  0.00  0.00    -0.082 Cl
ATOM      2  N   UNL     1      34.857 -23.532 -15.249  0.00  0.00    -0.265 N 
ATOM      3  C   UNL     1      34.175 -22.658 -17.166  0.00  0.00    -0.006 C 
ATOM      4  C   UNL     1      33.026 -22.938 -16.378  0.00  0.00    +0.012 C 
ATOM      5  C   UNL     1      35.284 -23.032 -16.449  0.00  0.00    +0.065 C 
ATOM      6  C   UNL     1      33.482 -23.486 -15.178  0.00  0.00    +0.055 C 
ATOM      7  C   UNL     1      31.639 -22.778 -16.568  0.00  0.00    +0.012 C 
ATOM      8  C   UNL     1      32.616 -23.883 -14.152  0.00  0.00    +0.016 C 
ATOM      9  C   UNL     1      30.762 -23.172 -15.551  0.00  0.00    +0.058 C 
ATOM     10  C   UNL     1      31.245 -23.716 -14.363  0.00  0.00    +0.013 C 
ENDROOT
BRANCH   2  12
ATOM     11  F   UNL     1      38.223 -25.422 -11.315  0.00  0.00    -0.204 F 
ATOM     12  C   UNL     1      35.710 -24.011 -14.251  0.00  0.00    +0.056 C 
ATOM     13  C   UNL     1      36.122 -23.158 -13.238  0.00  0.00    +0.017 C 
ATOM     14  C   UNL     1      36.132 -25.332 -14.292  0.00  0.00    +0.017 C 
ATOM     15  C   UNL     1      36.975 -23.637 -12.242  0.00  0.00    +0.031 C 
ATOM     16  C   UNL     1      36.985 -25.810 -13.297  0.00  0.00    +0.031 C 
ATOM     17  C   UNL     1      37.406 -24.963 -12.271  0.00  0.00    +0.140 C 
ENDBRANCH   2  12
BRANCH   3  19
ATOM     18  N   UNL     1      34.322 -19.802 -20.425  0.00  0.00    +0.388 N 
ATOM     19  C   UNL     1      34.184 -22.056 -18.553  0.00  0.00    +0.019 C 
ATOM     20  C   UNL     1      32.995 -21.114 -18.799  0.00  0.00    -0.018 C 
ATOM     21  C   UNL     1      35.500 -21.330 -18.876  0.00  0.00    -0.018 C 
ATOM     22  C   UNL     1      33.051 -20.505 -20.202  0.00  0.00    -0.077 C 
ATOM     23  C   UNL     1      35.464 -20.712 -20.276  0.00  0.00    -0.077 C 
ATOM     24  H   UNL     1      34.406 -19.072 -19.718  0.00  0.00    -0.080 HD
BRANCH  18  25
ATOM     25  C   UNL     1      34.335 -19.177 -21.748  0.00  0.00    -0.055 C 
BRANCH  25  26
ATOM     26  C   UNL     1      35.574 -18.310 -21.910  0.00  0.00    +0.077 C 
BRANCH  26  28
ATOM     27  O   UNL     1      35.167 -16.198 -19.811  0.00  0.00    -0.252 OA
ATOM     28  N   UNL     1      35.223 -16.923 -22.056  0.00  0.00    -0.243 N 
ATOM     29  N   UNL     1      34.751 -14.757 -21.609  0.00  0.00    -0.266 N 
ATOM     30  C   UNL     1      35.079 -16.289 -23.355  0.00  0.00    +0.085 C 
ATOM     31  C   UNL     1      34.648 -14.865 -23.042  0.00  0.00    +0.082 C 
ATOM     32  C   UNL     1      35.060 -15.990 -21.013  0.00  0.00    +0.311 C 
ATOM     33  H   UNL     1      34.619 -13.920 -21.108  0.00  0.00    +0.157 HD
ENDBRANCH  26  28
ENDBRANCH  25  26
ENDBRANCH  18  25
ENDBRANCH   3  19
TORSDOF 5
ENDMDL
MODEL 2
REMARK VINA RESULT:     -11.1      3.016      4.488
REMARK  Name = 60149
REMARK  5 active torsions:
REMARK  status: ('A' for Active; 'I' for Inactive)
REMARK    1  A    between atoms: N_2  and  C_12
REMARK    2  A    between atoms: C_3  and  C_19
REMARK    3  A    between atoms: N_18  and  C_25
REMARK    4  A    between atoms: C_25  and  C_26
REMARK    5  A    between atoms: C_26  and  N_28
REMARK                            x       y       z     vdW  Elec       q    Type
REMARK                         _______ _______ _______ _____ _____    ______ ____
ROOT
ATOM      1 CL   UNL     1      38.489 -23.416 -14.581  0.00  0.00    -0.082 Cl
ATOM      2  N   UNL     1      32.844 -23.306 -16.080  0.00  0.00    -0.265 N 
ATOM      3  C   UNL     1      34.218 -22.397 -17.559  0.00  0.00    -0.006 C 
ATOM      4  C   UNL     1      34.996 -22.862 -16.466  0.00  0.00    +0.012 C 
ATOM      5  C   UNL     1      32.902 -22.682 -17.297  0.00  0.00    +0.065 C 
ATOM      6  C   UNL     1      34.108 -23.429 -15.550  0.00  0.00    +0.055 C 
ATOM      7  C   UNL     1      36.372 -22.856 -16.163  0.00  0.00    +0.012 C 
ATOM      8  C   UNL     1      34.530 -23.995 -14.341  0.00  0.00    +0.016 C 
ATOM      9  C   UNL     1      36.807 -23.417 -14.957  0.00  0.00    +0.058 C 
ATOM     10  C   UNL     1      35.899 -23.977 -14.061  0.00  0.00    +0.013 C 
ENDROOT
BRANCH   2  12
ATOM     11  F   UNL     1      28.176 -25.051 -13.725  0.00  0.00    -0.204 F 
ATOM     12  C   UNL     1      31.660 -23.748 -15.483  0.00  0.00    +0.056 C 
ATOM     13  C   UNL     1      30.442 -23.275 -15.950  0.00  0.00    +0.017 C 
ATOM     14  C   UNL     1      31.723 -24.653 -14.433  0.00  0.00    +0.017 C 
ATOM     15  C   UNL     1      29.261 -23.716 -15.353  0.00  0.00    +0.031 C 
ATOM     16  C   UNL     1      30.541 -25.094 -13.836  0.00  0.00    +0.031 C 
ATOM     17  C   UNL     1      29.310 -24.626 -14.297  0.00  0.00    +0.140 C 
ENDBRANCH   2  12
BRANCH   3  19
ATOM     18  N   UNL     1      35.589 -19.343 -20.316  0.00  0.00    +0.388 N 
ATOM     19  C   UNL     1      34.740 -21.706 -18.799  0.00  0.00    +0.019 C 
ATOM     20  C   UNL     1      33.739 -20.695 -19.382  0.00  0.00    -0.018 C 
ATOM     21  C   UNL     1      36.098 -21.022 -18.571  0.00  0.00    -0.018 C 
ATOM     22  C   UNL     1      34.309 -19.999 -20.620  0.00  0.00    -0.077 C 
ATOM     23  C   UNL     1      36.582 -20.313 -19.838  0.00  0.00    -0.077 C 
ATOM     24  H   UNL     1      35.426 -18.666 -19.571  0.00  0.00    -0.080 HD
BRANCH  18  25
ATOM     25  C   UNL     1      36.091 -18.634 -21.494  0.00  0.00    -0.055 C 
BRANCH  25  26
ATOM     26  C   UNL     1      35.027 -18.595 -22.581  0.00  0.00    +0.077 C 
BRANCH  26  28
ATOM     27  O   UNL     1      33.846 -17.634 -25.172  0.00  0.00    -0.252 OA
ATOM     28  N   UNL     1      34.816 -17.254 -23.054  0.00  0.00    -0.243 N 
ATOM     29  N   UNL     1      34.204 -15.483 -24.320  0.00  0.00    -0.266 N 
ATOM     30  C   UNL     1      35.105 -16.087 -22.239  0.00  0.00    +0.085 C 
ATOM     31  C   UNL     1      34.799 -14.903 -23.143  0.00  0.00    +0.082 C 
ATOM     32  C   UNL     1      34.243 -16.886 -24.287  0.00  0.00    +0.311 C 
ATOM     33  H   UNL     1      33.817 -14.958 -25.058  0.00  0.00    +0.157 HD
ENDBRANCH  26  28
ENDBRANCH  25  26
ENDBRANCH  18  25
ENDBRANCH   3  19
TORSDOF 5
ENDMDL
MODEL 3
REMARK VINA RESULT:      -9.7      9.061     14.777
REMARK  Name = 60149
REMARK  5 active torsions:
REMARK  status: ('A' for Active; 'I' for Inactive)
REMARK    1  A    between atoms: N_2  and  C_12
REMARK    2  A    between atoms: C_3  and  C_19
REMARK    3  A    between atoms: N_18  and  C_25
REMARK    4  A    between atoms: C_25  and  C_26
REMARK    5  A    between atoms: C_26  and  N_28
REMARK                            x       y       z     vdW  Elec       q    Type
REMARK                         _______ _______ _______ _____ _____    ______ ____
ROOT
ATOM      1 CL   UNL     1      31.606 -10.633 -18.062  0.00  0.00    -0.082 Cl
ATOM      2  N   UNL     1      32.707  -7.875 -23.094  0.00  0.00    -0.265 N 
ATOM      3  C   UNL     1      33.128 -10.049 -23.111  0.00  0.00    -0.006 C 
ATOM      4  C   UNL     1      32.645  -9.706 -21.820  0.00  0.00    +0.012 C 
ATOM      5  C   UNL     1      33.156  -8.908 -23.872  0.00  0.00    +0.065 C 
ATOM      6  C   UNL     1      32.387  -8.334 -21.836  0.00  0.00    +0.055 C 
ATOM      7  C   UNL     1      32.401 -10.430 -20.636  0.00  0.00    +0.012 C 
ATOM      8  C   UNL     1      31.894  -7.646 -20.721  0.00  0.00    +0.016 C 
ATOM      9  C   UNL     1      31.909  -9.754 -19.514  0.00  0.00    +0.058 C 
ATOM     10  C   UNL     1      31.660  -8.384 -19.557  0.00  0.00    +0.013 C 
ENDROOT
BRANCH   2  12
ATOM     11  F   UNL     1      32.260  -2.664 -24.831  0.00  0.00    -0.204 F 
ATOM     12  C   UNL     1      32.594  -6.554 -23.534  0.00  0.00    +0.056 C 
ATOM     13  C   UNL     1      31.350  -5.939 -23.535  0.00  0.00    +0.017 C 
ATOM     14  C   UNL     1      33.727  -5.879 -23.964  0.00  0.00    +0.017 C 
ATOM     15  C   UNL     1      31.237  -4.620 -23.976  0.00  0.00    +0.031 C 
ATOM     16  C   UNL     1      33.614  -4.560 -24.405  0.00  0.00    +0.031 C 
ATOM     17  C   UNL     1      32.369  -3.930 -24.410  0.00  0.00    +0.140 C 
ENDBRANCH   2  12
BRANCH   3  19
ATOM     18  N   UNL     1      32.998 -14.093 -24.669  0.00  0.00    +0.388 N 
ATOM     19  C   UNL     1      33.544 -11.427 -23.575  0.00  0.00    +0.019 C 
ATOM     20  C   UNL     1      32.913 -12.551 -22.736  0.00  0.00    -0.018 C 
ATOM     21  C   UNL     1      33.254 -11.664 -25.065  0.00  0.00    -0.018 C 
ATOM     22  C   UNL     1      33.336 -13.930 -23.248  0.00  0.00    -0.077 C 
ATOM     23  C   UNL     1      33.663 -13.076 -25.493  0.00  0.00    -0.077 C 
ATOM     24  H   UNL     1      31.991 -13.971 -24.770  0.00  0.00    -0.080 HD
BRANCH  18  25
ATOM     25  C   UNL     1      33.356 -15.436 -25.128  0.00  0.00    -0.055 C 
BRANCH  25  26
ATOM     26  C   UNL     1      34.746 -15.810 -24.633  0.00  0.00    +0.077 C 
BRANCH  26  28
ATOM     27  O   UNL     1      35.581 -16.314 -21.790  0.00  0.00    -0.252 OA
ATOM     28  N   UNL     1      34.715 -17.026 -23.866  0.00  0.00    -0.243 N 
ATOM     29  N   UNL     1      34.890 -18.517 -22.175  0.00  0.00    -0.266 N 
ATOM     30  C   UNL     1      34.159 -18.262 -24.390  0.00  0.00    +0.085 C 
ATOM     31  C   UNL     1      34.388 -19.283 -23.287  0.00  0.00    +0.082 C 
ATOM     32  C   UNL     1      35.119 -17.177 -22.525  0.00  0.00    +0.311 C 
ATOM     33  H   UNL     1      35.053 -18.889 -21.278  0.00  0.00    +0.157 HD
ENDBRANCH  26  28
ENDBRANCH  25  26
ENDBRANCH  18  25
ENDBRANCH   3  19
TORSDOF 5
ENDMDL
MODEL 4
REMARK VINA RESULT:      -9.6      6.166     10.009
REMARK  Name = 60149
REMARK  5 active torsions:
REMARK  status: ('A' for Active; 'I' for Inactive)
REMARK    1  A    between atoms: N_2  and  C_12
REMARK    2  A    between atoms: C_3  and  C_19
REMARK    3  A    between atoms: N_18  and  C_25
REMARK    4  A    between atoms: C_25  and  C_26
REMARK    5  A    between atoms: C_26  and  N_28
REMARK                            x       y       z     vdW  Elec       q    Type
REMARK                         _______ _______ _______ _____ _____    ______ ____
ROOT
ATOM      1 CL   UNL     1      33.896 -14.528 -26.707  0.00  0.00    -0.082 Cl
ATOM      2  N   UNL     1      34.840 -16.744 -21.384  0.00  0.00    -0.265 N 
ATOM      3  C   UNL     1      34.061 -14.672 -21.406  0.00  0.00    -0.006 C 
ATOM      4  C   UNL     1      34.196 -15.104 -22.752  0.00  0.00    +0.012 C 
ATOM      5  C   UNL     1      34.463 -15.697 -20.587  0.00  0.00    +0.065 C 
ATOM      6  C   UNL     1      34.686 -16.410 -22.711  0.00  0.00    +0.055 C 
ATOM      7  C   UNL     1      33.947 -14.511 -24.006  0.00  0.00    +0.012 C 
ATOM      8  C   UNL     1      34.942 -17.157 -23.867  0.00  0.00    +0.016 C 
ATOM      9  C   UNL     1      34.199 -15.246 -25.170  0.00  0.00    +0.058 C 
ATOM     10  C   UNL     1      34.689 -16.549 -25.099  0.00  0.00    +0.013 C 
ENDROOT
BRANCH   2  12
ATOM     11  F   UNL     1      36.682 -21.574 -19.471  0.00  0.00    -0.204 F 
ATOM     12  C   UNL     1      35.307 -17.969 -20.899  0.00  0.00    +0.056 C 
ATOM     13  C   UNL     1      36.671 -18.166 -20.744  0.00  0.00    +0.017 C 
ATOM     14  C   UNL     1      34.398 -18.967 -20.580  0.00  0.00    +0.017 C 
ATOM     15  C   UNL     1      37.138 -19.389 -20.261  0.00  0.00    +0.031 C 
ATOM     16  C   UNL     1      34.865 -20.190 -20.097  0.00  0.00    +0.031 C 
ATOM     17  C   UNL     1      36.234 -20.401 -19.936  0.00  0.00    +0.140 C 
ENDBRANCH   2  12
BRANCH   3  19
ATOM     18  N   UNL     1      31.508 -11.248 -20.655  0.00  0.00    +0.388 N 
ATOM     19  C   UNL     1      33.564 -13.320 -20.945  0.00  0.00    +0.019 C 
ATOM     20  C   UNL     1      33.133 -12.416 -22.111  0.00  0.00    -0.018 C 
ATOM     21  C   UNL     1      32.425 -13.424 -19.918  0.00  0.00    -0.018 C 
ATOM     22  C   UNL     1      32.614 -11.068 -21.606  0.00  0.00    -0.077 C 
ATOM     23  C   UNL     1      31.931 -12.039 -19.493  0.00  0.00    -0.077 C 
ATOM     24  H   UNL     1      30.765 -11.758 -21.130  0.00  0.00    -0.080 HD
BRANCH  18  25
ATOM     25  C   UNL     1      30.987  -9.949 -20.227  0.00  0.00    -0.055 C 
BRANCH  25  26
ATOM     26  C   UNL     1      32.116  -9.071 -19.709  0.00  0.00    +0.077 C 
BRANCH  26  28
ATOM     27  O   UNL     1      33.767  -6.619 -19.162  0.00  0.00    -0.252 OA
ATOM     28  N   UNL     1      32.166  -7.818 -20.414  0.00  0.00    -0.243 N 
ATOM     29  N   UNL     1      32.728  -5.726 -21.060  0.00  0.00    -0.266 N 
ATOM     30  C   UNL     1      31.412  -7.581 -21.633  0.00  0.00    +0.085 C 
ATOM     31  C   UNL     1      31.708  -6.133 -21.991  0.00  0.00    +0.082 C 
ATOM     32  C   UNL     1      32.980  -6.714 -20.096  0.00  0.00    +0.311 C 
ATOM     33  H   UNL     1      33.192  -4.857 -21.095  0.00  0.00    +0.157 HD
ENDBRANCH  26  28
ENDBRANCH  25  26
ENDBRANCH  18  25
ENDBRANCH   3  19
TORSDOF 5
ENDMDL
MODEL 5
REMARK VINA RESULT:      -9.5      7.946     14.191
REMARK  Name = 60149
REMARK  5 active torsions:
REMARK  status: ('A' for Active; 'I' for Inactive)
REMARK    1  A    between atoms: N_2  and  C_12
REMARK    2  A    between atoms: C_3  and  C_19
REMARK    3  A    between atoms: N_18  and  C_25
REMARK    4  A    between atoms: C_25  and  C_26
REMARK    5  A    between atoms: C_26  and  N_28
REMARK                            x       y       z     vdW  Elec       q    Type
REMARK                         _______ _______ _______ _____ _____    ______ ____
ROOT
ATOM      1 CL   UNL     1      31.572 -10.530 -17.330  0.00  0.00    -0.082 Cl
ATOM      2  N   UNL     1      32.599  -8.569 -22.737  0.00  0.00    -0.265 N 
ATOM      3  C   UNL     1      32.681 -10.770 -22.513  0.00  0.00    -0.006 C 
ATOM      4  C   UNL     1      32.380 -10.211 -21.243  0.00  0.00    +0.012 C 
ATOM      5  C   UNL     1      32.810  -9.741 -23.411  0.00  0.00    +0.065 C 
ATOM      6  C   UNL     1      32.333  -8.826 -21.410  0.00  0.00    +0.055 C 
ATOM      7  C   UNL     1      32.142 -10.748 -19.961  0.00  0.00    +0.012 C 
ATOM      8  C   UNL     1      32.058  -7.947 -20.356  0.00  0.00    +0.016 C 
ATOM      9  C   UNL     1      31.866  -9.881 -18.899  0.00  0.00    +0.058 C 
ATOM     10  C   UNL     1      31.826  -8.502 -19.095  0.00  0.00    +0.013 C 
ENDROOT
BRANCH   2  12
ATOM     11  F   UNL     1      32.787  -3.582 -25.075  0.00  0.00    -0.204 F 
ATOM     12  C   UNL     1      32.647  -7.304 -23.330  0.00  0.00    +0.056 C 
ATOM     13  C   UNL     1      31.472  -6.712 -23.771  0.00  0.00    +0.017 C 
ATOM     14  C   UNL     1      33.868  -6.662 -23.468  0.00  0.00    +0.017 C 
ATOM     15  C   UNL     1      31.520  -5.450 -24.364  0.00  0.00    +0.031 C 
ATOM     16  C   UNL     1      33.916  -5.400 -24.061  0.00  0.00    +0.031 C 
ATOM     17  C   UNL     1      32.742  -4.793 -24.508  0.00  0.00    +0.140 C 
ENDBRANCH   2  12
BRANCH   3  19
ATOM     18  N   UNL     1      34.412 -14.614 -23.530  0.00  0.00    +0.388 N 
ATOM     19  C   UNL     1      32.836 -12.241 -22.830  0.00  0.00    +0.019 C 
ATOM     20  C   UNL     1      33.369 -12.489 -24.251  0.00  0.00    -0.018 C 
ATOM     21  C   UNL     1      33.715 -12.979 -21.808  0.00  0.00    -0.018 C 
ATOM     22  C   UNL     1      33.536 -13.985 -24.528  0.00  0.00    -0.077 C 
ATOM     23  C   UNL     1      33.870 -14.458 -22.174  0.00  0.00    -0.077 C 
ATOM     24  H   UNL     1      35.316 -14.143 -23.564  0.00  0.00    -0.080 HD
BRANCH  18  25
ATOM     25  C   UNL     1      34.608 -16.030 -23.842  0.00  0.00    -0.055 C 
BRANCH  25  26
ATOM     26  C   UNL     1      35.774 -16.591 -23.043  0.00  0.00    +0.077 C 
BRANCH  26  28
ATOM     27  O   UNL     1      35.437 -16.733 -20.059  0.00  0.00    -0.252 OA
ATOM     28  N   UNL     1      35.357 -17.690 -22.215  0.00  0.00    -0.243 N 
ATOM     29  N   UNL     1      34.760 -18.942 -20.429  0.00  0.00    -0.266 N 
ATOM     30  C   UNL     1      34.937 -18.965 -22.769  0.00  0.00    +0.085 C 
ATOM     31  C   UNL     1      34.650 -19.835 -21.555  0.00  0.00    +0.082 C 
ATOM     32  C   UNL     1      35.214 -17.671 -20.814  0.00  0.00    +0.311 C 
ATOM     33  H   UNL     1      34.542 -19.194 -19.503  0.00  0.00    +0.157 HD
ENDBRANCH  26  28
ENDBRANCH  25  26
ENDBRANCH  18  25
ENDBRANCH   3  19
TORSDOF 5
ENDMDL
