MODEL 1
REMARK VINA RESULT:     -12.8      0.000      0.000
REMARK  Name = 44141871
REMARK  6 active torsions:
REMARK  status: ('A' for Active; 'I' for Inactive)
REMARK    1  A    between atoms: C_1  and  C_10
REMARK    2  A    between atoms: C_4  and  O_20
REMARK    3  A    between atoms: C_9  and  C_13
REMARK    4  A    between atoms: C_13  and  C_15
REMARK    5  A    between atoms: O_20  and  C_21
REMARK    6  A    between atoms: C_21  and  C_23
REMARK                            x       y       z     vdW  Elec       q    Type
REMARK                         _______ _______ _______ _____ _____    ______ ____
ROOT
ATOM      1  C   UNL     1      35.044 -18.114 -22.302  0.00  0.00    +0.015 C 
ATOM      2  C   UNL     1      36.364 -18.026 -21.858  0.00  0.00    +0.004 C 
ATOM      3  C   UNL     1      34.174 -19.037 -21.722  0.00  0.00    +0.004 C 
ATOM      4  C   UNL     1      35.942 -19.784 -20.255  0.00  0.00    +0.139 C 
ATOM      5  C   UNL     1      36.812 -18.861 -20.835  0.00  0.00    +0.037 C 
ATOM      6  C   UNL     1      34.623 -19.872 -20.698  0.00  0.00    +0.037 C 
ENDROOT
BRANCH   1  10
ATOM      7  N   UNL     1      34.027 -17.730 -24.510  0.00  0.00    -0.236 N 
ATOM      8  N   UNL     1      33.657 -16.770 -25.377  0.00  0.00    -0.180 NA
ATOM      9  C   UNL     1      34.574 -15.882 -23.481  0.00  0.00    +0.018 C 
ATOM     10  C   UNL     1      34.580 -17.251 -23.360  0.00  0.00    +0.063 C 
ATOM     11  C   UNL     1      33.994 -15.644 -24.743  0.00  0.00    +0.115 C 
ATOM     12  H   UNL     1      33.907 -18.691 -24.690  0.00  0.00    +0.174 HD
BRANCH   9  13
ATOM     13  C   UNL     1      35.061 -14.880 -22.518  0.00  0.00    +0.056 C 
BRANCH  13  15
ATOM     14  N   UNL     1      31.976 -12.380 -20.820  0.00  0.00    -0.242 NA
ATOM     15  C   UNL     1      33.973 -13.998 -21.919  0.00  0.00    -0.015 C 
ATOM     16  C   UNL     1      33.505 -12.893 -22.622  0.00  0.00    +0.017 C 
ATOM     17  C   UNL     1      33.444 -14.295 -20.668  0.00  0.00    +0.017 C 
ATOM     18  C   UNL     1      32.515 -12.123 -22.033  0.00  0.00    +0.099 C 
ATOM     19  C   UNL     1      32.456 -13.462 -20.167  0.00  0.00    +0.099 C 
ENDBRANCH  13  15
ENDBRANCH   9  13
ENDBRANCH   1  10
BRANCH   4  20
ATOM     20  O   UNL     1      36.382 -20.601 -19.248  0.00  0.00    -0.468 OA
BRANCH  20  21
ATOM     21  C   UNL     1      35.550 -21.703 -18.907  0.00  0.00    +0.264 C 
BRANCH  21  23
ATOM     22  N   UNL     1      34.763 -22.730 -16.862  0.00  0.00    -0.406 NA
ATOM     23  C   UNL     1      35.767 -22.064 -17.476  0.00  0.00    +0.152 C 
ATOM     24  C   UNL     1      36.095 -22.757 -14.855  0.00  0.00    +0.026 C 
ATOM     25  C   UNL     1      34.922 -23.073 -15.570  0.00  0.00    +0.113 C 
ATOM     26  C   UNL     1      36.950 -21.711 -16.860  0.00  0.00    +0.031 C 
ATOM     27  C   UNL     1      37.112 -22.066 -15.528  0.00  0.00    +0.005 C 
ATOM     28  C   UNL     1      36.228 -23.131 -13.507  0.00  0.00    +0.002 C 
ATOM     29  C   UNL     1      33.912 -23.760 -14.900  0.00  0.00    +0.085 C 
ATOM     30  C   UNL     1      35.202 -23.817 -12.862  0.00  0.00    -0.004 C 
ATOM     31  C   UNL     1      34.043 -24.132 -13.560  0.00  0.00    -0.019 C 
ENDBRANCH  21  23
ENDBRANCH  20  21
ENDBRANCH   4  20
TORSDOF 6
ENDMDL
MODEL 2
REMARK VINA RESULT:     -12.8      0.054      1.232
REMARK  Name = 44141871
REMARK  6 active torsions:
REMARK  status: ('A' for Active; 'I' for Inactive)
REMARK    1  A    between atoms: C_1  and  C_10
REMARK    2  A    between atoms: C_4  and  O_20
REMARK    3  A    between atoms: C_9  and  C_13
REMARK    4  A    between atoms: C_13  and  C_15
REMARK    5  A    between atoms: O_20  and  C_21
REMARK    6  A    between atoms: C_21  and  C_23
REMARK                            x       y       z     vdW  Elec       q    Type
REMARK                         _______ _______ _______ _____ _____    ______ ____
ROOT
ATOM      1  C   UNL     1      35.032 -18.107 -22.322  0.00  0.00    +0.015 C 
ATOM      2  C   UNL     1      34.177 -19.072 -21.790  0.00  0.00    +0.004 C 
ATOM      3  C   UNL     1      36.333 -17.983 -21.834  0.00  0.00    +0.004 C 
ATOM      4  C   UNL     1      35.924 -19.789 -20.282  0.00  0.00    +0.139 C 
ATOM      5  C   UNL     1      34.623 -19.913 -20.770  0.00  0.00    +0.037 C 
ATOM      6  C   UNL     1      36.779 -18.824 -20.815  0.00  0.00    +0.037 C 
ENDROOT
BRANCH   1  10
ATOM      7  N   UNL     1      34.014 -17.712 -24.528  0.00  0.00    -0.236 N 
ATOM      8  N   UNL     1      33.648 -16.748 -25.391  0.00  0.00    -0.180 NA
ATOM      9  C   UNL     1      34.571 -15.870 -23.494  0.00  0.00    +0.018 C 
ATOM     10  C   UNL     1      34.571 -17.239 -23.377  0.00  0.00    +0.063 C 
ATOM     11  C   UNL     1      33.990 -15.625 -24.754  0.00  0.00    +0.115 C 
ATOM     12  H   UNL     1      33.890 -18.671 -24.711  0.00  0.00    +0.174 HD
BRANCH   9  13
ATOM     13  C   UNL     1      35.063 -14.873 -22.528  0.00  0.00    +0.056 C 
BRANCH  13  15
ATOM     14  N   UNL     1      31.995 -12.347 -20.838  0.00  0.00    -0.242 NA
ATOM     15  C   UNL     1      33.981 -13.982 -21.932  0.00  0.00    -0.015 C 
ATOM     16  C   UNL     1      33.432 -14.287 -20.691  0.00  0.00    +0.017 C 
ATOM     17  C   UNL     1      33.539 -12.861 -22.626  0.00  0.00    +0.017 C 
ATOM     18  C   UNL     1      32.450 -13.445 -20.193  0.00  0.00    +0.099 C 
ATOM     19  C   UNL     1      32.553 -12.083 -22.041  0.00  0.00    +0.099 C 
ENDBRANCH  13  15
ENDBRANCH   9  13
ENDBRANCH   1  10
BRANCH   4  20
ATOM     20  O   UNL     1      36.363 -20.617 -19.283  0.00  0.00    -0.468 OA
BRANCH  20  21
ATOM     21  C   UNL     1      35.500 -21.682 -18.908  0.00  0.00    +0.264 C 
BRANCH  21  23
ATOM     22  N   UNL     1      34.766 -22.712 -16.844  0.00  0.00    -0.406 NA
ATOM     23  C   UNL     1      35.756 -22.049 -17.484  0.00  0.00    +0.152 C 
ATOM     24  C   UNL     1      36.155 -22.752 -14.876  0.00  0.00    +0.026 C 
ATOM     25  C   UNL     1      34.960 -23.060 -15.558  0.00  0.00    +0.113 C 
ATOM     26  C   UNL     1      36.958 -21.704 -16.901  0.00  0.00    +0.031 C 
ATOM     27  C   UNL     1      37.155 -22.064 -15.576  0.00  0.00    +0.005 C 
ATOM     28  C   UNL     1      36.324 -23.132 -13.534  0.00  0.00    +0.002 C 
ATOM     29  C   UNL     1      33.966 -23.745 -14.862  0.00  0.00    +0.085 C 
ATOM     30  C   UNL     1      35.314 -23.814 -12.862  0.00  0.00    -0.004 C 
ATOM     31  C   UNL     1      34.134 -24.122 -13.527  0.00  0.00    -0.019 C 
ENDBRANCH  21  23
ENDBRANCH  20  21
ENDBRANCH   4  20
TORSDOF 6
ENDMDL
MODEL 3
REMARK VINA RESULT:     -12.6      0.865      1.784
REMARK  Name = 44141871
REMARK  6 active torsions:
REMARK  status: ('A' for Active; 'I' for Inactive)
REMARK    1  A    between atoms: C_1  and  C_10
REMARK    2  A    between atoms: C_4  and  O_20
REMARK    3  A    between atoms: C_9  and  C_13
REMARK    4  A    between atoms: C_13  and  C_15
REMARK    5  A    between atoms: O_20  and  C_21
REMARK    6  A    between atoms: C_21  and  C_23
REMARK                            x       y       z     vdW  Elec       q    Type
REMARK                         _______ _______ _______ _____ _____    ______ ____
ROOT
ATOM      1  C   UNL     1      34.974 -18.118 -22.293  0.00  0.00    +0.015 C 
ATOM      2  C   UNL     1      34.058 -19.030 -21.770  0.00  0.00    +0.004 C 
ATOM      3  C   UNL     1      36.256 -18.029 -21.750  0.00  0.00    +0.004 C 
ATOM      4  C   UNL     1      35.705 -19.764 -20.162  0.00  0.00    +0.139 C 
ATOM      5  C   UNL     1      34.423 -19.854 -20.705  0.00  0.00    +0.037 C 
ATOM      6  C   UNL     1      36.622 -18.852 -20.686  0.00  0.00    +0.037 C 
ENDROOT
BRANCH   1  10
ATOM      7  N   UNL     1      34.075 -17.757 -24.556  0.00  0.00    -0.236 N 
ATOM      8  N   UNL     1      33.786 -16.808 -25.464  0.00  0.00    -0.180 NA
ATOM      9  C   UNL     1      34.652 -15.904 -23.552  0.00  0.00    +0.018 C 
ATOM     10  C   UNL     1      34.595 -17.267 -23.394  0.00  0.00    +0.063 C 
ATOM     11  C   UNL     1      34.140 -15.679 -24.845  0.00  0.00    +0.115 C 
ATOM     12  H   UNL     1      33.924 -18.717 -24.715  0.00  0.00    +0.174 HD
BRANCH   9  13
ATOM     13  C   UNL     1      35.136 -14.895 -22.595  0.00  0.00    +0.056 C 
BRANCH  13  15
ATOM     14  N   UNL     1      32.094 -12.190 -21.151  0.00  0.00    -0.242 NA
ATOM     15  C   UNL     1      34.063 -13.941 -22.086  0.00  0.00    -0.015 C 
ATOM     16  C   UNL     1      33.695 -12.835 -22.845  0.00  0.00    +0.017 C 
ATOM     17  C   UNL     1      33.448 -14.172 -20.861  0.00  0.00    +0.017 C 
ATOM     18  C   UNL     1      32.715 -11.998 -22.337  0.00  0.00    +0.099 C 
ATOM     19  C   UNL     1      32.478 -13.275 -20.442  0.00  0.00    +0.099 C 
ENDBRANCH  13  15
ENDBRANCH   9  13
ENDBRANCH   1  10
BRANCH   4  20
ATOM     20  O   UNL     1      36.066 -20.575 -19.119  0.00  0.00    -0.468 OA
BRANCH  20  21
ATOM     21  C   UNL     1      35.718 -21.949 -19.225  0.00  0.00    +0.264 C 
BRANCH  21  23
ATOM     22  N   UNL     1      35.459 -22.658 -16.925  0.00  0.00    -0.406 NA
ATOM     23  C   UNL     1      34.838 -22.327 -18.080  0.00  0.00    +0.152 C 
ATOM     24  C   UNL     1      33.290 -23.031 -15.944  0.00  0.00    +0.026 C 
ATOM     25  C   UNL     1      34.698 -23.005 -15.870  0.00  0.00    +0.113 C 
ATOM     26  C   UNL     1      33.469 -22.324 -18.249  0.00  0.00    +0.031 C 
ATOM     27  C   UNL     1      32.687 -22.682 -17.160  0.00  0.00    +0.005 C 
ATOM     28  C   UNL     1      32.527 -23.398 -14.822  0.00  0.00    +0.002 C 
ATOM     29  C   UNL     1      35.297 -23.353 -14.661  0.00  0.00    +0.085 C 
ATOM     30  C   UNL     1      33.152 -23.741 -13.626  0.00  0.00    -0.004 C 
ATOM     31  C   UNL     1      34.539 -23.718 -13.546  0.00  0.00    -0.019 C 
ENDBRANCH  21  23
ENDBRANCH  20  21
ENDBRANCH   4  20
TORSDOF 6
ENDMDL
MODEL 4
REMARK VINA RESULT:     -12.6      1.730      2.570
REMARK  Name = 44141871
REMARK  6 active torsions:
REMARK  status: ('A' for Active; 'I' for Inactive)
REMARK    1  A    between atoms: C_1  and  C_10
REMARK    2  A    between atoms: C_4  and  O_20
REMARK    3  A    between atoms: C_9  and  C_13
REMARK    4  A    between atoms: C_13  and  C_15
REMARK    5  A    between atoms: O_20  and  C_21
REMARK    6  A    between atoms: C_21  and  C_23
REMARK                            x       y       z     vdW  Elec       q    Type
REMARK                         _______ _______ _______ _____ _____    ______ ____
ROOT
ATOM      1  C   UNL     1      34.768 -18.795 -21.875  0.00  0.00    +0.015 C 
ATOM      2  C   UNL     1      33.633 -19.421 -21.360  0.00  0.00    +0.004 C 
ATOM      3  C   UNL     1      36.018 -19.045 -21.309  0.00  0.00    +0.004 C 
ATOM      4  C   UNL     1      34.998 -20.548 -19.715  0.00  0.00    +0.139 C 
ATOM      5  C   UNL     1      33.748 -20.298 -20.281  0.00  0.00    +0.037 C 
ATOM      6  C   UNL     1      36.133 -19.921 -20.230  0.00  0.00    +0.037 C 
ENDROOT
BRANCH   1  10
ATOM      7  N   UNL     1      34.288 -18.306 -24.238  0.00  0.00    -0.236 N 
ATOM      8  N   UNL     1      34.233 -17.315 -25.146  0.00  0.00    -0.180 NA
ATOM      9  C   UNL     1      34.845 -16.534 -23.088  0.00  0.00    +0.018 C 
ATOM     10  C   UNL     1      34.649 -17.890 -22.991  0.00  0.00    +0.063 C 
ATOM     11  C   UNL     1      34.574 -16.235 -24.437  0.00  0.00    +0.115 C 
ATOM     12  H   UNL     1      34.086 -19.244 -24.455  0.00  0.00    +0.174 HD
BRANCH   9  13
ATOM     13  C   UNL     1      35.247 -15.593 -22.028  0.00  0.00    +0.056 C 
BRANCH  13  15
ATOM     14  N   UNL     1      32.561 -12.256 -21.480  0.00  0.00    -0.242 NA
ATOM     15  C   UNL     1      34.299 -14.416 -21.835  0.00  0.00    -0.015 C 
ATOM     16  C   UNL     1      33.534 -14.319 -20.677  0.00  0.00    +0.017 C 
ATOM     17  C   UNL     1      34.196 -13.435 -22.814  0.00  0.00    +0.017 C 
ATOM     18  C   UNL     1      32.688 -13.230 -20.550  0.00  0.00    +0.099 C 
ATOM     19  C   UNL     1      33.321 -12.385 -22.590  0.00  0.00    +0.099 C 
ENDBRANCH  13  15
ENDBRANCH   9  13
ENDBRANCH   1  10
BRANCH   4  20
ATOM     20  O   UNL     1      35.112 -21.410 -18.658  0.00  0.00    -0.468 OA
BRANCH  20  21
ATOM     21  C   UNL     1      34.306 -22.581 -18.696  0.00  0.00    +0.264 C 
BRANCH  21  23
ATOM     22  N   UNL     1      32.331 -22.723 -17.303  0.00  0.00    -0.406 NA
ATOM     23  C   UNL     1      33.680 -22.796 -17.358  0.00  0.00    +0.152 C 
ATOM     24  C   UNL     1      32.468 -23.179 -14.942  0.00  0.00    +0.026 C 
ATOM     25  C   UNL     1      31.730 -22.912 -16.113  0.00  0.00    +0.113 C 
ATOM     26  C   UNL     1      34.486 -23.051 -16.267  0.00  0.00    +0.031 C 
ATOM     27  C   UNL     1      33.864 -23.245 -15.042  0.00  0.00    +0.005 C 
ATOM     28  C   UNL     1      31.808 -23.371 -13.716  0.00  0.00    +0.002 C 
ATOM     29  C   UNL     1      30.343 -22.846 -16.013  0.00  0.00    +0.085 C 
ATOM     30  C   UNL     1      30.420 -23.299 -13.644  0.00  0.00    -0.004 C 
ATOM     31  C   UNL     1      29.686 -23.037 -14.795  0.00  0.00    -0.019 C 
ENDBRANCH  21  23
ENDBRANCH  20  21
ENDBRANCH   4  20
TORSDOF 6
ENDMDL
MODEL 5
REMARK VINA RESULT:     -12.5      2.621     10.072
REMARK  Name = 44141871
REMARK  6 active torsions:
REMARK  status: ('A' for Active; 'I' for Inactive)
REMARK    1  A    between atoms: C_1  and  C_10
REMARK    2  A    between atoms: C_4  and  O_20
REMARK    3  A    between atoms: C_9  and  C_13
REMARK    4  A    between atoms: C_13  and  C_15
REMARK    5  A    between atoms: O_20  and  C_21
REMARK    6  A    between atoms: C_21  and  C_23
REMARK                            x       y       z     vdW  Elec       q    Type
REMARK                         _______ _______ _______ _____ _____    ______ ____
ROOT
ATOM      1  C   UNL     1      34.604 -22.824 -16.553  0.00  0.00    +0.015 C 
ATOM      2  C   UNL     1      35.826 -22.206 -16.817  0.00  0.00    +0.004 C 
ATOM      3  C   UNL     1      33.568 -22.747 -17.485  0.00  0.00    +0.004 C 
ATOM      4  C   UNL     1      34.978 -21.434 -18.944  0.00  0.00    +0.139 C 
ATOM      5  C   UNL     1      36.013 -21.512 -18.012  0.00  0.00    +0.037 C 
ATOM      6  C   UNL     1      33.755 -22.052 -18.680  0.00  0.00    +0.037 C 
ENDROOT
BRANCH   1  10
ATOM      7  N   UNL     1      35.267 -24.514 -14.891  0.00  0.00    -0.236 N 
ATOM      8  N   UNL     1      34.918 -25.069 -13.717  0.00  0.00    -0.180 NA
ATOM      9  C   UNL     1      33.432 -23.455 -14.358  0.00  0.00    +0.018 C 
ATOM     10  C   UNL     1      34.411 -23.543 -15.318  0.00  0.00    +0.063 C 
ATOM     11  C   UNL     1      33.797 -24.418 -13.396  0.00  0.00    +0.115 C 
ATOM     12  H   UNL     1      36.068 -24.784 -15.396  0.00  0.00    +0.174 HD
BRANCH   9  13
ATOM     13  C   UNL     1      32.262 -22.562 -14.327  0.00  0.00    +0.056 C 
BRANCH  13  15
ATOM     14  N   UNL     1      28.562 -24.412 -15.568  0.00  0.00    -0.242 NA
ATOM     15  C   UNL     1      30.957 -23.214 -14.765  0.00  0.00    -0.015 C 
ATOM     16  C   UNL     1      30.491 -24.350 -14.110  0.00  0.00    +0.017 C 
ATOM     17  C   UNL     1      30.227 -22.678 -15.819  0.00  0.00    +0.017 C 
ATOM     18  C   UNL     1      29.299 -24.905 -14.547  0.00  0.00    +0.099 C 
ATOM     19  C   UNL     1      29.047 -23.309 -16.179  0.00  0.00    +0.099 C 
ENDBRANCH  13  15
ENDBRANCH   9  13
ENDBRANCH   1  10
BRANCH   4  20
ATOM     20  O   UNL     1      35.162 -20.755 -20.119  0.00  0.00    -0.468 OA
BRANCH  20  21
ATOM     21  C   UNL     1      36.254 -19.846 -20.169  0.00  0.00    +0.264 C 
BRANCH  21  23
ATOM     22  N   UNL     1      35.534 -17.535 -20.204  0.00  0.00    -0.406 NA
ATOM     23  C   UNL     1      35.851 -18.629 -20.933  0.00  0.00    +0.152 C 
ATOM     24  C   UNL     1      35.105 -16.367 -22.266  0.00  0.00    +0.026 C 
ATOM     25  C   UNL     1      35.166 -16.418 -20.859  0.00  0.00    +0.113 C 
ATOM     26  C   UNL     1      35.821 -18.675 -22.312  0.00  0.00    +0.031 C 
ATOM     27  C   UNL     1      35.441 -17.522 -22.984  0.00  0.00    +0.005 C 
ATOM     28  C   UNL     1      34.717 -15.183 -22.917  0.00  0.00    +0.002 C 
ATOM     29  C   UNL     1      34.831 -15.270 -20.146  0.00  0.00    +0.085 C 
ATOM     30  C   UNL     1      34.387 -14.049 -22.180  0.00  0.00    -0.004 C 
ATOM     31  C   UNL     1      34.445 -14.093 -20.792  0.00  0.00    -0.019 C 
ENDBRANCH  21  23
ENDBRANCH  20  21
ENDBRANCH   4  20
TORSDOF 6
ENDMDL
MODEL 6
REMARK VINA RESULT:     -12.4      2.224     10.642
REMARK  Name = 44141871
REMARK  6 active torsions:
REMARK  status: ('A' for Active; 'I' for Inactive)
REMARK    1  A    between atoms: C_1  and  C_10
REMARK    2  A    between atoms: C_4  and  O_20
REMARK    3  A    between atoms: C_9  and  C_13
REMARK    4  A    between atoms: C_13  and  C_15
REMARK    5  A    between atoms: O_20  and  C_21
REMARK    6  A    between atoms: C_21  and  C_23
REMARK                            x       y       z     vdW  Elec       q    Type
REMARK                         _______ _______ _______ _____ _____    ______ ____
ROOT
ATOM      1  C   UNL     1      34.268 -22.663 -16.879  0.00  0.00    +0.015 C 
ATOM      2  C   UNL     1      35.601 -22.263 -16.974  0.00  0.00    +0.004 C 
ATOM      3  C   UNL     1      33.387 -22.406 -17.930  0.00  0.00    +0.004 C 
ATOM      4  C   UNL     1      35.171 -21.350 -19.170  0.00  0.00    +0.139 C 
ATOM      5  C   UNL     1      36.052 -21.607 -18.120  0.00  0.00    +0.037 C 
ATOM      6  C   UNL     1      33.838 -21.750 -19.075  0.00  0.00    +0.037 C 
ENDROOT
BRANCH   1  10
ATOM      7  N   UNL     1      32.498 -23.313 -15.297  0.00  0.00    -0.236 N 
ATOM      8  N   UNL     1      32.260 -24.005 -14.169  0.00  0.00    -0.180 NA
ATOM      9  C   UNL     1      34.464 -24.104 -14.763  0.00  0.00    +0.018 C 
ATOM     10  C   UNL     1      33.802 -23.342 -15.695  0.00  0.00    +0.063 C 
ATOM     11  C   UNL     1      33.464 -24.485 -13.847  0.00  0.00    +0.115 C 
ATOM     12  H   UNL     1      31.796 -22.832 -15.791  0.00  0.00    +0.174 HD
BRANCH   9  13
ATOM     13  C   UNL     1      35.895 -24.451 -14.719  0.00  0.00    +0.056 C 
BRANCH  13  15
ATOM     14  N   UNL     1      37.663 -24.270 -10.784  0.00  0.00    -0.242 NA
ATOM     15  C   UNL     1      36.519 -24.387 -13.331  0.00  0.00    -0.015 C 
ATOM     16  C   UNL     1      36.920 -25.555 -12.692  0.00  0.00    +0.017 C 
ATOM     17  C   UNL     1      36.689 -23.161 -12.698  0.00  0.00    +0.017 C 
ATOM     18  C   UNL     1      37.481 -25.443 -11.431  0.00  0.00    +0.099 C 
ATOM     19  C   UNL     1      37.261 -23.157 -11.436  0.00  0.00    +0.099 C 
ENDBRANCH  13  15
ENDBRANCH   9  13
ENDBRANCH   1  10
BRANCH   4  20
ATOM     20  O   UNL     1      35.615 -20.708 -20.296  0.00  0.00    -0.468 OA
BRANCH  20  21
ATOM     21  C   UNL     1      36.475 -19.593 -20.101  0.00  0.00    +0.264 C 
BRANCH  21  23
ATOM     22  N   UNL     1      35.618 -17.332 -20.199  0.00  0.00    -0.406 NA
ATOM     23  C   UNL     1      35.973 -18.435 -20.897  0.00  0.00    +0.152 C 
ATOM     24  C   UNL     1      35.045 -16.277 -22.288  0.00  0.00    +0.026 C 
ATOM     25  C   UNL     1      35.160 -16.266 -20.883  0.00  0.00    +0.113 C 
ATOM     26  C   UNL     1      35.895 -18.540 -22.270  0.00  0.00    +0.031 C 
ATOM     27  C   UNL     1      35.422 -17.440 -22.972  0.00  0.00    +0.005 C 
ATOM     28  C   UNL     1      34.563 -15.146 -22.969  0.00  0.00    +0.002 C 
ATOM     29  C   UNL     1      34.785 -15.110 -20.203  0.00  0.00    +0.085 C 
ATOM     30  C   UNL     1      34.194 -14.003 -22.265  0.00  0.00    -0.004 C 
ATOM     31  C   UNL     1      34.306 -13.985 -20.880  0.00  0.00    -0.019 C 
ENDBRANCH  21  23
ENDBRANCH  20  21
ENDBRANCH   4  20
TORSDOF 6
ENDMDL
MODEL 7
REMARK VINA RESULT:     -12.2      3.077      6.301
REMARK  Name = 44141871
REMARK  6 active torsions:
REMARK  status: ('A' for Active; 'I' for Inactive)
REMARK    1  A    between atoms: C_1  and  C_10
REMARK    2  A    between atoms: C_4  and  O_20
REMARK    3  A    between atoms: C_9  and  C_13
REMARK    4  A    between atoms: C_13  and  C_15
REMARK    5  A    between atoms: O_20  and  C_21
REMARK    6  A    between atoms: C_21  and  C_23
REMARK                            x       y       z     vdW  Elec       q    Type
REMARK                         _______ _______ _______ _____ _____    ______ ____
ROOT
ATOM      1  C   UNL     1      33.065 -12.831 -21.848  0.00  0.00    +0.015 C 
ATOM      2  C   UNL     1      33.759 -13.540 -20.866  0.00  0.00    +0.004 C 
ATOM      3  C   UNL     1      33.230 -13.161 -23.193  0.00  0.00    +0.004 C 
ATOM      4  C   UNL     1      34.781 -14.908 -22.575  0.00  0.00    +0.139 C 
ATOM      5  C   UNL     1      34.616 -14.578 -21.230  0.00  0.00    +0.037 C 
ATOM      6  C   UNL     1      34.088 -14.199 -23.557  0.00  0.00    +0.037 C 
ENDROOT
BRANCH   1  10
ATOM      7  N   UNL     1      31.127 -11.938 -20.621  0.00  0.00    -0.236 N 
ATOM      8  N   UNL     1      30.416 -10.820 -20.393  0.00  0.00    -0.180 NA
ATOM      9  C   UNL     1      32.153 -10.431 -21.825  0.00  0.00    +0.018 C 
ATOM     10  C   UNL     1      32.178 -11.759 -21.471  0.00  0.00    +0.063 C 
ATOM     11  C   UNL     1      31.047  -9.903 -21.130  0.00  0.00    +0.115 C 
ATOM     12  H   UNL     1      30.909 -12.807 -20.211  0.00  0.00    +0.174 HD
BRANCH   9  13
ATOM     13  C   UNL     1      33.069  -9.711 -22.725  0.00  0.00    +0.056 C 
BRANCH  13  15
ATOM     14  N   UNL     1      32.499  -5.431 -22.814  0.00  0.00    -0.242 NA
ATOM     15  C   UNL     1      32.868  -8.201 -22.756  0.00  0.00    -0.015 C 
ATOM     16  C   UNL     1      31.867  -7.647 -23.546  0.00  0.00    +0.017 C 
ATOM     17  C   UNL     1      33.685  -7.373 -21.995  0.00  0.00    +0.017 C 
ATOM     18  C   UNL     1      31.726  -6.269 -23.540  0.00  0.00    +0.099 C 
ATOM     19  C   UNL     1      33.461  -6.006 -22.058  0.00  0.00    +0.099 C 
ENDBRANCH  13  15
ENDBRANCH   9  13
ENDBRANCH   1  10
BRANCH   4  20
ATOM     20  O   UNL     1      35.621 -15.929 -22.933  0.00  0.00    -0.468 OA
BRANCH  20  21
ATOM     21  C   UNL     1      35.019 -17.188 -23.202  0.00  0.00    +0.264 C 
BRANCH  21  23
ATOM     22  N   UNL     1      34.380 -18.889 -21.602  0.00  0.00    -0.406 NA
ATOM     23  C   UNL     1      35.388 -18.154 -22.125  0.00  0.00    +0.152 C 
ATOM     24  C   UNL     1      35.990 -19.941 -20.151  0.00  0.00    +0.026 C 
ATOM     25  C   UNL     1      34.674 -19.771 -20.628  0.00  0.00    +0.113 C 
ATOM     26  C   UNL     1      36.704 -18.250 -21.723  0.00  0.00    +0.031 C 
ATOM     27  C   UNL     1      37.004 -19.160 -20.720  0.00  0.00    +0.005 C 
ATOM     28  C   UNL     1      36.260 -20.872 -19.133  0.00  0.00    +0.002 C 
ATOM     29  C   UNL     1      33.666 -20.548 -20.062  0.00  0.00    +0.085 C 
ATOM     30  C   UNL     1      35.234 -21.635 -18.585  0.00  0.00    -0.004 C 
ATOM     31  C   UNL     1      33.935 -21.473 -19.051  0.00  0.00    -0.019 C 
ENDBRANCH  21  23
ENDBRANCH  20  21
ENDBRANCH   4  20
TORSDOF 6
ENDMDL
MODEL 8
REMARK VINA RESULT:     -12.2      2.252     10.879
REMARK  Name = 44141871
REMARK  6 active torsions:
REMARK  status: ('A' for Active; 'I' for Inactive)
REMARK    1  A    between atoms: C_1  and  C_10
REMARK    2  A    between atoms: C_4  and  O_20
REMARK    3  A    between atoms: C_9  and  C_13
REMARK    4  A    between atoms: C_13  and  C_15
REMARK    5  A    between atoms: O_20  and  C_21
REMARK    6  A    between atoms: C_21  and  C_23
REMARK                            x       y       z     vdW  Elec       q    Type
REMARK                         _______ _______ _______ _____ _____    ______ ____
ROOT
ATOM      1  C   UNL     1      34.352 -22.692 -16.590  0.00  0.00    +0.015 C 
ATOM      2  C   UNL     1      35.677 -22.270 -16.697  0.00  0.00    +0.004 C 
ATOM      3  C   UNL     1      33.488 -22.556 -17.677  0.00  0.00    +0.004 C 
ATOM      4  C   UNL     1      35.275 -21.578 -18.976  0.00  0.00    +0.139 C 
ATOM      5  C   UNL     1      36.139 -21.714 -17.890  0.00  0.00    +0.037 C 
ATOM      6  C   UNL     1      33.949 -22.000 -18.870  0.00  0.00    +0.037 C 
ENDROOT
BRANCH   1  10
ATOM      7  N   UNL     1      32.579 -23.648 -15.176  0.00  0.00    -0.236 N 
ATOM      8  N   UNL     1      32.328 -24.161 -13.958  0.00  0.00    -0.180 NA
ATOM      9  C   UNL     1      34.519 -23.550 -14.176  0.00  0.00    +0.018 C 
ATOM     10  C   UNL     1      33.876 -23.267 -15.356  0.00  0.00    +0.063 C 
ATOM     11  C   UNL     1      33.517 -24.099 -13.352  0.00  0.00    +0.115 C 
ATOM     12  H   UNL     1      31.889 -23.556 -15.872  0.00  0.00    +0.174 HD
BRANCH   9  13
ATOM     13  C   UNL     1      35.936 -23.334 -13.835  0.00  0.00    +0.056 C 
BRANCH  13  15
ATOM     14  N   UNL     1      38.415 -26.856 -14.152  0.00  0.00    -0.242 NA
ATOM     15  C   UNL     1      36.810 -24.576 -13.947  0.00  0.00    -0.015 C 
ATOM     16  C   UNL     1      38.113 -24.558 -13.462  0.00  0.00    +0.017 C 
ATOM     17  C   UNL     1      36.309 -25.732 -14.534  0.00  0.00    +0.017 C 
ATOM     18  C   UNL     1      38.867 -25.713 -13.588  0.00  0.00    +0.099 C 
ATOM     19  C   UNL     1      37.144 -26.835 -14.611  0.00  0.00    +0.099 C 
ENDBRANCH  13  15
ENDBRANCH   9  13
ENDBRANCH   1  10
BRANCH   4  20
ATOM     20  O   UNL     1      35.728 -21.035 -20.149  0.00  0.00    -0.468 OA
BRANCH  20  21
ATOM     21  C   UNL     1      36.131 -19.672 -20.110  0.00  0.00    +0.264 C 
BRANCH  21  23
ATOM     22  N   UNL     1      35.611 -17.606 -21.259  0.00  0.00    -0.406 NA
ATOM     23  C   UNL     1      35.576 -18.957 -21.297  0.00  0.00    +0.152 C 
ATOM     24  C   UNL     1      34.576 -17.584 -23.434  0.00  0.00    +0.026 C 
ATOM     25  C   UNL     1      35.119 -16.926 -22.311  0.00  0.00    +0.113 C 
ATOM     26  C   UNL     1      35.065 -19.688 -22.349  0.00  0.00    +0.031 C 
ATOM     27  C   UNL     1      34.558 -18.985 -23.433  0.00  0.00    +0.005 C 
ATOM     28  C   UNL     1      34.072 -16.842 -24.515  0.00  0.00    +0.002 C 
ATOM     29  C   UNL     1      35.137 -15.533 -22.313  0.00  0.00    +0.085 C 
ATOM     30  C   UNL     1      34.101 -15.450 -24.490  0.00  0.00    -0.004 C 
ATOM     31  C   UNL     1      34.635 -14.795 -23.388  0.00  0.00    -0.019 C 
ENDBRANCH  21  23
ENDBRANCH  20  21
ENDBRANCH   4  20
TORSDOF 6
ENDMDL
MODEL 9
REMARK VINA RESULT:     -11.9      1.766      2.996
REMARK  Name = 44141871
REMARK  6 active torsions:
REMARK  status: ('A' for Active; 'I' for Inactive)
REMARK    1  A    between atoms: C_1  and  C_10
REMARK    2  A    between atoms: C_4  and  O_20
REMARK    3  A    between atoms: C_9  and  C_13
REMARK    4  A    between atoms: C_13  and  C_15
REMARK    5  A    between atoms: O_20  and  C_21
REMARK    6  A    between atoms: C_21  and  C_23
REMARK                            x       y       z     vdW  Elec       q    Type
REMARK                         _______ _______ _______ _____ _____    ______ ____
ROOT
ATOM      1  C   UNL     1      34.753 -16.145 -22.923  0.00  0.00    +0.015 C 
ATOM      2  C   UNL     1      34.767 -15.666 -21.613  0.00  0.00    +0.004 C 
ATOM      3  C   UNL     1      35.311 -17.389 -23.216  0.00  0.00    +0.004 C 
ATOM      4  C   UNL     1      35.897 -17.676 -20.889  0.00  0.00    +0.139 C 
ATOM      5  C   UNL     1      35.339 -16.431 -20.596  0.00  0.00    +0.037 C 
ATOM      6  C   UNL     1      35.883 -18.154 -22.199  0.00  0.00    +0.037 C 
ENDROOT
BRANCH   1  10
ATOM      7  N   UNL     1      34.232 -15.707 -25.288  0.00  0.00    -0.236 N 
ATOM      8  N   UNL     1      33.621 -14.841 -26.116  0.00  0.00    -0.180 NA
ATOM      9  C   UNL     1      33.455 -14.175 -23.937  0.00  0.00    +0.018 C 
ATOM     10  C   UNL     1      34.161 -15.354 -23.973  0.00  0.00    +0.063 C 
ATOM     11  C   UNL     1      33.148 -13.908 -25.286  0.00  0.00    +0.115 C 
ATOM     12  H   UNL     1      34.688 -16.521 -25.602  0.00  0.00    +0.174 HD
BRANCH   9  13
ATOM     13  C   UNL     1      33.094 -13.365 -22.762  0.00  0.00    +0.056 C 
BRANCH  13  15
ATOM     14  N   UNL     1      33.749  -9.123 -23.240  0.00  0.00    -0.242 NA
ATOM     15  C   UNL     1      33.325 -11.868 -22.930  0.00  0.00    -0.015 C 
ATOM     16  C   UNL     1      32.485 -10.957 -22.299  0.00  0.00    +0.017 C 
ATOM     17  C   UNL     1      34.376 -11.408 -23.715  0.00  0.00    +0.017 C 
ATOM     18  C   UNL     1      32.737  -9.608 -22.485  0.00  0.00    +0.099 C 
ATOM     19  C   UNL     1      34.544 -10.038 -23.837  0.00  0.00    +0.099 C 
ENDBRANCH  13  15
ENDBRANCH   9  13
ENDBRANCH   1  10
BRANCH   4  20
ATOM     20  O   UNL     1      36.456 -18.428 -19.891  0.00  0.00    -0.468 OA
BRANCH  20  21
ATOM     21  C   UNL     1      36.726 -19.792 -20.192  0.00  0.00    +0.264 C 
BRANCH  21  23
ATOM     22  N   UNL     1      36.470 -21.113 -18.179  0.00  0.00    -0.406 NA
ATOM     23  C   UNL     1      35.891 -20.667 -19.318  0.00  0.00    +0.152 C 
ATOM     24  C   UNL     1      34.421 -22.274 -17.671  0.00  0.00    +0.026 C 
ATOM     25  C   UNL     1      35.748 -21.905 -17.366  0.00  0.00    +0.113 C 
ATOM     26  C   UNL     1      34.602 -20.974 -19.701  0.00  0.00    +0.031 C 
ATOM     27  C   UNL     1      33.860 -21.791 -18.861  0.00  0.00    +0.005 C 
ATOM     28  C   UNL     1      33.696 -23.102 -16.798  0.00  0.00    +0.002 C 
ATOM     29  C   UNL     1      36.305 -22.385 -16.183  0.00  0.00    +0.085 C 
ATOM     30  C   UNL     1      34.278 -23.569 -15.623  0.00  0.00    -0.004 C 
ATOM     31  C   UNL     1      35.584 -23.209 -15.315  0.00  0.00    -0.019 C 
ENDBRANCH  21  23
ENDBRANCH  20  21
ENDBRANCH   4  20
TORSDOF 6
ENDMDL
