MODEL 1
REMARK VINA RESULT:     -12.9      0.000      0.000
REMARK  Name = 5288710
REMARK  3 active torsions:
REMARK  status: ('A' for Active; 'I' for Inactive)
REMARK    1  A    between atoms: C_6  and  N_18
REMARK    2  A    between atoms: C_9  and  C_15
REMARK    3  A    between atoms: N_18  and  C_29
REMARK                            x       y       z     vdW  Elec       q    Type
REMARK                         _______ _______ _______ _____ _____    ______ ____
ROOT
ATOM      1  O   UNL     1      35.179 -23.721 -15.738  0.00  0.00    -0.270 OA
ATOM      2  N   UNL     1      33.229 -23.966 -14.428  0.00  0.00    -0.280 N 
ATOM      3  C   UNL     1      31.664 -23.072 -15.855  0.00  0.00    +0.019 C 
ATOM      4  C   UNL     1      32.975 -23.014 -16.492  0.00  0.00    +0.069 C 
ATOM      5  C   UNL     1      31.876 -23.659 -14.605  0.00  0.00    +0.051 C 
ATOM      6  C   UNL     1      33.295 -22.536 -17.698  0.00  0.00    +0.066 C 
ATOM      7  C   UNL     1      33.983 -23.600 -15.547  0.00  0.00    +0.251 C 
ATOM      8  C   UNL     1      30.397 -22.685 -16.249  0.00  0.00    +0.005 C 
ATOM      9  C   UNL     1      29.342 -22.899 -15.356  0.00  0.00    +0.036 C 
ATOM     10  C   UNL     1      30.848 -23.881 -13.708  0.00  0.00    +0.015 C 
ATOM     11  C   UNL     1      29.565 -23.491 -14.098  0.00  0.00    +0.004 C 
ATOM     12  H   UNL     1      33.602 -24.386 -13.619  0.00  0.00    +0.155 HD
ENDROOT
BRANCH   9  15
ATOM     13  O   UNL     1      27.791 -22.298 -17.052  0.00  0.00    -0.431 OA
ATOM     14  N   UNL     1      25.854 -21.925 -15.946  0.00  0.00    -0.203 NA
ATOM     15  C   UNL     1      28.003 -22.507 -15.728  0.00  0.00    +0.166 C 
ATOM     16  C   UNL     1      26.836 -22.283 -15.058  0.00  0.00    +0.140 C 
ATOM     17  C   UNL     1      26.475 -21.952 -17.103  0.00  0.00    +0.285 C 
ENDBRANCH   9  15
BRANCH   6  18
ATOM     18  N   UNL     1      34.516 -22.488 -18.274  0.00  0.00    -0.311 N 
ATOM     19  H   UNL     1      35.077 -23.287 -18.150  0.00  0.00    +0.152 HD
BRANCH  18  29
ATOM     20  S   UNL     1      35.349 -17.763 -22.293  0.00  0.00    -0.002 S 
ATOM     21  O   UNL     1      35.514 -18.261 -23.645  0.00  0.00    -0.172 OA
ATOM     22  O   UNL     1      35.090 -16.363 -22.025  0.00  0.00    -0.172 OA
ATOM     23  C   UNL     1      34.080 -18.735 -21.496  0.00  0.00    +0.177 C 
ATOM     24  C   UNL     1      36.774 -18.265 -21.341  0.00  0.00    +0.177 C 
ATOM     25  C   UNL     1      34.865 -19.632 -20.602  0.00  0.00    +0.000 C 
ATOM     26  C   UNL     1      36.243 -19.393 -20.522  0.00  0.00    -0.001 C 
ATOM     27  C   UNL     1      34.288 -20.658 -19.855  0.00  0.00    +0.012 C 
ATOM     28  C   UNL     1      37.044 -20.178 -19.696  0.00  0.00    -0.002 C 
ATOM     29  C   UNL     1      35.092 -21.446 -19.031  0.00  0.00    +0.048 C 
ATOM     30  C   UNL     1      36.466 -21.207 -18.952  0.00  0.00    +0.014 C 
ENDBRANCH  18  29
ENDBRANCH   6  18
TORSDOF 3
ENDMDL
MODEL 2
REMARK VINA RESULT:     -12.3      2.105      3.171
REMARK  Name = 5288710
REMARK  3 active torsions:
REMARK  status: ('A' for Active; 'I' for Inactive)
REMARK    1  A    between atoms: C_6  and  N_18
REMARK    2  A    between atoms: C_9  and  C_15
REMARK    3  A    between atoms: N_18  and  C_29
REMARK                            x       y       z     vdW  Elec       q    Type
REMARK                         _______ _______ _______ _____ _____    ______ ____
ROOT
ATOM      1  O   UNL     1      37.084 -21.436 -18.470  0.00  0.00    -0.270 OA
ATOM      2  N   UNL     1      35.982 -22.429 -16.632  0.00  0.00    -0.280 N 
ATOM      3  C   UNL     1      33.800 -22.307 -17.350  0.00  0.00    +0.019 C 
ATOM      4  C   UNL     1      34.669 -21.729 -18.371  0.00  0.00    +0.069 C 
ATOM      5  C   UNL     1      34.648 -22.716 -16.318  0.00  0.00    +0.051 C 
ATOM      6  C   UNL     1      34.332 -21.197 -19.549  0.00  0.00    +0.066 C 
ATOM      7  C   UNL     1      36.087 -21.817 -17.884  0.00  0.00    +0.251 C 
ATOM      8  C   UNL     1      32.434 -22.492 -17.258  0.00  0.00    +0.005 C 
ATOM      9  C   UNL     1      31.934 -23.098 -16.101  0.00  0.00    +0.036 C 
ATOM     10  C   UNL     1      34.176 -23.317 -15.167  0.00  0.00    +0.015 C 
ATOM     11  C   UNL     1      32.796 -23.507 -15.065  0.00  0.00    +0.004 C 
ATOM     12  H   UNL     1      36.746 -22.632 -16.046  0.00  0.00    +0.155 HD
ENDROOT
BRANCH   9  15
ATOM     13  O   UNL     1      29.716 -22.438 -16.637  0.00  0.00    -0.431 OA
ATOM     14  N   UNL     1      28.401 -23.916 -15.539  0.00  0.00    -0.203 NA
ATOM     15  C   UNL     1      30.512 -23.307 -15.964  0.00  0.00    +0.166 C 
ATOM     16  C   UNL     1      29.722 -24.200 -15.301  0.00  0.00    +0.140 C 
ATOM     17  C   UNL     1      28.461 -22.870 -16.331  0.00  0.00    +0.285 C 
ENDBRANCH   9  15
BRANCH   6  18
ATOM     18  N   UNL     1      35.148 -20.666 -20.483  0.00  0.00    -0.311 N 
ATOM     19  H   UNL     1      35.904 -21.232 -20.761  0.00  0.00    +0.152 HD
BRANCH  18  29
ATOM     20  S   UNL     1      34.249 -16.136 -24.708  0.00  0.00    -0.002 S 
ATOM     21  O   UNL     1      35.391 -16.026 -25.595  0.00  0.00    -0.172 OA
ATOM     22  O   UNL     1      32.985 -15.498 -25.014  0.00  0.00    -0.172 OA
ATOM     23  C   UNL     1      33.946 -17.871 -24.408  0.00  0.00    +0.177 C 
ATOM     24  C   UNL     1      34.762 -15.620 -23.077  0.00  0.00    +0.177 C 
ATOM     25  C   UNL     1      34.481 -18.065 -23.030  0.00  0.00    +0.000 C 
ATOM     26  C   UNL     1      34.898 -16.914 -22.349  0.00  0.00    -0.001 C 
ATOM     27  C   UNL     1      34.560 -19.312 -22.413  0.00  0.00    +0.012 C 
ATOM     28  C   UNL     1      35.395 -17.009 -21.051  0.00  0.00    -0.002 C 
ATOM     29  C   UNL     1      35.062 -19.406 -21.114  0.00  0.00    +0.048 C 
ATOM     30  C   UNL     1      35.478 -18.258 -20.436  0.00  0.00    +0.014 C 
ENDBRANCH  18  29
ENDBRANCH   6  18
TORSDOF 3
ENDMDL
MODEL 3
REMARK VINA RESULT:     -12.0      3.498      8.950
REMARK  Name = 5288710
REMARK  3 active torsions:
REMARK  status: ('A' for Active; 'I' for Inactive)
REMARK    1  A    between atoms: C_6  and  N_18
REMARK    2  A    between atoms: C_9  and  C_15
REMARK    3  A    between atoms: N_18  and  C_29
REMARK                            x       y       z     vdW  Elec       q    Type
REMARK                         _______ _______ _______ _____ _____    ______ ____
ROOT
ATOM      1  O   UNL     1      36.456 -22.001 -17.571  0.00  0.00    -0.270 OA
ATOM      2  N   UNL     1      37.172 -20.258 -18.995  0.00  0.00    -0.280 N 
ATOM      3  C   UNL     1      35.384 -20.151 -20.438  0.00  0.00    +0.019 C 
ATOM      4  C   UNL     1      35.136 -21.196 -19.451  0.00  0.00    +0.069 C 
ATOM      5  C   UNL     1      36.633 -19.613 -20.115  0.00  0.00    +0.051 C 
ATOM      6  C   UNL     1      34.075 -22.000 -19.339  0.00  0.00    +0.066 C 
ATOM      7  C   UNL     1      36.311 -21.252 -18.520  0.00  0.00    +0.251 C 
ATOM      8  C   UNL     1      34.664 -19.666 -21.513  0.00  0.00    +0.005 C 
ATOM      9  C   UNL     1      35.226 -18.626 -22.261  0.00  0.00    +0.036 C 
ATOM     10  C   UNL     1      37.207 -18.586 -20.839  0.00  0.00    +0.015 C 
ATOM     11  C   UNL     1      36.485 -18.091 -21.928  0.00  0.00    +0.004 C 
ATOM     12  H   UNL     1      38.044 -20.039 -18.595  0.00  0.00    +0.155 HD
ENDROOT
BRANCH   9  15
ATOM     13  O   UNL     1      34.668 -16.766 -23.629  0.00  0.00    -0.431 OA
ATOM     14  N   UNL     1      33.270 -17.609 -25.194  0.00  0.00    -0.203 NA
ATOM     15  C   UNL     1      34.506 -18.093 -23.393  0.00  0.00    +0.166 C 
ATOM     16  C   UNL     1      33.663 -18.604 -24.336  0.00  0.00    +0.140 C 
ATOM     17  C   UNL     1      33.894 -16.551 -24.728  0.00  0.00    +0.285 C 
ENDBRANCH   9  15
BRANCH   6  18
ATOM     18  N   UNL     1      33.859 -22.965 -18.419  0.00  0.00    -0.311 N 
ATOM     19  H   UNL     1      34.359 -23.802 -18.554  0.00  0.00    +0.152 HD
BRANCH  18  29
ATOM     20  S   UNL     1      31.581 -23.605 -12.625  0.00  0.00    -0.002 S 
ATOM     21  O   UNL     1      31.115 -24.960 -12.402  0.00  0.00    -0.172 OA
ATOM     22  O   UNL     1      31.774 -22.678 -11.528  0.00  0.00    -0.172 OA
ATOM     23  C   UNL     1      33.097 -23.688 -13.566  0.00  0.00    +0.177 C 
ATOM     24  C   UNL     1      30.506 -22.840 -13.828  0.00  0.00    +0.177 C 
ATOM     25  C   UNL     1      32.657 -23.295 -14.935  0.00  0.00    +0.000 C 
ATOM     26  C   UNL     1      31.333 -22.861 -15.069  0.00  0.00    -0.001 C 
ATOM     27  C   UNL     1      33.500 -23.328 -16.044  0.00  0.00    +0.012 C 
ATOM     28  C   UNL     1      30.849 -22.461 -16.312  0.00  0.00    -0.002 C 
ATOM     29  C   UNL     1      33.013 -22.931 -17.290  0.00  0.00    +0.048 C 
ATOM     30  C   UNL     1      31.692 -22.498 -17.424  0.00  0.00    +0.014 C 
ENDBRANCH  18  29
ENDBRANCH   6  18
TORSDOF 3
ENDMDL
MODEL 4
REMARK VINA RESULT:     -11.8      6.754     10.896
REMARK  Name = 5288710
REMARK  3 active torsions:
REMARK  status: ('A' for Active; 'I' for Inactive)
REMARK    1  A    between atoms: C_6  and  N_18
REMARK    2  A    between atoms: C_9  and  C_15
REMARK    3  A    between atoms: N_18  and  C_29
REMARK                            x       y       z     vdW  Elec       q    Type
REMARK                         _______ _______ _______ _____ _____    ______ ____
ROOT
ATOM      1  O   UNL     1      33.436 -14.300 -25.648  0.00  0.00    -0.270 OA
ATOM      2  N   UNL     1      33.635 -16.635 -25.349  0.00  0.00    -0.280 N 
ATOM      3  C   UNL     1      34.594 -16.698 -23.260  0.00  0.00    +0.019 C 
ATOM      4  C   UNL     1      34.382 -15.306 -23.643  0.00  0.00    +0.069 C 
ATOM      5  C   UNL     1      34.122 -17.462 -24.331  0.00  0.00    +0.051 C 
ATOM      6  C   UNL     1      34.671 -14.199 -22.954  0.00  0.00    +0.066 C 
ATOM      7  C   UNL     1      33.757 -15.285 -25.008  0.00  0.00    +0.251 C 
ATOM      8  C   UNL     1      35.123 -17.306 -22.137  0.00  0.00    +0.005 C 
ATOM      9  C   UNL     1      35.170 -18.704 -22.113  0.00  0.00    +0.036 C 
ATOM     10  C   UNL     1      34.159 -18.843 -24.328  0.00  0.00    +0.015 C 
ATOM     11  C   UNL     1      34.693 -19.465 -23.197  0.00  0.00    +0.004 C 
ATOM     12  H   UNL     1      33.255 -16.962 -26.196  0.00  0.00    +0.155 HD
ENDROOT
BRANCH   9  15
ATOM     13  O   UNL     1      34.980 -20.405 -20.465  0.00  0.00    -0.431 OA
ATOM     14  N   UNL     1      36.844 -20.186 -19.203  0.00  0.00    -0.203 NA
ATOM     15  C   UNL     1      35.718 -19.377 -20.960  0.00  0.00    +0.166 C 
ATOM     16  C   UNL     1      36.843 -19.243 -20.200  0.00  0.00    +0.140 C 
ATOM     17  C   UNL     1      35.724 -20.839 -19.411  0.00  0.00    +0.285 C 
ENDBRANCH   9  15
BRANCH   6  18
ATOM     18  N   UNL     1      34.469 -12.916 -23.322  0.00  0.00    -0.311 N 
ATOM     19  H   UNL     1      34.988 -12.609 -24.100  0.00  0.00    +0.152 HD
BRANCH  18  29
ATOM     20  S   UNL     1      31.661  -7.530 -21.812  0.00  0.00    -0.002 S 
ATOM     21  O   UNL     1      32.443  -6.800 -20.833  0.00  0.00    -0.172 OA
ATOM     22  O   UNL     1      30.577  -6.903 -22.540  0.00  0.00    -0.172 OA
ATOM     23  C   UNL     1      32.789  -8.255 -22.992  0.00  0.00    +0.177 C 
ATOM     24  C   UNL     1      31.033  -9.008 -21.029  0.00  0.00    +0.177 C 
ATOM     25  C   UNL     1      32.813  -9.689 -22.587  0.00  0.00    +0.000 C 
ATOM     26  C   UNL     1      31.916 -10.074 -21.584  0.00  0.00    -0.001 C 
ATOM     27  C   UNL     1      33.661 -10.630 -23.168  0.00  0.00    +0.012 C 
ATOM     28  C   UNL     1      31.865 -11.401 -21.160  0.00  0.00    -0.002 C 
ATOM     29  C   UNL     1      33.612 -11.957 -22.741  0.00  0.00    +0.048 C 
ATOM     30  C   UNL     1      32.717 -12.341 -21.739  0.00  0.00    +0.014 C 
ENDBRANCH  18  29
ENDBRANCH   6  18
TORSDOF 3
ENDMDL
MODEL 5
REMARK VINA RESULT:     -11.5      3.154      8.660
REMARK  Name = 5288710
REMARK  3 active torsions:
REMARK  status: ('A' for Active; 'I' for Inactive)
REMARK    1  A    between atoms: C_6  and  N_18
REMARK    2  A    between atoms: C_9  and  C_15
REMARK    3  A    between atoms: N_18  and  C_29
REMARK                            x       y       z     vdW  Elec       q    Type
REMARK                         _______ _______ _______ _____ _____    ______ ____
ROOT
ATOM      1  O   UNL     1      36.889 -21.764 -17.419  0.00  0.00    -0.270 OA
ATOM      2  N   UNL     1      37.381 -20.060 -18.979  0.00  0.00    -0.280 N 
ATOM      3  C   UNL     1      35.514 -20.181 -20.316  0.00  0.00    +0.019 C 
ATOM      4  C   UNL     1      35.406 -21.180 -19.259  0.00  0.00    +0.069 C 
ATOM      5  C   UNL     1      36.731 -19.530 -20.099  0.00  0.00    +0.051 C 
ATOM      6  C   UNL     1      34.421 -22.056 -19.037  0.00  0.00    +0.066 C 
ATOM      7  C   UNL     1      36.632 -21.087 -18.398  0.00  0.00    +0.251 C 
ATOM      8  C   UNL     1      34.698 -19.820 -21.372  0.00  0.00    +0.005 C 
ATOM      9  C   UNL     1      35.132 -18.788 -22.210  0.00  0.00    +0.036 C 
ATOM     10  C   UNL     1      37.179 -18.507 -20.914  0.00  0.00    +0.015 C 
ATOM     11  C   UNL     1      36.360 -18.137 -21.983  0.00  0.00    +0.004 C 
ATOM     12  H   UNL     1      38.254 -19.750 -18.645  0.00  0.00    +0.155 HD
ENDROOT
BRANCH   9  15
ATOM     13  O   UNL     1      34.379 -17.071 -23.669  0.00  0.00    -0.431 OA
ATOM     14  N   UNL     1      32.932 -18.105 -25.066  0.00  0.00    -0.203 NA
ATOM     15  C   UNL     1      34.310 -18.382 -23.325  0.00  0.00    +0.166 C 
ATOM     16  C   UNL     1      33.438 -19.009 -24.167  0.00  0.00    +0.140 C 
ATOM     17  C   UNL     1      33.523 -16.983 -24.724  0.00  0.00    +0.285 C 
ENDBRANCH   9  15
BRANCH   6  18
ATOM     18  N   UNL     1      34.336 -22.976 -18.053  0.00  0.00    -0.311 N 
ATOM     19  H   UNL     1      35.003 -23.699 -18.085  0.00  0.00    +0.152 HD
BRANCH  18  29
ATOM     20  S   UNL     1      29.068 -22.891 -14.674  0.00  0.00    -0.002 S 
ATOM     21  O   UNL     1      28.671 -21.528 -14.375  0.00  0.00    -0.172 OA
ATOM     22  O   UNL     1      28.164 -24.006 -14.481  0.00  0.00    -0.172 OA
ATOM     23  C   UNL     1      29.669 -22.937 -16.355  0.00  0.00    +0.177 C 
ATOM     24  C   UNL     1      30.581 -23.233 -13.789  0.00  0.00    +0.177 C 
ATOM     25  C   UNL     1      31.147 -23.009 -16.174  0.00  0.00    +0.000 C 
ATOM     26  C   UNL     1      31.614 -23.161 -14.863  0.00  0.00    -0.001 C 
ATOM     27  C   UNL     1      32.047 -22.950 -17.236  0.00  0.00    +0.012 C 
ATOM     28  C   UNL     1      32.981 -23.253 -14.611  0.00  0.00    -0.002 C 
ATOM     29  C   UNL     1      33.417 -23.038 -16.984  0.00  0.00    +0.048 C 
ATOM     30  C   UNL     1      33.882 -23.189 -15.675  0.00  0.00    +0.014 C 
ENDBRANCH  18  29
ENDBRANCH   6  18
TORSDOF 3
ENDMDL
MODEL 6
REMARK VINA RESULT:     -11.5      3.952      6.511
REMARK  Name = 5288710
REMARK  3 active torsions:
REMARK  status: ('A' for Active; 'I' for Inactive)
REMARK    1  A    between atoms: C_6  and  N_18
REMARK    2  A    between atoms: C_9  and  C_15
REMARK    3  A    between atoms: N_18  and  C_29
REMARK                            x       y       z     vdW  Elec       q    Type
REMARK                         _______ _______ _______ _____ _____    ______ ____
ROOT
ATOM      1  O   UNL     1      33.311 -19.525 -21.509  0.00  0.00    -0.270 OA
ATOM      2  N   UNL     1      32.856 -21.080 -19.791  0.00  0.00    -0.280 N 
ATOM      3  C   UNL     1      34.915 -21.177 -18.772  0.00  0.00    +0.019 C 
ATOM      4  C   UNL     1      34.983 -20.245 -19.892  0.00  0.00    +0.069 C 
ATOM      5  C   UNL     1      33.602 -21.655 -18.756  0.00  0.00    +0.051 C 
ATOM      6  C   UNL     1      36.028 -19.530 -20.319  0.00  0.00    +0.066 C 
ATOM      7  C   UNL     1      33.632 -20.195 -20.544  0.00  0.00    +0.251 C 
ATOM      8  C   UNL     1      35.836 -21.609 -17.836  0.00  0.00    +0.005 C 
ATOM      9  C   UNL     1      35.409 -22.536 -16.880  0.00  0.00    +0.036 C 
ATOM     10  C   UNL     1      33.159 -22.570 -17.820  0.00  0.00    +0.015 C 
ATOM     11  C   UNL     1      34.084 -23.012 -16.871  0.00  0.00    +0.004 C 
ATOM     12  H   UNL     1      31.906 -21.275 -19.965  0.00  0.00    +0.155 HD
ENDROOT
BRANCH   9  15
ATOM     13  O   UNL     1      36.004 -24.173 -15.264  0.00  0.00    -0.431 OA
ATOM     14  N   UNL     1      37.982 -23.458 -14.431  0.00  0.00    -0.203 NA
ATOM     15  C   UNL     1      36.341 -23.014 -15.886  0.00  0.00    +0.166 C 
ATOM     16  C   UNL     1      37.534 -22.580 -15.386  0.00  0.00    +0.140 C 
ATOM     17  C   UNL     1      37.041 -24.374 -14.405  0.00  0.00    +0.285 C 
ENDBRANCH   9  15
BRANCH   6  18
ATOM     18  N   UNL     1      36.075 -18.670 -21.359  0.00  0.00    -0.311 N 
ATOM     19  H   UNL     1      36.566 -18.986 -22.152  0.00  0.00    +0.152 HD
BRANCH  18  29
ATOM     20  S   UNL     1      33.665 -13.350 -23.608  0.00  0.00    -0.002 S 
ATOM     21  O   UNL     1      34.716 -12.465 -24.072  0.00  0.00    -0.172 OA
ATOM     22  O   UNL     1      32.276 -13.124 -23.950  0.00  0.00    -0.172 OA
ATOM     23  C   UNL     1      34.097 -15.017 -24.080  0.00  0.00    +0.177 C 
ATOM     24  C   UNL     1      33.795 -13.482 -21.832  0.00  0.00    +0.177 C 
ATOM     25  C   UNL     1      34.563 -15.613 -22.796  0.00  0.00    +0.000 C 
ATOM     26  C   UNL     1      34.409 -14.829 -21.646  0.00  0.00    -0.001 C 
ATOM     27  C   UNL     1      35.114 -16.890 -22.704  0.00  0.00    +0.012 C 
ATOM     28  C   UNL     1      34.805 -15.319 -20.404  0.00  0.00    -0.002 C 
ATOM     29  C   UNL     1      35.514 -17.379 -21.460  0.00  0.00    +0.048 C 
ATOM     30  C   UNL     1      35.360 -16.596 -20.314  0.00  0.00    +0.014 C 
ENDBRANCH  18  29
ENDBRANCH   6  18
TORSDOF 3
ENDMDL
MODEL 7
REMARK VINA RESULT:     -11.5      3.311      5.642
REMARK  Name = 5288710
REMARK  3 active torsions:
REMARK  status: ('A' for Active; 'I' for Inactive)
REMARK    1  A    between atoms: C_6  and  N_18
REMARK    2  A    between atoms: C_9  and  C_15
REMARK    3  A    between atoms: N_18  and  C_29
REMARK                            x       y       z     vdW  Elec       q    Type
REMARK                         _______ _______ _______ _____ _____    ______ ____
ROOT
ATOM      1  O   UNL     1      32.578 -21.533 -20.017  0.00  0.00    -0.270 OA
ATOM      2  N   UNL     1      32.385 -22.342 -17.807  0.00  0.00    -0.280 N 
ATOM      3  C   UNL     1      34.602 -22.393 -17.197  0.00  0.00    +0.019 C 
ATOM      4  C   UNL     1      34.498 -21.908 -18.569  0.00  0.00    +0.069 C 
ATOM      5  C   UNL     1      33.290 -22.641 -16.782  0.00  0.00    +0.051 C 
ATOM      6  C   UNL     1      35.478 -21.537 -19.398  0.00  0.00    +0.066 C 
ATOM      7  C   UNL     1      33.047 -21.882 -18.949  0.00  0.00    +0.251 C 
ATOM      8  C   UNL     1      35.667 -22.617 -16.344  0.00  0.00    +0.005 C 
ATOM      9  C   UNL     1      35.386 -23.099 -15.062  0.00  0.00    +0.036 C 
ATOM     10  C   UNL     1      32.991 -23.116 -15.520  0.00  0.00    +0.015 C 
ATOM     11  C   UNL     1      34.062 -23.346 -14.653  0.00  0.00    +0.004 C 
ATOM     12  H   UNL     1      31.409 -22.443 -17.732  0.00  0.00    +0.155 HD
ENDROOT
BRANCH   9  15
ATOM     13  O   UNL     1      36.225 -23.051 -12.840  0.00  0.00    -0.431 OA
ATOM     14  N   UNL     1      38.334 -23.852 -13.010  0.00  0.00    -0.203 NA
ATOM     15  C   UNL     1      36.470 -23.349 -14.142  0.00  0.00    +0.166 C 
ATOM     16  C   UNL     1      37.741 -23.833 -14.247  0.00  0.00    +0.140 C 
ATOM     17  C   UNL     1      37.394 -23.382 -12.223  0.00  0.00    +0.285 C 
ENDBRANCH   9  15
BRANCH   6  18
ATOM     18  N   UNL     1      35.366 -21.090 -20.667  0.00  0.00    -0.311 N 
ATOM     19  H   UNL     1      35.326 -21.786 -21.362  0.00  0.00    +0.152 HD
BRANCH  18  29
ATOM     20  S   UNL     1      34.411 -16.027 -24.220  0.00  0.00    -0.002 S 
ATOM     21  O   UNL     1      35.499 -15.848 -25.163  0.00  0.00    -0.172 OA
ATOM     22  O   UNL     1      33.162 -15.307 -24.356  0.00  0.00    -0.172 OA
ATOM     23  C   UNL     1      34.048 -17.773 -24.119  0.00  0.00    +0.177 C 
ATOM     24  C   UNL     1      35.050 -15.743 -22.577  0.00  0.00    +0.177 C 
ATOM     25  C   UNL     1      34.660 -18.162 -22.816  0.00  0.00    +0.000 C 
ATOM     26  C   UNL     1      35.172 -17.124 -22.028  0.00  0.00    -0.001 C 
ATOM     27  C   UNL     1      34.720 -19.479 -22.367  0.00  0.00    +0.012 C 
ATOM     28  C   UNL     1      35.745 -17.403 -20.789  0.00  0.00    -0.002 C 
ATOM     29  C   UNL     1      35.298 -19.758 -21.128  0.00  0.00    +0.048 C 
ATOM     30  C   UNL     1      35.809 -18.723 -20.341  0.00  0.00    +0.014 C 
ENDBRANCH  18  29
ENDBRANCH   6  18
TORSDOF 3
ENDMDL
MODEL 8
REMARK VINA RESULT:     -11.3      3.391      6.764
REMARK  Name = 5288710
REMARK  3 active torsions:
REMARK  status: ('A' for Active; 'I' for Inactive)
REMARK    1  A    between atoms: C_6  and  N_18
REMARK    2  A    between atoms: C_9  and  C_15
REMARK    3  A    between atoms: N_18  and  C_29
REMARK                            x       y       z     vdW  Elec       q    Type
REMARK                         _______ _______ _______ _____ _____    ______ ____
ROOT
ATOM      1  O   UNL     1      32.121 -22.752 -14.966  0.00  0.00    -0.270 OA
ATOM      2  N   UNL     1      33.552 -23.615 -13.296  0.00  0.00    -0.280 N 
ATOM      3  C   UNL     1      35.456 -23.972 -14.535  0.00  0.00    +0.019 C 
ATOM      4  C   UNL     1      34.419 -23.425 -15.404  0.00  0.00    +0.069 C 
ATOM      5  C   UNL     1      34.876 -24.066 -13.267  0.00  0.00    +0.051 C 
ATOM      6  C   UNL     1      34.486 -23.151 -16.710  0.00  0.00    +0.066 C 
ATOM      7  C   UNL     1      33.186 -23.200 -14.580  0.00  0.00    +0.251 C 
ATOM      8  C   UNL     1      36.765 -24.363 -14.744  0.00  0.00    +0.005 C 
ATOM      9  C   UNL     1      37.483 -24.854 -13.649  0.00  0.00    +0.036 C 
ATOM     10  C   UNL     1      35.567 -24.547 -12.171  0.00  0.00    +0.015 C 
ATOM     11  C   UNL     1      36.890 -24.945 -12.375  0.00  0.00    +0.004 C 
ATOM     12  H   UNL     1      32.955 -23.593 -12.513  0.00  0.00    +0.155 HD
ENDROOT
BRANCH   9  15
ATOM     13  O   UNL     1      39.288 -26.250 -12.988  0.00  0.00    -0.431 OA
ATOM     14  N   UNL     1      40.984 -25.680 -14.371  0.00  0.00    -0.203 NA
ATOM     15  C   UNL     1      38.852 -25.274 -13.826  0.00  0.00    +0.166 C 
ATOM     16  C   UNL     1      39.874 -24.929 -14.662  0.00  0.00    +0.140 C 
ATOM     17  C   UNL     1      40.578 -26.438 -13.379  0.00  0.00    +0.285 C 
ENDBRANCH   9  15
BRANCH   6  18
ATOM     18  N   UNL     1      33.517 -22.645 -17.502  0.00  0.00    -0.311 N 
ATOM     19  H   UNL     1      32.608 -22.983 -17.333  0.00  0.00    +0.152 HD
BRANCH  18  29
ATOM     20  S   UNL     1      35.798 -18.449 -21.547  0.00  0.00    -0.002 S 
ATOM     21  O   UNL     1      35.929 -17.148 -20.919  0.00  0.00    -0.172 OA
ATOM     22  O   UNL     1      36.430 -18.747 -22.816  0.00  0.00    -0.172 OA
ATOM     23  C   UNL     1      36.298 -19.688 -20.362  0.00  0.00    +0.177 C 
ATOM     24  C   UNL     1      34.057 -18.826 -21.681  0.00  0.00    +0.177 C 
ATOM     25  C   UNL     1      34.996 -20.260 -19.914  0.00  0.00    +0.000 C 
ATOM     26  C   UNL     1      33.851 -19.820 -20.588  0.00  0.00    -0.001 C 
ATOM     27  C   UNL     1      34.890 -21.200 -18.891  0.00  0.00    +0.012 C 
ATOM     28  C   UNL     1      32.597 -20.318 -20.240  0.00  0.00    -0.002 C 
ATOM     29  C   UNL     1      33.634 -21.696 -18.539  0.00  0.00    +0.048 C 
ATOM     30  C   UNL     1      32.491 -21.256 -19.212  0.00  0.00    +0.014 C 
ENDBRANCH  18  29
ENDBRANCH   6  18
TORSDOF 3
ENDMDL
MODEL 9
REMARK VINA RESULT:     -11.2      2.491      5.260
REMARK  Name = 5288710
REMARK  3 active torsions:
REMARK  status: ('A' for Active; 'I' for Inactive)
REMARK    1  A    between atoms: C_6  and  N_18
REMARK    2  A    between atoms: C_9  and  C_15
REMARK    3  A    between atoms: N_18  and  C_29
REMARK                            x       y       z     vdW  Elec       q    Type
REMARK                         _______ _______ _______ _____ _____    ______ ____
ROOT
ATOM      1  O   UNL     1      31.462 -22.412 -17.448  0.00  0.00    -0.270 OA
ATOM      2  N   UNL     1      31.527 -23.190 -15.219  0.00  0.00    -0.280 N 
ATOM      3  C   UNL     1      33.793 -23.482 -14.956  0.00  0.00    +0.019 C 
ATOM      4  C   UNL     1      33.531 -22.992 -16.305  0.00  0.00    +0.069 C 
ATOM      5  C   UNL     1      32.543 -23.584 -14.340  0.00  0.00    +0.051 C 
ATOM      6  C   UNL     1      34.406 -22.733 -17.281  0.00  0.00    +0.066 C 
ATOM      7  C   UNL     1      32.050 -22.808 -16.458  0.00  0.00    +0.251 C 
ATOM      8  C   UNL     1      34.946 -23.820 -14.273  0.00  0.00    +0.005 C 
ATOM      9  C   UNL     1      34.817 -24.265 -12.953  0.00  0.00    +0.036 C 
ATOM     10  C   UNL     1      32.392 -24.020 -13.038  0.00  0.00    +0.015 C 
ATOM     11  C   UNL     1      33.553 -24.364 -12.341  0.00  0.00    +0.004 C 
ATOM     12  H   UNL     1      30.569 -23.183 -14.993  0.00  0.00    +0.155 HD
ENDROOT
BRANCH   9  15
ATOM     13  O   UNL     1      36.725 -25.659 -12.709  0.00  0.00    -0.431 OA
ATOM     14  N   UNL     1      37.731 -24.922 -10.822  0.00  0.00    -0.203 NA
ATOM     15  C   UNL     1      35.997 -24.630 -12.206  0.00  0.00    +0.166 C 
ATOM     16  C   UNL     1      36.602 -24.182 -11.068  0.00  0.00    +0.140 C 
ATOM     17  C   UNL     1      37.751 -25.774 -11.821  0.00  0.00    +0.285 C 
ENDBRANCH   9  15
BRANCH   6  18
ATOM     18  N   UNL     1      34.148 -22.279 -18.526  0.00  0.00    -0.311 N 
ATOM     19  H   UNL     1      33.394 -22.710 -18.990  0.00  0.00    +0.152 HD
BRANCH  18  29
ATOM     20  S   UNL     1      35.396 -17.504 -22.375  0.00  0.00    -0.002 S 
ATOM     21  O   UNL     1      35.501 -17.963 -23.747  0.00  0.00    -0.172 OA
ATOM     22  O   UNL     1      35.275 -16.097 -22.052  0.00  0.00    -0.172 OA
ATOM     23  C   UNL     1      34.047 -18.380 -21.600  0.00  0.00    +0.177 C 
ATOM     24  C   UNL     1      36.775 -18.176 -21.460  0.00  0.00    +0.177 C 
ATOM     25  C   UNL     1      34.750 -19.382 -20.749  0.00  0.00    +0.000 C 
ATOM     26  C   UNL     1      36.144 -19.279 -20.677  0.00  0.00    -0.001 C 
ATOM     27  C   UNL     1      34.083 -20.376 -20.035  0.00  0.00    +0.012 C 
ATOM     28  C   UNL     1      36.874 -20.168 -19.891  0.00  0.00    -0.002 C 
ATOM     29  C   UNL     1      34.815 -21.268 -19.251  0.00  0.00    +0.048 C 
ATOM     30  C   UNL     1      36.206 -21.165 -19.180  0.00  0.00    +0.014 C 
ENDBRANCH  18  29
ENDBRANCH   6  18
TORSDOF 3
ENDMDL
