MODEL 1
REMARK VINA RESULT:     -12.3      0.000      0.000
REMARK  Name = 3478
REMARK  7 active torsions:
REMARK  status: ('A' for Active; 'I' for Inactive)
REMARK    1  A    between atoms: C_1  and  S_7
REMARK    2  A    between atoms: C_2  and  C_22
REMARK    3  A    between atoms: S_7  and  N_12
REMARK    4  A    between atoms: N_11  and  C_16
REMARK    5  A    between atoms: C_22  and  C_23
REMARK    6  A    between atoms: C_23  and  N_25
REMARK    7  A    between atoms: C_26  and  C_30
REMARK                            x       y       z     vdW  Elec       q    Type
REMARK                         _______ _______ _______ _____ _____    ______ ____
ROOT
ATOM      1  C   UNL     1      34.273 -21.776 -18.640  0.00  0.00    +0.125 C 
ATOM      2  C   UNL     1      35.462 -19.887 -20.312  0.00  0.00    -0.020 C 
ATOM      3  C   UNL     1      35.661 -21.648 -18.672  0.00  0.00    +0.020 C 
ATOM      4  C   UNL     1      33.478 -20.960 -19.445  0.00  0.00    +0.020 C 
ATOM      5  C   UNL     1      36.256 -20.704 -19.508  0.00  0.00    -0.003 C 
ATOM      6  C   UNL     1      34.074 -20.015 -20.282  0.00  0.00    -0.003 C 
ENDROOT
BRANCH   1   7
ATOM      7  S   UNL     1      33.518 -22.973 -17.580  0.00  0.00    +0.077 S 
ATOM      8  O   UNL     1      33.607 -24.268 -18.227  0.00  0.00    -0.150 OA
ATOM      9  O   UNL     1      32.231 -22.433 -17.187  0.00  0.00    -0.150 OA
BRANCH   7  12
ATOM     10  O   UNL     1      33.496 -24.487 -14.868  0.00  0.00    -0.251 OA
ATOM     11  N   UNL     1      35.435 -23.469 -14.129  0.00  0.00    -0.289 N 
ATOM     12  N   UNL     1      34.578 -22.936 -16.240  0.00  0.00    -0.169 N 
ATOM     13  C   UNL     1      34.427 -23.705 -15.042  0.00  0.00    +0.319 C 
ATOM     14  H   UNL     1      36.139 -22.821 -14.363  0.00  0.00    +0.151 HD
ATOM     15  H   UNL     1      35.356 -22.336 -16.295  0.00  0.00    +0.178 HD
BRANCH  11  16
ATOM     16  C   UNL     1      35.506 -24.131 -12.845  0.00  0.00    +0.073 C 
ATOM     17  C   UNL     1      36.014 -23.176 -11.759  0.00  0.00    +0.020 C 
ATOM     18  C   UNL     1      36.370 -25.394 -12.923  0.00  0.00    +0.020 C 
ATOM     19  C   UNL     1      37.503 -22.862 -11.908  0.00  0.00    +0.002 C 
ATOM     20  C   UNL     1      37.858 -25.077 -13.070  0.00  0.00    +0.002 C 
ATOM     21  C   UNL     1      38.343 -24.135 -11.972  0.00  0.00    +0.000 C 
ENDBRANCH  11  16
ENDBRANCH   7  12
ENDBRANCH   1   7
BRANCH   2  22
ATOM     22  C   UNL     1      36.098 -18.877 -21.207  0.00  0.00    +0.048 C 
BRANCH  22  23
ATOM     23  C   UNL     1      35.314 -18.627 -22.502  0.00  0.00    +0.094 C 
BRANCH  23  25
ATOM     24  O   UNL     1      34.242 -17.415 -24.874  0.00  0.00    -0.269 OA
ATOM     25  N   UNL     1      34.995 -17.236 -22.688  0.00  0.00    -0.300 N 
ATOM     26  C   UNL     1      34.478 -16.738 -23.877  0.00  0.00    +0.261 C 
ATOM     27  H   UNL     1      35.151 -16.612 -21.942  0.00  0.00    +0.150 HD
BRANCH  26  30
ATOM     28  N   UNL     1      33.584 -14.802 -25.004  0.00  0.00    -0.262 NA
ATOM     29  N   UNL     1      34.411 -13.119 -22.918  0.00  0.00    -0.270 NA
ATOM     30  C   UNL     1      34.227 -15.274 -23.918  0.00  0.00    +0.132 C 
ATOM     31  C   UNL     1      34.633 -14.448 -22.893  0.00  0.00    +0.174 C 
ATOM     32  C   UNL     1      33.769 -12.645 -24.004  0.00  0.00    +0.057 C 
ATOM     33  C   UNL     1      33.362 -13.472 -25.029  0.00  0.00    +0.166 C 
ATOM     34  C   UNL     1      33.506 -11.181 -24.065  0.00  0.00    +0.049 C 
ENDBRANCH  26  30
ENDBRANCH  23  25
ENDBRANCH  22  23
ENDBRANCH   2  22
TORSDOF 7
ENDMDL
MODEL 2
REMARK VINA RESULT:     -12.0      1.080      1.506
REMARK  Name = 3478
REMARK  7 active torsions:
REMARK  status: ('A' for Active; 'I' for Inactive)
REMARK    1  A    between atoms: C_1  and  S_7
REMARK    2  A    between atoms: C_2  and  C_22
REMARK    3  A    between atoms: S_7  and  N_12
REMARK    4  A    between atoms: N_11  and  C_16
REMARK    5  A    between atoms: C_22  and  C_23
REMARK    6  A    between atoms: C_23  and  N_25
REMARK    7  A    between atoms: C_26  and  C_30
REMARK                            x       y       z     vdW  Elec       q    Type
REMARK                         _______ _______ _______ _____ _____    ______ ____
ROOT
ATOM      1  C   UNL     1      34.194 -21.840 -18.556  0.00  0.00    +0.125 C 
ATOM      2  C   UNL     1      35.335 -19.943 -20.251  0.00  0.00    -0.020 C 
ATOM      3  C   UNL     1      35.580 -21.695 -18.609  0.00  0.00    +0.020 C 
ATOM      4  C   UNL     1      33.378 -21.037 -19.351  0.00  0.00    +0.020 C 
ATOM      5  C   UNL     1      36.151 -20.747 -19.456  0.00  0.00    -0.003 C 
ATOM      6  C   UNL     1      33.949 -20.088 -20.200  0.00  0.00    -0.003 C 
ENDROOT
BRANCH   1   7
ATOM      7  S   UNL     1      33.471 -23.043 -17.480  0.00  0.00    +0.077 S 
ATOM      8  O   UNL     1      33.545 -24.335 -18.135  0.00  0.00    -0.150 OA
ATOM      9  O   UNL     1      32.193 -22.507 -17.051  0.00  0.00    -0.150 OA
BRANCH   7  12
ATOM     10  O   UNL     1      33.505 -24.542 -14.761  0.00  0.00    -0.251 OA
ATOM     11  N   UNL     1      35.473 -23.539 -14.078  0.00  0.00    -0.289 N 
ATOM     12  N   UNL     1      34.565 -23.009 -16.169  0.00  0.00    -0.169 N 
ATOM     13  C   UNL     1      34.438 -23.770 -14.963  0.00  0.00    +0.319 C 
ATOM     14  H   UNL     1      36.176 -22.898 -14.334  0.00  0.00    +0.151 HD
ATOM     15  H   UNL     1      35.348 -22.416 -16.248  0.00  0.00    +0.178 HD
BRANCH  11  16
ATOM     16  C   UNL     1      35.570 -24.194 -12.793  0.00  0.00    +0.073 C 
ATOM     17  C   UNL     1      36.002 -23.208 -11.702  0.00  0.00    +0.020 C 
ATOM     18  C   UNL     1      36.516 -25.398 -12.859  0.00  0.00    +0.020 C 
ATOM     19  C   UNL     1      37.469 -22.798 -11.833  0.00  0.00    +0.002 C 
ATOM     20  C   UNL     1      37.982 -24.985 -12.988  0.00  0.00    +0.002 C 
ATOM     21  C   UNL     1      38.391 -24.013 -11.885  0.00  0.00    +0.000 C 
ENDBRANCH  11  16
ENDBRANCH   7  12
ENDBRANCH   1   7
BRANCH   2  22
ATOM     22  C   UNL     1      35.945 -18.928 -21.159  0.00  0.00    +0.048 C 
BRANCH  22  23
ATOM     23  C   UNL     1      35.722 -17.482 -20.698  0.00  0.00    +0.094 C 
BRANCH  23  25
ATOM     24  O   UNL     1      34.841 -14.759 -20.463  0.00  0.00    -0.269 OA
ATOM     25  N   UNL     1      35.260 -16.633 -21.763  0.00  0.00    -0.300 N 
ATOM     26  C   UNL     1      34.851 -15.321 -21.554  0.00  0.00    +0.261 C 
ATOM     27  H   UNL     1      35.232 -16.997 -22.678  0.00  0.00    +0.150 HD
BRANCH  26  30
ATOM     28  N   UNL     1      34.302 -13.245 -22.650  0.00  0.00    -0.262 NA
ATOM     29  N   UNL     1      33.601 -14.593 -25.008  0.00  0.00    -0.270 NA
ATOM     30  C   UNL     1      34.376 -14.586 -22.755  0.00  0.00    +0.132 C 
ATOM     31  C   UNL     1      34.033 -15.249 -23.913  0.00  0.00    +0.174 C 
ATOM     32  C   UNL     1      33.525 -13.251 -24.905  0.00  0.00    +0.057 C 
ATOM     33  C   UNL     1      33.870 -12.589 -23.746  0.00  0.00    +0.166 C 
ATOM     34  C   UNL     1      33.053 -12.494 -26.096  0.00  0.00    +0.049 C 
ENDBRANCH  26  30
ENDBRANCH  23  25
ENDBRANCH  22  23
ENDBRANCH   2  22
TORSDOF 7
ENDMDL
MODEL 3
REMARK VINA RESULT:     -11.1      2.523     11.558
REMARK  Name = 3478
REMARK  7 active torsions:
REMARK  status: ('A' for Active; 'I' for Inactive)
REMARK    1  A    between atoms: C_1  and  S_7
REMARK    2  A    between atoms: C_2  and  C_22
REMARK    3  A    between atoms: S_7  and  N_12
REMARK    4  A    between atoms: N_11  and  C_16
REMARK    5  A    between atoms: C_22  and  C_23
REMARK    6  A    between atoms: C_23  and  N_25
REMARK    7  A    between atoms: C_26  and  C_30
REMARK                            x       y       z     vdW  Elec       q    Type
REMARK                         _______ _______ _______ _____ _____    ______ ____
ROOT
ATOM      1  C   UNL     1      34.981 -20.156 -20.238  0.00  0.00    +0.125 C 
ATOM      2  C   UNL     1      33.871 -22.071 -18.541  0.00  0.00    -0.020 C 
ATOM      3  C   UNL     1      33.597 -20.230 -20.080  0.00  0.00    +0.020 C 
ATOM      4  C   UNL     1      35.810 -21.039 -19.548  0.00  0.00    +0.020 C 
ATOM      5  C   UNL     1      33.042 -21.188 -19.232  0.00  0.00    -0.003 C 
ATOM      6  C   UNL     1      35.255 -21.997 -18.699  0.00  0.00    -0.003 C 
ENDROOT
BRANCH   1   7
ATOM      7  S   UNL     1      35.684 -18.941 -21.313  0.00  0.00    +0.077 S 
ATOM      8  O   UNL     1      35.208 -19.201 -22.659  0.00  0.00    -0.150 OA
ATOM      9  O   UNL     1      37.106 -18.904 -21.030  0.00  0.00    -0.150 OA
BRANCH   7  12
ATOM     10  O   UNL     1      36.010 -15.954 -22.097  0.00  0.00    -0.251 OA
ATOM     11  N   UNL     1      34.479 -15.233 -20.523  0.00  0.00    -0.289 N 
ATOM     12  N   UNL     1      34.953 -17.516 -20.719  0.00  0.00    -0.169 N 
ATOM     13  C   UNL     1      35.216 -16.191 -21.192  0.00  0.00    +0.319 C 
ATOM     14  H   UNL     1      33.866 -15.525 -19.809  0.00  0.00    +0.151 HD
ATOM     15  H   UNL     1      34.298 -17.614 -19.990  0.00  0.00    +0.178 HD
BRANCH  11  16
ATOM     16  C   UNL     1      34.565 -13.821 -20.824  0.00  0.00    +0.073 C 
ATOM     17  C   UNL     1      33.497 -13.028 -20.063  0.00  0.00    +0.020 C 
ATOM     18  C   UNL     1      34.471 -13.573 -22.333  0.00  0.00    +0.020 C 
ATOM     19  C   UNL     1      32.091 -13.267 -20.612  0.00  0.00    +0.002 C 
ATOM     20  C   UNL     1      33.063 -13.811 -22.879  0.00  0.00    +0.002 C 
ATOM     21  C   UNL     1      32.019 -13.003 -22.113  0.00  0.00    +0.000 C 
ENDBRANCH  11  16
ENDBRANCH   7  12
ENDBRANCH   1   7
BRANCH   2  22
ATOM     22  C   UNL     1      33.278 -23.096 -17.633  0.00  0.00    +0.048 C 
BRANCH  22  23
ATOM     23  C   UNL     1      33.615 -22.871 -16.154  0.00  0.00    +0.094 C 
BRANCH  23  25
ATOM     24  O   UNL     1      34.211 -24.646 -13.977  0.00  0.00    -0.269 OA
ATOM     25  N   UNL     1      34.907 -23.395 -15.802  0.00  0.00    -0.300 N 
ATOM     26  C   UNL     1      35.102 -24.253 -14.725  0.00  0.00    +0.261 C 
ATOM     27  H   UNL     1      35.686 -23.136 -16.346  0.00  0.00    +0.150 HD
BRANCH  26  30
ATOM     28  N   UNL     1      36.720 -26.012 -14.407  0.00  0.00    -0.262 NA
ATOM     29  N   UNL     1      38.794 -24.146 -14.108  0.00  0.00    -0.270 NA
ATOM     30  C   UNL     1      36.502 -24.684 -14.478  0.00  0.00    +0.132 C 
ATOM     31  C   UNL     1      37.520 -23.767 -14.332  0.00  0.00    +0.174 C 
ATOM     32  C   UNL     1      39.013 -25.474 -14.035  0.00  0.00    +0.057 C 
ATOM     33  C   UNL     1      37.994 -26.391 -14.183  0.00  0.00    +0.166 C 
ATOM     34  C   UNL     1      40.409 -25.929 -13.790  0.00  0.00    +0.049 C 
ENDBRANCH  26  30
ENDBRANCH  23  25
ENDBRANCH  22  23
ENDBRANCH   2  22
TORSDOF 7
ENDMDL
MODEL 4
REMARK VINA RESULT:     -11.1      3.265      5.304
REMARK  Name = 3478
REMARK  7 active torsions:
REMARK  status: ('A' for Active; 'I' for Inactive)
REMARK    1  A    between atoms: C_1  and  S_7
REMARK    2  A    between atoms: C_2  and  C_22
REMARK    3  A    between atoms: S_7  and  N_12
REMARK    4  A    between atoms: N_11  and  C_16
REMARK    5  A    between atoms: C_22  and  C_23
REMARK    6  A    between atoms: C_23  and  N_25
REMARK    7  A    between atoms: C_26  and  C_30
REMARK                            x       y       z     vdW  Elec       q    Type
REMARK                         _______ _______ _______ _____ _____    ______ ____
ROOT
ATOM      1  C   UNL     1      36.011 -23.445 -14.882  0.00  0.00    +0.125 C 
ATOM      2  C   UNL     1      36.529 -21.808 -17.080  0.00  0.00    -0.020 C 
ATOM      3  C   UNL     1      35.003 -23.181 -15.808  0.00  0.00    +0.020 C 
ATOM      4  C   UNL     1      37.278 -22.890 -15.053  0.00  0.00    +0.020 C 
ATOM      5  C   UNL     1      35.261 -22.362 -16.907  0.00  0.00    -0.003 C 
ATOM      6  C   UNL     1      37.538 -22.071 -16.153  0.00  0.00    -0.003 C 
ENDROOT
BRANCH   1   7
ATOM      7  S   UNL     1      35.682 -24.482 -13.488  0.00  0.00    +0.077 S 
ATOM      8  O   UNL     1      35.705 -23.657 -12.296  0.00  0.00    -0.150 OA
ATOM      9  O   UNL     1      36.560 -25.631 -13.605  0.00  0.00    -0.150 OA
BRANCH   7  12
ATOM     10  O   UNL     1      32.943 -23.366 -12.542  0.00  0.00    -0.251 OA
ATOM     11  N   UNL     1      31.737 -24.947 -13.722  0.00  0.00    -0.289 N 
ATOM     12  N   UNL     1      34.076 -24.966 -13.812  0.00  0.00    -0.169 N 
ATOM     13  C   UNL     1      32.900 -24.339 -13.289  0.00  0.00    +0.319 C 
ATOM     14  H   UNL     1      31.809 -25.724 -14.323  0.00  0.00    +0.151 HD
ATOM     15  H   UNL     1      33.948 -25.740 -14.408  0.00  0.00    +0.178 HD
BRANCH  11  16
ATOM     16  C   UNL     1      30.421 -24.493 -13.335  0.00  0.00    +0.073 C 
ATOM     17  C   UNL     1      29.330 -25.385 -13.937  0.00  0.00    +0.020 C 
ATOM     18  C   UNL     1      30.210 -23.023 -13.716  0.00  0.00    +0.020 C 
ATOM     19  C   UNL     1      29.178 -25.184 -15.445  0.00  0.00    +0.002 C 
ATOM     20  C   UNL     1      30.057 -22.827 -15.224  0.00  0.00    +0.002 C 
ATOM     21  C   UNL     1      28.959 -23.716 -15.799  0.00  0.00    +0.000 C 
ENDBRANCH  11  16
ENDBRANCH   7  12
ENDBRANCH   1   7
BRANCH   2  22
ATOM     22  C   UNL     1      36.807 -20.933 -18.255  0.00  0.00    +0.048 C 
BRANCH  22  23
ATOM     23  C   UNL     1      35.791 -21.094 -19.393  0.00  0.00    +0.094 C 
BRANCH  23  25
ATOM     24  O   UNL     1      37.549 -19.137 -20.544  0.00  0.00    -0.269 OA
ATOM     25  N   UNL     1      35.412 -19.831 -19.969  0.00  0.00    -0.300 N 
ATOM     26  C   UNL     1      36.337 -18.943 -20.505  0.00  0.00    +0.261 C 
ATOM     27  H   UNL     1      34.458 -19.586 -19.983  0.00  0.00    +0.150 HD
BRANCH  26  30
ATOM     28  N   UNL     1      35.365 -16.768 -20.129  0.00  0.00    -0.262 NA
ATOM     29  N   UNL     1      35.222 -16.278 -22.887  0.00  0.00    -0.270 NA
ATOM     30  C   UNL     1      35.787 -17.670 -21.037  0.00  0.00    +0.132 C 
ATOM     31  C   UNL     1      35.718 -17.430 -22.392  0.00  0.00    +0.174 C 
ATOM     32  C   UNL     1      34.798 -15.376 -21.980  0.00  0.00    +0.057 C 
ATOM     33  C   UNL     1      34.869 -15.617 -20.625  0.00  0.00    +0.166 C 
ATOM     34  C   UNL     1      34.245 -14.092 -22.492  0.00  0.00    +0.049 C 
ENDBRANCH  26  30
ENDBRANCH  23  25
ENDBRANCH  22  23
ENDBRANCH   2  22
TORSDOF 7
ENDMDL
MODEL 5
REMARK VINA RESULT:     -10.6      2.998      4.630
REMARK  Name = 3478
REMARK  7 active torsions:
REMARK  status: ('A' for Active; 'I' for Inactive)
REMARK    1  A    between atoms: C_1  and  S_7
REMARK    2  A    between atoms: C_2  and  C_22
REMARK    3  A    between atoms: S_7  and  N_12
REMARK    4  A    between atoms: N_11  and  C_16
REMARK    5  A    between atoms: C_22  and  C_23
REMARK    6  A    between atoms: C_23  and  N_25
REMARK    7  A    between atoms: C_26  and  C_30
REMARK                            x       y       z     vdW  Elec       q    Type
REMARK                         _______ _______ _______ _____ _____    ______ ____
ROOT
ATOM      1  C   UNL     1      35.388 -22.670 -16.544  0.00  0.00    +0.125 C 
ATOM      2  C   UNL     1      35.354 -21.365 -19.008  0.00  0.00    -0.020 C 
ATOM      3  C   UNL     1      34.246 -22.716 -17.342  0.00  0.00    +0.020 C 
ATOM      4  C   UNL     1      36.515 -21.972 -16.977  0.00  0.00    +0.020 C 
ATOM      5  C   UNL     1      34.228 -22.063 -18.574  0.00  0.00    -0.003 C 
ATOM      6  C   UNL     1      36.497 -21.318 -18.210  0.00  0.00    -0.003 C 
ENDROOT
BRANCH   1   7
ATOM      7  S   UNL     1      35.410 -23.498 -14.981  0.00  0.00    +0.077 S 
ATOM      8  O   UNL     1      35.520 -22.494 -13.941  0.00  0.00    -0.150 OA
ATOM      9  O   UNL     1      36.391 -24.562 -15.084  0.00  0.00    -0.150 OA
BRANCH   7  12
ATOM     10  O   UNL     1      32.737 -22.506 -13.750  0.00  0.00    -0.251 OA
ATOM     11  N   UNL     1      31.562 -24.365 -14.462  0.00  0.00    -0.289 N 
ATOM     12  N   UNL     1      33.843 -24.178 -14.950  0.00  0.00    -0.169 N 
ATOM     13  C   UNL     1      32.696 -23.588 -14.329  0.00  0.00    +0.319 C 
ATOM     14  H   UNL     1      31.633 -25.220 -14.946  0.00  0.00    +0.151 HD
ATOM     15  H   UNL     1      33.718 -25.047 -15.395  0.00  0.00    +0.178 HD
BRANCH  11  16
ATOM     16  C   UNL     1      30.277 -23.980 -13.924  0.00  0.00    +0.073 C 
ATOM     17  C   UNL     1      29.217 -25.052 -14.205  0.00  0.00    +0.020 C 
ATOM     18  C   UNL     1      29.841 -22.614 -14.463  0.00  0.00    +0.020 C 
ATOM     19  C   UNL     1      28.814 -25.102 -15.678  0.00  0.00    +0.002 C 
ATOM     20  C   UNL     1      29.436 -22.668 -15.936  0.00  0.00    +0.002 C 
ATOM     21  C   UNL     1      28.373 -23.733 -16.189  0.00  0.00    +0.000 C 
ENDBRANCH  11  16
ENDBRANCH   7  12
ENDBRANCH   1   7
BRANCH   2  22
ATOM     22  C   UNL     1      35.337 -20.666 -20.326  0.00  0.00    +0.048 C 
BRANCH  22  23
ATOM     23  C   UNL     1      36.171 -19.379 -20.348  0.00  0.00    +0.094 C 
BRANCH  23  25
ATOM     24  O   UNL     1      35.352 -16.653 -19.975  0.00  0.00    -0.269 OA
ATOM     25  N   UNL     1      35.738 -18.465 -21.370  0.00  0.00    -0.300 N 
ATOM     26  C   UNL     1      35.358 -17.157 -21.095  0.00  0.00    +0.261 C 
ATOM     27  H   UNL     1      35.708 -18.779 -22.303  0.00  0.00    +0.150 HD
BRANCH  26  30
ATOM     28  N   UNL     1      34.708 -17.012 -23.413  0.00  0.00    -0.262 NA
ATOM     29  N   UNL     1      34.305 -14.244 -23.200  0.00  0.00    -0.270 NA
ATOM     30  C   UNL     1      34.910 -16.348 -22.258  0.00  0.00    +0.132 C 
ATOM     31  C   UNL     1      34.712 -14.988 -22.152  0.00  0.00    +0.174 C 
ATOM     32  C   UNL     1      34.104 -14.907 -24.356  0.00  0.00    +0.057 C 
ATOM     33  C   UNL     1      34.301 -16.267 -24.460  0.00  0.00    +0.166 C 
ATOM     34  C   UNL     1      33.653 -14.116 -25.534  0.00  0.00    +0.049 C 
ENDBRANCH  26  30
ENDBRANCH  23  25
ENDBRANCH  22  23
ENDBRANCH   2  22
TORSDOF 7
ENDMDL
MODEL 6
REMARK VINA RESULT:     -10.5      4.668     13.128
REMARK  Name = 3478
REMARK  7 active torsions:
REMARK  status: ('A' for Active; 'I' for Inactive)
REMARK    1  A    between atoms: C_1  and  S_7
REMARK    2  A    between atoms: C_2  and  C_22
REMARK    3  A    between atoms: S_7  and  N_12
REMARK    4  A    between atoms: N_11  and  C_16
REMARK    5  A    between atoms: C_22  and  C_23
REMARK    6  A    between atoms: C_23  and  N_25
REMARK    7  A    between atoms: C_26  and  C_30
REMARK                            x       y       z     vdW  Elec       q    Type
REMARK                         _______ _______ _______ _____ _____    ______ ____
ROOT
ATOM      1  C   UNL     1      33.987 -12.998 -23.784  0.00  0.00    +0.125 C 
ATOM      2  C   UNL     1      34.636 -14.831 -21.784  0.00  0.00    -0.020 C 
ATOM      3  C   UNL     1      34.353 -14.301 -24.123  0.00  0.00    +0.020 C 
ATOM      4  C   UNL     1      33.944 -12.612 -22.445  0.00  0.00    +0.020 C 
ATOM      5  C   UNL     1      34.678 -15.217 -23.123  0.00  0.00    -0.003 C 
ATOM      6  C   UNL     1      34.269 -13.528 -21.445  0.00  0.00    -0.003 C 
ENDROOT
BRANCH   1   7
ATOM      7  S   UNL     1      33.575 -11.837 -25.052  0.00  0.00    +0.077 S 
ATOM      8  O   UNL     1      32.467 -12.377 -25.816  0.00  0.00    -0.150 OA
ATOM      9  O   UNL     1      34.816 -11.477 -25.710  0.00  0.00    -0.150 OA
BRANCH   7  12
ATOM     10  O   UNL     1      35.094  -9.602 -23.521  0.00  0.00    -0.251 OA
ATOM     11  N   UNL     1      33.148  -8.598 -22.781  0.00  0.00    -0.289 N 
ATOM     12  N   UNL     1      33.028 -10.514 -24.119  0.00  0.00    -0.169 N 
ATOM     13  C   UNL     1      33.868  -9.558 -23.464  0.00  0.00    +0.319 C 
ATOM     14  H   UNL     1      32.164  -8.650 -22.796  0.00  0.00    +0.151 HD
ATOM     15  H   UNL     1      32.055 -10.400 -24.023  0.00  0.00    +0.178 HD
BRANCH  11  16
ATOM     16  C   UNL     1      33.772  -7.522 -22.045  0.00  0.00    +0.073 C 
ATOM     17  C   UNL     1      33.172  -7.394 -20.640  0.00  0.00    +0.020 C 
ATOM     18  C   UNL     1      33.673  -6.199 -22.813  0.00  0.00    +0.020 C 
ATOM     19  C   UNL     1      31.752  -6.829 -20.660  0.00  0.00    +0.002 C 
ATOM     20  C   UNL     1      32.252  -5.637 -22.830  0.00  0.00    +0.002 C 
ATOM     21  C   UNL     1      31.681  -5.508 -21.421  0.00  0.00    +0.000 C 
ENDBRANCH  11  16
ENDBRANCH   7  12
ENDBRANCH   1   7
BRANCH   2  22
ATOM     22  C   UNL     1      34.983 -15.810 -20.714  0.00  0.00    +0.048 C 
BRANCH  22  23
ATOM     23  C   UNL     1      35.516 -17.143 -21.253  0.00  0.00    +0.094 C 
BRANCH  23  25
ATOM     24  O   UNL     1      34.353 -19.628 -22.099  0.00  0.00    -0.269 OA
ATOM     25  N   UNL     1      35.158 -18.255 -20.413  0.00  0.00    -0.300 N 
ATOM     26  C   UNL     1      34.597 -19.424 -20.913  0.00  0.00    +0.261 C 
ATOM     27  H   UNL     1      35.317 -18.184 -19.443  0.00  0.00    +0.150 HD
BRANCH  26  30
ATOM     28  N   UNL     1      35.296 -21.123 -19.351  0.00  0.00    -0.262 NA
ATOM     29  N   UNL     1      32.635 -21.689 -18.668  0.00  0.00    -0.270 NA
ATOM     30  C   UNL     1      34.260 -20.468 -19.911  0.00  0.00    +0.132 C 
ATOM     31  C   UNL     1      32.953 -20.744 -19.575  0.00  0.00    +0.174 C 
ATOM     32  C   UNL     1      33.670 -22.345 -18.107  0.00  0.00    +0.057 C 
ATOM     33  C   UNL     1      34.977 -22.067 -18.443  0.00  0.00    +0.166 C 
ATOM     34  C   UNL     1      33.355 -23.395 -17.099  0.00  0.00    +0.049 C 
ENDBRANCH  26  30
ENDBRANCH  23  25
ENDBRANCH  22  23
ENDBRANCH   2  22
TORSDOF 7
ENDMDL
MODEL 7
REMARK VINA RESULT:     -10.5      2.324     11.611
REMARK  Name = 3478
REMARK  7 active torsions:
REMARK  status: ('A' for Active; 'I' for Inactive)
REMARK    1  A    between atoms: C_1  and  S_7
REMARK    2  A    between atoms: C_2  and  C_22
REMARK    3  A    between atoms: S_7  and  N_12
REMARK    4  A    between atoms: N_11  and  C_16
REMARK    5  A    between atoms: C_22  and  C_23
REMARK    6  A    between atoms: C_23  and  N_25
REMARK    7  A    between atoms: C_26  and  C_30
REMARK                            x       y       z     vdW  Elec       q    Type
REMARK                         _______ _______ _______ _____ _____    ______ ____
ROOT
ATOM      1  C   UNL     1      34.770 -19.899 -20.475  0.00  0.00    +0.125 C 
ATOM      2  C   UNL     1      33.540 -21.604 -18.642  0.00  0.00    -0.020 C 
ATOM      3  C   UNL     1      33.383 -19.886 -20.332  0.00  0.00    +0.020 C 
ATOM      4  C   UNL     1      35.543 -20.764 -19.702  0.00  0.00    +0.020 C 
ATOM      5  C   UNL     1      32.768 -20.739 -19.416  0.00  0.00    -0.003 C 
ATOM      6  C   UNL     1      34.928 -21.618 -18.785  0.00  0.00    -0.003 C 
ENDROOT
BRANCH   1   7
ATOM      7  S   UNL     1      35.549 -18.818 -21.636  0.00  0.00    +0.077 S 
ATOM      8  O   UNL     1      35.066 -19.155 -22.961  0.00  0.00    -0.150 OA
ATOM      9  O   UNL     1      36.969 -18.841 -21.343  0.00  0.00    -0.150 OA
BRANCH   7  12
ATOM     10  O   UNL     1      35.959 -15.942 -22.736  0.00  0.00    -0.251 OA
ATOM     11  N   UNL     1      34.525 -14.999 -21.187  0.00  0.00    -0.289 N 
ATOM     12  N   UNL     1      34.901 -17.309 -21.164  0.00  0.00    -0.169 N 
ATOM     13  C   UNL     1      35.195 -16.051 -21.781  0.00  0.00    +0.319 C 
ATOM     14  H   UNL     1      33.933 -15.191 -20.423  0.00  0.00    +0.151 HD
ATOM     15  H   UNL     1      34.274 -17.304 -20.405  0.00  0.00    +0.178 HD
BRANCH  11  16
ATOM     16  C   UNL     1      34.654 -13.631 -21.634  0.00  0.00    +0.073 C 
ATOM     17  C   UNL     1      33.822 -12.684 -20.763  0.00  0.00    +0.020 C 
ATOM     18  C   UNL     1      34.279 -13.497 -23.114  0.00  0.00    +0.020 C 
ATOM     19  C   UNL     1      32.320 -12.836 -21.004  0.00  0.00    +0.002 C 
ATOM     20  C   UNL     1      32.776 -13.648 -23.352  0.00  0.00    +0.002 C 
ATOM     21  C   UNL     1      31.970 -12.689 -22.482  0.00  0.00    +0.000 C 
ENDBRANCH  11  16
ENDBRANCH   7  12
ENDBRANCH   1   7
BRANCH   2  22
ATOM     22  C   UNL     1      32.884 -22.516 -17.662  0.00  0.00    +0.048 C 
BRANCH  22  23
ATOM     23  C   UNL     1      33.738 -23.736 -17.292  0.00  0.00    +0.094 C 
BRANCH  23  25
ATOM     24  O   UNL     1      36.217 -23.034 -16.026  0.00  0.00    -0.269 OA
ATOM     25  N   UNL     1      34.030 -23.792 -15.885  0.00  0.00    -0.300 N 
ATOM     26  C   UNL     1      35.265 -23.431 -15.360  0.00  0.00    +0.261 C 
ATOM     27  H   UNL     1      33.326 -24.099 -15.268  0.00  0.00    +0.150 HD
BRANCH  26  30
ATOM     28  N   UNL     1      36.531 -23.046 -13.343  0.00  0.00    -0.262 NA
ATOM     29  N   UNL     1      34.584 -24.337 -11.791  0.00  0.00    -0.270 NA
ATOM     30  C   UNL     1      35.416 -23.571 -13.888  0.00  0.00    +0.132 C 
ATOM     31  C   UNL     1      34.459 -24.205 -13.126  0.00  0.00    +0.174 C 
ATOM     32  C   UNL     1      35.699 -23.813 -11.245  0.00  0.00    +0.057 C 
ATOM     33  C   UNL     1      36.655 -23.178 -12.008  0.00  0.00    +0.166 C 
ATOM     34  C   UNL     1      35.870 -23.941  -9.771  0.00  0.00    +0.049 C 
ENDBRANCH  26  30
ENDBRANCH  23  25
ENDBRANCH  22  23
ENDBRANCH   2  22
TORSDOF 7
ENDMDL
MODEL 8
REMARK VINA RESULT:     -10.5      5.794     13.838
REMARK  Name = 3478
REMARK  7 active torsions:
REMARK  status: ('A' for Active; 'I' for Inactive)
REMARK    1  A    between atoms: C_1  and  S_7
REMARK    2  A    between atoms: C_2  and  C_22
REMARK    3  A    between atoms: S_7  and  N_12
REMARK    4  A    between atoms: N_11  and  C_16
REMARK    5  A    between atoms: C_22  and  C_23
REMARK    6  A    between atoms: C_23  and  N_25
REMARK    7  A    between atoms: C_26  and  C_30
REMARK                            x       y       z     vdW  Elec       q    Type
REMARK                         _______ _______ _______ _____ _____    ______ ____
ROOT
ATOM      1  C   UNL     1      32.226 -11.103 -20.549  0.00  0.00    +0.125 C 
ATOM      2  C   UNL     1      33.009 -13.232 -22.172  0.00  0.00    -0.020 C 
ATOM      3  C   UNL     1      32.218 -12.404 -20.046  0.00  0.00    +0.020 C 
ATOM      4  C   UNL     1      32.626 -10.866 -21.864  0.00  0.00    +0.020 C 
ATOM      5  C   UNL     1      32.609 -13.468 -20.857  0.00  0.00    -0.003 C 
ATOM      6  C   UNL     1      33.017 -11.931 -22.676  0.00  0.00    -0.003 C 
ENDROOT
BRANCH   1   7
ATOM      7  S   UNL     1      31.731  -9.753 -19.520  0.00  0.00    +0.077 S 
ATOM      8  O   UNL     1      32.817  -9.462 -18.604  0.00  0.00    -0.150 OA
ATOM      9  O   UNL     1      30.409 -10.074 -19.016  0.00  0.00    -0.150 OA
BRANCH   7  12
ATOM     10  O   UNL     1      33.310  -7.104 -19.883  0.00  0.00    -0.251 OA
ATOM     11  N   UNL     1      32.091  -6.474 -21.744  0.00  0.00    -0.289 N 
ATOM     12  N   UNL     1      31.606  -8.495 -20.669  0.00  0.00    -0.169 N 
ATOM     13  C   UNL     1      32.419  -7.318 -20.701  0.00  0.00    +0.319 C 
ATOM     14  H   UNL     1      31.358  -6.736 -22.348  0.00  0.00    +0.151 HD
ATOM     15  H   UNL     1      30.917  -8.587 -21.367  0.00  0.00    +0.178 HD
BRANCH  11  16
ATOM     16  C   UNL     1      32.774  -5.224 -21.990  0.00  0.00    +0.073 C 
ATOM     17  C   UNL     1      32.063  -4.060 -21.292  0.00  0.00    +0.020 C 
ATOM     18  C   UNL     1      32.923  -4.963 -23.492  0.00  0.00    +0.020 C 
ATOM     19  C   UNL     1      30.736  -3.701 -21.960  0.00  0.00    +0.002 C 
ATOM     20  C   UNL     1      31.595  -4.603 -24.158  0.00  0.00    +0.002 C 
ATOM     21  C   UNL     1      30.911  -3.435 -23.453  0.00  0.00    +0.000 C 
ENDBRANCH  11  16
ENDBRANCH   7  12
ENDBRANCH   1   7
BRANCH   2  22
ATOM     22  C   UNL     1      33.427 -14.370 -23.041  0.00  0.00    +0.048 C 
BRANCH  22  23
ATOM     23  C   UNL     1      34.926 -14.685 -22.958  0.00  0.00    +0.094 C 
BRANCH  23  25
ATOM     24  O   UNL     1      34.822 -17.431 -23.790  0.00  0.00    -0.269 OA
ATOM     25  N   UNL     1      35.197 -15.840 -22.145  0.00  0.00    -0.300 N 
ATOM     26  C   UNL     1      35.122 -17.138 -22.636  0.00  0.00    +0.261 C 
ATOM     27  H   UNL     1      35.446 -15.705 -21.201  0.00  0.00    +0.150 HD
BRANCH  26  30
ATOM     28  N   UNL     1      34.435 -19.140 -21.480  0.00  0.00    -0.262 NA
ATOM     29  N   UNL     1      36.872 -19.262 -20.096  0.00  0.00    -0.270 NA
ATOM     30  C   UNL     1      35.405 -18.223 -21.661  0.00  0.00    +0.132 C 
ATOM     31  C   UNL     1      36.603 -18.282 -20.983  0.00  0.00    +0.174 C 
ATOM     32  C   UNL     1      35.902 -20.179 -19.913  0.00  0.00    +0.057 C 
ATOM     33  C   UNL     1      34.704 -20.119 -20.593  0.00  0.00    +0.166 C 
ATOM     34  C   UNL     1      36.165 -21.276 -18.942  0.00  0.00    +0.049 C 
ENDBRANCH  26  30
ENDBRANCH  23  25
ENDBRANCH  22  23
ENDBRANCH   2  22
TORSDOF 7
ENDMDL
MODEL 9
REMARK VINA RESULT:     -10.4      5.022     13.033
REMARK  Name = 3478
REMARK  7 active torsions:
REMARK  status: ('A' for Active; 'I' for Inactive)
REMARK    1  A    between atoms: C_1  and  S_7
REMARK    2  A    between atoms: C_2  and  C_22
REMARK    3  A    between atoms: S_7  and  N_12
REMARK    4  A    between atoms: N_11  and  C_16
REMARK    5  A    between atoms: C_22  and  C_23
REMARK    6  A    between atoms: C_23  and  N_25
REMARK    7  A    between atoms: C_26  and  C_30
REMARK                            x       y       z     vdW  Elec       q    Type
REMARK                         _______ _______ _______ _____ _____    ______ ____
ROOT
ATOM      1  C   UNL     1      32.948 -12.919 -21.456  0.00  0.00    +0.125 C 
ATOM      2  C   UNL     1      34.608 -14.890 -22.522  0.00  0.00    -0.020 C 
ATOM      3  C   UNL     1      33.663 -13.763 -20.607  0.00  0.00    +0.020 C 
ATOM      4  C   UNL     1      33.062 -13.060 -22.839  0.00  0.00    +0.020 C 
ATOM      5  C   UNL     1      34.493 -14.749 -21.140  0.00  0.00    -0.003 C 
ATOM      6  C   UNL     1      33.892 -14.047 -23.372  0.00  0.00    -0.003 C 
ENDROOT
BRANCH   1   7
ATOM      7  S   UNL     1      31.895 -11.669 -20.780  0.00  0.00    +0.077 S 
ATOM      8  O   UNL     1      32.211 -11.526 -19.372  0.00  0.00    -0.150 OA
ATOM      9  O   UNL     1      30.544 -11.985 -21.203  0.00  0.00    -0.150 OA
BRANCH   7  12
ATOM     10  O   UNL     1      31.515  -8.629 -20.269  0.00  0.00    -0.251 OA
ATOM     11  N   UNL     1      32.745  -8.024 -22.130  0.00  0.00    -0.289 N 
ATOM     12  N   UNL     1      32.442 -10.289 -21.626  0.00  0.00    -0.169 N 
ATOM     13  C   UNL     1      32.176  -8.931 -21.258  0.00  0.00    +0.319 C 
ATOM     14  H   UNL     1      33.259  -8.368 -22.897  0.00  0.00    +0.151 HD
ATOM     15  H   UNL     1      32.984 -10.439 -22.434  0.00  0.00    +0.178 HD
BRANCH  11  16
ATOM     16  C   UNL     1      32.622  -6.593 -21.967  0.00  0.00    +0.073 C 
ATOM     17  C   UNL     1      31.283  -6.088 -22.515  0.00  0.00    +0.020 C 
ATOM     18  C   UNL     1      33.800  -5.860 -22.618  0.00  0.00    +0.020 C 
ATOM     19  C   UNL     1      31.226  -6.125 -24.042  0.00  0.00    +0.002 C 
ATOM     20  C   UNL     1      33.739  -5.897 -24.145  0.00  0.00    +0.002 C 
ATOM     21  C   UNL     1      32.402  -5.380 -24.668  0.00  0.00    +0.000 C 
ENDBRANCH  11  16
ENDBRANCH   7  12
ENDBRANCH   1   7
BRANCH   2  22
ATOM     22  C   UNL     1      35.496 -15.944 -23.093  0.00  0.00    +0.048 C 
BRANCH  22  23
ATOM     23  C   UNL     1      34.732 -17.150 -23.654  0.00  0.00    +0.094 C 
BRANCH  23  25
ATOM     24  O   UNL     1      36.531 -18.382 -21.787  0.00  0.00    -0.269 OA
ATOM     25  N   UNL     1      34.389 -18.103 -22.633  0.00  0.00    -0.300 N 
ATOM     26  C   UNL     1      35.332 -18.649 -21.770  0.00  0.00    +0.261 C 
ATOM     27  H   UNL     1      33.449 -18.380 -22.542  0.00  0.00    +0.150 HD
BRANCH  26  30
ATOM     28  N   UNL     1      35.747 -20.352 -20.113  0.00  0.00    -0.262 NA
ATOM     29  N   UNL     1      32.997 -20.711 -19.692  0.00  0.00    -0.270 NA
ATOM     30  C   UNL     1      34.822 -19.640 -20.787  0.00  0.00    +0.132 C 
ATOM     31  C   UNL     1      33.472 -19.815 -20.581  0.00  0.00    +0.174 C 
ATOM     32  C   UNL     1      33.920 -21.424 -19.018  0.00  0.00    +0.057 C 
ATOM     33  C   UNL     1      35.272 -21.247 -19.224  0.00  0.00    +0.166 C 
ATOM     34  C   UNL     1      33.431 -22.421 -18.027  0.00  0.00    +0.049 C 
ENDBRANCH  26  30
ENDBRANCH  23  25
ENDBRANCH  22  23
ENDBRANCH   2  22
TORSDOF 7
ENDMDL
