MODEL 1
REMARK VINA RESULT:     -12.3      0.000      0.000
REMARK  Name = 6918314
REMARK  8 active torsions:
REMARK  status: ('A' for Active; 'I' for Inactive)
REMARK    1  A    between atoms: N_1  and  C_22
REMARK    2  A    between atoms: N_2  and  C_9
REMARK    3  A    between atoms: C_16  and  C_19
REMARK    4  A    between atoms: C_22  and  C_23
REMARK    5  A    between atoms: C_23  and  C_24
REMARK    6  A    between atoms: C_24  and  C_25
REMARK    7  A    between atoms: C_25  and  C_27
REMARK    8  A    between atoms: C_33  and  C_37
REMARK                            x       y       z     vdW  Elec       q    Type
REMARK                         _______ _______ _______ _____ _____    ______ ____
ROOT
ATOM      1  N   UNL     1      36.173 -20.713 -18.716  0.00  0.00    +0.389 N 
ATOM      2  N   UNL     1      35.325 -19.428 -21.121  0.00  0.00    -0.312 N 
ATOM      3  C   UNL     1      37.161 -20.160 -19.649  0.00  0.00    -0.055 C 
ATOM      4  C   UNL     1      35.012 -21.218 -19.458  0.00  0.00    -0.055 C 
ATOM      5  C   UNL     1      36.565 -19.006 -20.459  0.00  0.00    +0.068 C 
ATOM      6  C   UNL     1      34.345 -20.101 -20.262  0.00  0.00    +0.068 C 
ATOM      7  H   UNL     1      35.863 -19.973 -18.086  0.00  0.00    -0.080 HD
ENDROOT
BRANCH   2   9
ATOM      8  O   UNL     1      33.648 -16.403 -25.431  0.00  0.00    -0.449 OA
ATOM      9  C   UNL     1      34.888 -18.694 -22.230  0.00  0.00    +0.048 C 
ATOM     10  C   UNL     1      35.023 -17.284 -22.258  0.00  0.00    +0.018 C 
ATOM     11  C   UNL     1      34.305 -19.346 -23.340  0.00  0.00    +0.018 C 
ATOM     12  C   UNL     1      34.580 -16.562 -23.379  0.00  0.00    +0.039 C 
ATOM     13  C   UNL     1      34.016 -17.263 -24.440  0.00  0.00    +0.146 C 
ATOM     14  C   UNL     1      33.858 -18.648 -24.467  0.00  0.00    +0.039 C 
ATOM     15  C   UNL     1      34.549 -15.195 -23.760  0.00  0.00    +0.045 C 
ATOM     16  C   UNL     1      33.975 -15.153 -25.010  0.00  0.00    +0.198 C 
BRANCH  16  19
ATOM     17  O   UNL     1      34.406 -13.710 -26.848  0.00  0.00    -0.267 OA
ATOM     18  N   UNL     1      32.534 -13.301 -25.631  0.00  0.00    -0.323 N 
ATOM     19  C   UNL     1      33.688 -14.062 -25.877  0.00  0.00    +0.277 C 
ATOM     20  H   UNL     1      32.312 -12.540 -26.216  0.00  0.00    +0.145 HD
ATOM     21  H   UNL     1      31.948 -13.527 -24.874  0.00  0.00    +0.145 HD
ENDBRANCH  16  19
ENDBRANCH   2   9
BRANCH   1  22
ATOM     22  C   UNL     1      36.769 -21.778 -17.909  0.00  0.00    -0.077 C 
BRANCH  22  23
ATOM     23  C   UNL     1      36.950 -21.312 -16.465  0.00  0.00    -0.022 C 
BRANCH  23  24
ATOM     24  C   UNL     1      36.323 -22.302 -15.482  0.00  0.00    +0.003 C 
BRANCH  24  25
ATOM     25  C   UNL     1      34.993 -22.847 -16.012  0.00  0.00    +0.028 C 
BRANCH  25  27
ATOM     26  N   UNL     1      33.702 -24.764 -13.184  0.00  0.00    -0.312 N 
ATOM     27  C   UNL     1      34.205 -23.555 -14.951  0.00  0.00    -0.006 C 
ATOM     28  C   UNL     1      32.799 -23.578 -14.845  0.00  0.00    +0.011 C 
ATOM     29  C   UNL     1      34.744 -24.282 -13.931  0.00  0.00    +0.058 C 
ATOM     30  C   UNL     1      32.502 -24.349 -13.718  0.00  0.00    +0.048 C 
ATOM     31  C   UNL     1      31.736 -23.024 -15.586  0.00  0.00    +0.011 C 
ATOM     32  C   UNL     1      31.192 -24.596 -13.296  0.00  0.00    +0.015 C 
ATOM     33  C   UNL     1      30.420 -23.263 -15.175  0.00  0.00    +0.069 C 
ATOM     34  C   UNL     1      30.154 -24.036 -14.048  0.00  0.00    +0.012 C 
ATOM     35  H   UNL     1      33.797 -25.325 -12.381  0.00  0.00    +0.152 HD
BRANCH  33  37
ATOM     36  N   UNL     1      28.457 -22.251 -16.532  0.00  0.00    -0.191 NA
ATOM     37  C   UNL     1      29.336 -22.705 -15.924  0.00  0.00    +0.100 C 
ENDBRANCH  33  37
ENDBRANCH  25  27
ENDBRANCH  24  25
ENDBRANCH  23  24
ENDBRANCH  22  23
ENDBRANCH   1  22
TORSDOF 8
ENDMDL
MODEL 2
REMARK VINA RESULT:     -12.1      4.142      6.399
REMARK  Name = 6918314
REMARK  8 active torsions:
REMARK  status: ('A' for Active; 'I' for Inactive)
REMARK    1  A    between atoms: N_1  and  C_22
REMARK    2  A    between atoms: N_2  and  C_9
REMARK    3  A    between atoms: C_16  and  C_19
REMARK    4  A    between atoms: C_22  and  C_23
REMARK    5  A    between atoms: C_23  and  C_24
REMARK    6  A    between atoms: C_24  and  C_25
REMARK    7  A    between atoms: C_25  and  C_27
REMARK    8  A    between atoms: C_33  and  C_37
REMARK                            x       y       z     vdW  Elec       q    Type
REMARK                         _______ _______ _______ _____ _____    ______ ____
ROOT
ATOM      1  N   UNL     1      35.542 -16.388 -22.309  0.00  0.00    +0.389 N 
ATOM      2  N   UNL     1      33.900 -14.086 -21.909  0.00  0.00    -0.312 N 
ATOM      3  C   UNL     1      34.590 -15.966 -23.344  0.00  0.00    -0.055 C 
ATOM      4  C   UNL     1      35.001 -16.083 -20.980  0.00  0.00    -0.055 C 
ATOM      5  C   UNL     1      34.322 -14.462 -23.264  0.00  0.00    +0.068 C 
ATOM      6  C   UNL     1      34.746 -14.583 -20.820  0.00  0.00    +0.068 C 
ATOM      7  H   UNL     1      36.414 -15.874 -22.435  0.00  0.00    -0.080 HD
ENDROOT
BRANCH   2   9
ATOM      8  O   UNL     1      31.186  -9.298 -21.400  0.00  0.00    -0.449 OA
ATOM      9  C   UNL     1      33.194 -12.887 -21.749  0.00  0.00    +0.048 C 
ATOM     10  C   UNL     1      33.398 -11.808 -22.645  0.00  0.00    +0.018 C 
ATOM     11  C   UNL     1      32.270 -12.732 -20.693  0.00  0.00    +0.018 C 
ATOM     12  C   UNL     1      32.681 -10.611 -22.471  0.00  0.00    +0.039 C 
ATOM     13  C   UNL     1      31.785 -10.522 -21.411  0.00  0.00    +0.146 C 
ATOM     14  C   UNL     1      31.546 -11.551 -20.500  0.00  0.00    +0.039 C 
ATOM     15  C   UNL     1      32.615  -9.360 -23.138  0.00  0.00    +0.045 C 
ATOM     16  C   UNL     1      31.696  -8.602 -22.450  0.00  0.00    +0.198 C 
BRANCH  16  19
ATOM     17  O   UNL     1      30.828  -6.820 -23.762  0.00  0.00    -0.267 OA
ATOM     18  N   UNL     1      31.222  -6.390 -21.569  0.00  0.00    -0.323 N 
ATOM     19  C   UNL     1      31.227  -7.275 -22.660  0.00  0.00    +0.277 C 
ATOM     20  H   UNL     1      30.902  -5.466 -21.686  0.00  0.00    +0.145 HD
ATOM     21  H   UNL     1      31.539  -6.693 -20.688  0.00  0.00    +0.145 HD
ENDBRANCH  16  19
ENDBRANCH   2   9
BRANCH   1  22
ATOM     22  C   UNL     1      35.832 -17.816 -22.430  0.00  0.00    -0.077 C 
BRANCH  22  23
ATOM     23  C   UNL     1      36.079 -18.426 -21.052  0.00  0.00    -0.022 C 
BRANCH  23  24
ATOM     24  C   UNL     1      35.344 -19.759 -20.897  0.00  0.00    +0.003 C 
BRANCH  24  25
ATOM     25  C   UNL     1      35.908 -20.575 -19.730  0.00  0.00    +0.028 C 
BRANCH  25  27
ATOM     26  N   UNL     1      32.907 -22.251 -18.497  0.00  0.00    -0.312 N 
ATOM     27  C   UNL     1      34.842 -21.338 -19.001  0.00  0.00    -0.006 C 
ATOM     28  C   UNL     1      35.000 -21.997 -17.765  0.00  0.00    +0.011 C 
ATOM     29  C   UNL     1      33.561 -21.501 -19.437  0.00  0.00    +0.058 C 
ATOM     30  C   UNL     1      33.762 -22.570 -17.464  0.00  0.00    +0.048 C 
ATOM     31  C   UNL     1      36.066 -22.174 -16.860  0.00  0.00    +0.011 C 
ATOM     32  C   UNL     1      33.535 -23.311 -16.300  0.00  0.00    +0.015 C 
ATOM     33  C   UNL     1      35.854 -22.914 -15.691  0.00  0.00    +0.069 C 
ATOM     34  C   UNL     1      34.608 -23.473 -15.417  0.00  0.00    +0.012 C 
ATOM     35  H   UNL     1      31.963 -22.525 -18.550  0.00  0.00    +0.152 HD
BRANCH  33  37
ATOM     36  N   UNL     1      37.805 -23.243 -14.018  0.00  0.00    -0.191 NA
ATOM     37  C   UNL     1      36.931 -23.096 -14.768  0.00  0.00    +0.100 C 
ENDBRANCH  33  37
ENDBRANCH  25  27
ENDBRANCH  24  25
ENDBRANCH  23  24
ENDBRANCH  22  23
ENDBRANCH   1  22
TORSDOF 8
ENDMDL
MODEL 3
REMARK VINA RESULT:     -12.1      4.505     11.201
REMARK  Name = 6918314
REMARK  8 active torsions:
REMARK  status: ('A' for Active; 'I' for Inactive)
REMARK    1  A    between atoms: N_1  and  C_22
REMARK    2  A    between atoms: N_2  and  C_9
REMARK    3  A    between atoms: C_16  and  C_19
REMARK    4  A    between atoms: C_22  and  C_23
REMARK    5  A    between atoms: C_23  and  C_24
REMARK    6  A    between atoms: C_24  and  C_25
REMARK    7  A    between atoms: C_25  and  C_27
REMARK    8  A    between atoms: C_33  and  C_37
REMARK                            x       y       z     vdW  Elec       q    Type
REMARK                         _______ _______ _______ _____ _____    ______ ____
ROOT
ATOM      1  N   UNL     1      35.132 -16.937 -24.068  0.00  0.00    +0.389 N 
ATOM      2  N   UNL     1      35.057 -18.731 -21.848  0.00  0.00    -0.312 N 
ATOM      3  C   UNL     1      35.318 -16.435 -22.703  0.00  0.00    -0.055 C 
ATOM      4  C   UNL     1      34.201 -18.072 -24.061  0.00  0.00    -0.055 C 
ATOM      5  C   UNL     1      35.888 -17.522 -21.789  0.00  0.00    +0.068 C 
ATOM      6  C   UNL     1      34.733 -19.214 -23.193  0.00  0.00    +0.068 C 
ATOM      7  H   UNL     1      36.033 -17.254 -24.429  0.00  0.00    -0.080 HD
ENDROOT
BRANCH   2   9
ATOM      8  O   UNL     1      35.236 -22.325 -17.653  0.00  0.00    -0.449 OA
ATOM      9  C   UNL     1      35.141 -19.639 -20.785  0.00  0.00    +0.048 C 
ATOM     10  C   UNL     1      33.967 -20.202 -20.227  0.00  0.00    +0.018 C 
ATOM     11  C   UNL     1      36.396 -20.007 -20.250  0.00  0.00    +0.018 C 
ATOM     12  C   UNL     1      34.068 -21.113 -19.160  0.00  0.00    +0.039 C 
ATOM     13  C   UNL     1      35.333 -21.434 -18.680  0.00  0.00    +0.146 C 
ATOM     14  C   UNL     1      36.520 -20.910 -19.190  0.00  0.00    +0.039 C 
ATOM     15  C   UNL     1      33.154 -21.858 -18.370  0.00  0.00    +0.045 C 
ATOM     16  C   UNL     1      33.912 -22.575 -17.473  0.00  0.00    +0.198 C 
BRANCH  16  19
ATOM     17  O   UNL     1      34.332 -24.268 -15.859  0.00  0.00    -0.267 OA
ATOM     18  N   UNL     1      32.191 -23.543 -16.061  0.00  0.00    -0.323 N 
ATOM     19  C   UNL     1      33.541 -23.486 -16.445  0.00  0.00    +0.277 C 
ATOM     20  H   UNL     1      31.907 -24.165 -15.352  0.00  0.00    +0.145 HD
ATOM     21  H   UNL     1      31.529 -22.963 -16.501  0.00  0.00    +0.145 HD
ENDBRANCH  16  19
ENDBRANCH   2   9
BRANCH   1  22
ATOM     22  C   UNL     1      34.639 -15.874 -24.944  0.00  0.00    -0.077 C 
BRANCH  22  23
ATOM     23  C   UNL     1      33.365 -15.259 -24.365  0.00  0.00    -0.022 C 
BRANCH  23  24
ATOM     24  C   UNL     1      33.380 -13.735 -24.496  0.00  0.00    +0.003 C 
BRANCH  24  25
ATOM     25  C   UNL     1      34.171 -13.085 -23.356  0.00  0.00    +0.028 C 
BRANCH  25  27
ATOM     26  N   UNL     1      32.197 -12.967 -20.287  0.00  0.00    -0.312 N 
ATOM     27  C   UNL     1      33.307 -12.764 -22.173  0.00  0.00    -0.006 C 
ATOM     28  C   UNL     1      32.684 -11.525 -21.919  0.00  0.00    +0.011 C 
ATOM     29  C   UNL     1      33.002 -13.635 -21.170  0.00  0.00    +0.058 C 
ATOM     30  C   UNL     1      31.986 -11.676 -20.718  0.00  0.00    +0.048 C 
ATOM     31  C   UNL     1      32.635 -10.282 -22.580  0.00  0.00    +0.011 C 
ATOM     32  C   UNL     1      31.239 -10.642 -20.145  0.00  0.00    +0.015 C 
ATOM     33  C   UNL     1      31.891  -9.238 -22.017  0.00  0.00    +0.069 C 
ATOM     34  C   UNL     1      31.205  -9.417 -20.818  0.00  0.00    +0.012 C 
ATOM     35  H   UNL     1      31.822 -13.353 -19.462  0.00  0.00    +0.152 HD
BRANCH  33  37
ATOM     36  N   UNL     1      31.791  -6.947 -23.224  0.00  0.00    -0.191 NA
ATOM     37  C   UNL     1      31.837  -7.974 -22.683  0.00  0.00    +0.100 C 
ENDBRANCH  33  37
ENDBRANCH  25  27
ENDBRANCH  24  25
ENDBRANCH  23  24
ENDBRANCH  22  23
ENDBRANCH   1  22
TORSDOF 8
ENDMDL
MODEL 4
REMARK VINA RESULT:     -11.9      1.698      2.224
REMARK  Name = 6918314
REMARK  8 active torsions:
REMARK  status: ('A' for Active; 'I' for Inactive)
REMARK    1  A    between atoms: N_1  and  C_22
REMARK    2  A    between atoms: N_2  and  C_9
REMARK    3  A    between atoms: C_16  and  C_19
REMARK    4  A    between atoms: C_22  and  C_23
REMARK    5  A    between atoms: C_23  and  C_24
REMARK    6  A    between atoms: C_24  and  C_25
REMARK    7  A    between atoms: C_25  and  C_27
REMARK    8  A    between atoms: C_33  and  C_37
REMARK                            x       y       z     vdW  Elec       q    Type
REMARK                         _______ _______ _______ _____ _____    ______ ____
ROOT
ATOM      1  N   UNL     1      35.692 -20.767 -19.957  0.00  0.00    +0.389 N 
ATOM      2  N   UNL     1      35.209 -18.275 -21.265  0.00  0.00    -0.312 N 
ATOM      3  C   UNL     1      34.319 -20.294 -20.168  0.00  0.00    -0.055 C 
ATOM      4  C   UNL     1      36.585 -19.626 -19.732  0.00  0.00    -0.055 C 
ATOM      5  C   UNL     1      34.237 -19.369 -21.384  0.00  0.00    +0.068 C 
ATOM      6  C   UNL     1      36.579 -18.677 -20.933  0.00  0.00    +0.068 C 
ATOM      7  H   UNL     1      36.000 -21.266 -20.792  0.00  0.00    -0.080 HD
ENDROOT
BRANCH   2   9
ATOM      8  O   UNL     1      34.333 -13.612 -24.100  0.00  0.00    -0.449 OA
ATOM      9  C   UNL     1      34.988 -17.114 -22.016  0.00  0.00    +0.048 C 
ATOM     10  C   UNL     1      34.841 -15.860 -21.374  0.00  0.00    +0.018 C 
ATOM     11  C   UNL     1      34.906 -17.173 -23.425  0.00  0.00    +0.018 C 
ATOM     12  C   UNL     1      34.619 -14.704 -22.142  0.00  0.00    +0.039 C 
ATOM     13  C   UNL     1      34.551 -14.829 -23.526  0.00  0.00    +0.146 C 
ATOM     14  C   UNL     1      34.688 -16.036 -24.210  0.00  0.00    +0.039 C 
ATOM     15  C   UNL     1      34.431 -13.323 -21.870  0.00  0.00    +0.045 C 
ATOM     16  C   UNL     1      34.263 -12.707 -23.088  0.00  0.00    +0.198 C 
BRANCH  16  19
ATOM     17  O   UNL     1      33.044 -10.667 -23.061  0.00  0.00    -0.267 OA
ATOM     18  N   UNL     1      34.973 -10.701 -24.257  0.00  0.00    -0.323 N 
ATOM     19  C   UNL     1      34.037 -11.344 -23.430  0.00  0.00    +0.277 C 
ATOM     20  H   UNL     1      34.841  -9.759 -24.509  0.00  0.00    +0.145 HD
ATOM     21  H   UNL     1      35.760 -11.193 -24.585  0.00  0.00    +0.145 HD
ENDBRANCH  16  19
ENDBRANCH   2   9
BRANCH   1  22
ATOM     22  C   UNL     1      35.747 -21.693 -18.826  0.00  0.00    -0.077 C 
BRANCH  22  23
ATOM     23  C   UNL     1      34.338 -22.008 -18.328  0.00  0.00    -0.022 C 
BRANCH  23  24
ATOM     24  C   UNL     1      34.338 -23.226 -17.402  0.00  0.00    +0.003 C 
BRANCH  24  25
ATOM     25  C   UNL     1      34.721 -22.838 -15.971  0.00  0.00    +0.028 C 
BRANCH  25  27
ATOM     26  N   UNL     1      33.381 -24.840 -13.226  0.00  0.00    -0.312 N 
ATOM     27  C   UNL     1      33.914 -23.578 -14.945  0.00  0.00    -0.006 C 
ATOM     28  C   UNL     1      32.507 -23.599 -14.861  0.00  0.00    +0.011 C 
ATOM     29  C   UNL     1      34.435 -24.338 -13.941  0.00  0.00    +0.058 C 
ATOM     30  C   UNL     1      32.191 -24.404 -13.765  0.00  0.00    +0.048 C 
ATOM     31  C   UNL     1      31.458 -23.018 -15.601  0.00  0.00    +0.011 C 
ATOM     32  C   UNL     1      30.873 -24.660 -13.371  0.00  0.00    +0.015 C 
ATOM     33  C   UNL     1      30.134 -23.265 -15.218  0.00  0.00    +0.069 C 
ATOM     34  C   UNL     1      29.848 -24.073 -14.119  0.00  0.00    +0.012 C 
ATOM     35  H   UNL     1      33.462 -25.427 -12.440  0.00  0.00    +0.152 HD
BRANCH  33  37
ATOM     36  N   UNL     1      28.196 -22.204 -16.571  0.00  0.00    -0.191 NA
ATOM     37  C   UNL     1      29.064 -22.680 -15.965  0.00  0.00    +0.100 C 
ENDBRANCH  33  37
ENDBRANCH  25  27
ENDBRANCH  24  25
ENDBRANCH  23  24
ENDBRANCH  22  23
ENDBRANCH   1  22
TORSDOF 8
ENDMDL
MODEL 5
REMARK VINA RESULT:     -11.8      4.733      8.091
REMARK  Name = 6918314
REMARK  8 active torsions:
REMARK  status: ('A' for Active; 'I' for Inactive)
REMARK    1  A    between atoms: N_1  and  C_22
REMARK    2  A    between atoms: N_2  and  C_9
REMARK    3  A    between atoms: C_16  and  C_19
REMARK    4  A    between atoms: C_22  and  C_23
REMARK    5  A    between atoms: C_23  and  C_24
REMARK    6  A    between atoms: C_24  and  C_25
REMARK    7  A    between atoms: C_25  and  C_27
REMARK    8  A    between atoms: C_33  and  C_37
REMARK                            x       y       z     vdW  Elec       q    Type
REMARK                         _______ _______ _______ _____ _____    ______ ____
ROOT
ATOM      1  N   UNL     1      34.035 -15.526 -23.633  0.00  0.00    +0.389 N 
ATOM      2  N   UNL     1      33.279 -12.929 -22.717  0.00  0.00    -0.312 N 
ATOM      3  C   UNL     1      34.725 -14.912 -22.494  0.00  0.00    -0.055 C 
ATOM      4  C   UNL     1      33.629 -14.490 -24.590  0.00  0.00    -0.055 C 
ATOM      5  C   UNL     1      33.815 -13.916 -21.771  0.00  0.00    +0.068 C 
ATOM      6  C   UNL     1      32.683 -13.479 -23.938  0.00  0.00    +0.068 C 
ATOM      7  H   UNL     1      33.200 -16.005 -23.294  0.00  0.00    -0.080 HD
ENDROOT
BRANCH   2   9
ATOM      8  O   UNL     1      31.512  -8.053 -20.809  0.00  0.00    -0.449 OA
ATOM      9  C   UNL     1      32.814 -11.712 -22.204  0.00  0.00    +0.048 C 
ATOM     10  C   UNL     1      33.120 -10.493 -22.857  0.00  0.00    +0.018 C 
ATOM     11  C   UNL     1      32.033 -11.678 -21.027  0.00  0.00    +0.018 C 
ATOM     12  C   UNL     1      32.646  -9.279 -22.330  0.00  0.00    +0.039 C 
ATOM     13  C   UNL     1      31.881  -9.314 -21.168  0.00  0.00    +0.146 C 
ATOM     14  C   UNL     1      31.550 -10.483 -20.485  0.00  0.00    +0.039 C 
ATOM     15  C   UNL     1      32.740  -7.909 -22.689  0.00  0.00    +0.045 C 
ATOM     16  C   UNL     1      32.037  -7.209 -21.736  0.00  0.00    +0.198 C 
BRANCH  16  19
ATOM     17  O   UNL     1      32.539  -5.020 -20.958  0.00  0.00    -0.267 OA
ATOM     18  N   UNL     1      30.622  -5.280 -22.146  0.00  0.00    -0.323 N 
ATOM     19  C   UNL     1      31.792  -5.816 -21.583  0.00  0.00    +0.277 C 
ATOM     20  H   UNL     1      30.427  -4.319 -22.054  0.00  0.00    +0.145 HD
ATOM     21  H   UNL     1      29.997  -5.864 -22.631  0.00  0.00    +0.145 HD
ENDBRANCH  16  19
ENDBRANCH   2   9
BRANCH   1  22
ATOM     22  C   UNL     1      34.895 -16.515 -24.282  0.00  0.00    -0.077 C 
BRANCH  22  23
ATOM     23  C   UNL     1      34.083 -17.747 -24.678  0.00  0.00    -0.022 C 
BRANCH  23  24
ATOM     24  C   UNL     1      34.507 -18.973 -23.868  0.00  0.00    +0.003 C 
BRANCH  24  25
ATOM     25  C   UNL     1      34.156 -18.811 -22.386  0.00  0.00    +0.028 C 
BRANCH  25  27
ATOM     26  N   UNL     1      37.335 -19.040 -20.604  0.00  0.00    -0.312 N 
ATOM     27  C   UNL     1      35.324 -19.097 -21.489  0.00  0.00    -0.006 C 
ATOM     28  C   UNL     1      35.329 -19.997 -20.404  0.00  0.00    +0.011 C 
ATOM     29  C   UNL     1      36.554 -18.520 -21.600  0.00  0.00    +0.058 C 
ATOM     30  C   UNL     1      36.613 -19.944 -19.857  0.00  0.00    +0.048 C 
ATOM     31  C   UNL     1      34.378 -20.857 -19.820  0.00  0.00    +0.011 C 
ATOM     32  C   UNL     1      36.995 -20.713 -18.752  0.00  0.00    +0.015 C 
ATOM     33  C   UNL     1      34.746 -21.631 -18.714  0.00  0.00    +0.069 C 
ATOM     34  C   UNL     1      36.034 -21.559 -18.189  0.00  0.00    +0.012 C 
ATOM     35  H   UNL     1      38.277 -18.802 -20.443  0.00  0.00    +0.152 HD
BRANCH  33  37
ATOM     36  N   UNL     1      33.006 -23.218 -17.633  0.00  0.00    -0.191 NA
ATOM     37  C   UNL     1      33.785 -22.507 -18.117  0.00  0.00    +0.100 C 
ENDBRANCH  33  37
ENDBRANCH  25  27
ENDBRANCH  24  25
ENDBRANCH  23  24
ENDBRANCH  22  23
ENDBRANCH   1  22
TORSDOF 8
ENDMDL
MODEL 6
REMARK VINA RESULT:     -11.7      2.637      4.606
REMARK  Name = 6918314
REMARK  8 active torsions:
REMARK  status: ('A' for Active; 'I' for Inactive)
REMARK    1  A    between atoms: N_1  and  C_22
REMARK    2  A    between atoms: N_2  and  C_9
REMARK    3  A    between atoms: C_16  and  C_19
REMARK    4  A    between atoms: C_22  and  C_23
REMARK    5  A    between atoms: C_23  and  C_24
REMARK    6  A    between atoms: C_24  and  C_25
REMARK    7  A    between atoms: C_25  and  C_27
REMARK    8  A    between atoms: C_33  and  C_37
REMARK                            x       y       z     vdW  Elec       q    Type
REMARK                         _______ _______ _______ _____ _____    ______ ____
ROOT
ATOM      1  N   UNL     1      35.842 -20.750 -19.930  0.00  0.00    +0.389 N 
ATOM      2  N   UNL     1      35.310 -18.261 -21.226  0.00  0.00    -0.312 N 
ATOM      3  C   UNL     1      34.462 -20.279 -20.094  0.00  0.00    -0.055 C 
ATOM      4  C   UNL     1      36.741 -19.606 -19.738  0.00  0.00    -0.055 C 
ATOM      5  C   UNL     1      34.336 -19.357 -21.308  0.00  0.00    +0.068 C 
ATOM      6  C   UNL     1      36.692 -18.660 -20.940  0.00  0.00    +0.068 C 
ATOM      7  H   UNL     1      36.122 -21.250 -20.773  0.00  0.00    -0.080 HD
ENDROOT
BRANCH   2   9
ATOM      8  O   UNL     1      34.322 -13.608 -24.038  0.00  0.00    -0.449 OA
ATOM      9  C   UNL     1      35.061 -17.103 -21.971  0.00  0.00    +0.048 C 
ATOM     10  C   UNL     1      34.881 -15.856 -21.323  0.00  0.00    +0.018 C 
ATOM     11  C   UNL     1      34.984 -17.156 -23.381  0.00  0.00    +0.018 C 
ATOM     12  C   UNL     1      34.632 -14.701 -22.086  0.00  0.00    +0.039 C 
ATOM     13  C   UNL     1      34.569 -14.822 -23.470  0.00  0.00    +0.146 C 
ATOM     14  C   UNL     1      34.738 -16.021 -24.160  0.00  0.00    +0.039 C 
ATOM     15  C   UNL     1      34.409 -13.328 -21.807  0.00  0.00    +0.045 C 
ATOM     16  C   UNL     1      34.227 -12.710 -23.023  0.00  0.00    +0.198 C 
BRANCH  16  19
ATOM     17  O   UNL     1      32.971 -10.693 -22.965  0.00  0.00    -0.267 OA
ATOM     18  N   UNL     1      34.871 -10.691 -24.207  0.00  0.00    -0.323 N 
ATOM     19  C   UNL     1      33.968 -11.351 -23.358  0.00  0.00    +0.277 C 
ATOM     20  H   UNL     1      34.716  -9.751 -24.455  0.00  0.00    +0.145 HD
ATOM     21  H   UNL     1      35.659 -11.167 -24.554  0.00  0.00    +0.145 HD
ENDBRANCH  16  19
ENDBRANCH   2   9
BRANCH   1  22
ATOM     22  C   UNL     1      35.938 -21.673 -18.799  0.00  0.00    -0.077 C 
BRANCH  22  23
ATOM     23  C   UNL     1      34.607 -22.391 -18.585  0.00  0.00    -0.022 C 
BRANCH  23  24
ATOM     24  C   UNL     1      34.371 -22.689 -17.103  0.00  0.00    +0.003 C 
BRANCH  24  25
ATOM     25  C   UNL     1      35.663 -22.543 -16.293  0.00  0.00    +0.028 C 
BRANCH  25  27
ATOM     26  N   UNL     1      34.703 -23.595 -12.931  0.00  0.00    -0.312 N 
ATOM     27  C   UNL     1      35.530 -23.095 -14.905  0.00  0.00    -0.006 C 
ATOM     28  C   UNL     1      36.511 -23.837 -14.216  0.00  0.00    +0.011 C 
ATOM     29  C   UNL     1      34.432 -22.955 -14.110  0.00  0.00    +0.058 C 
ATOM     30  C   UNL     1      35.965 -24.144 -12.967  0.00  0.00    +0.048 C 
ATOM     31  C   UNL     1      37.812 -24.286 -14.516  0.00  0.00    +0.011 C 
ATOM     32  C   UNL     1      36.659 -24.879 -12.000  0.00  0.00    +0.015 C 
ATOM     33  C   UNL     1      38.518 -25.024 -13.559  0.00  0.00    +0.069 C 
ATOM     34  C   UNL     1      37.949 -25.315 -12.321  0.00  0.00    +0.012 C 
ATOM     35  H   UNL     1      34.085 -23.656 -12.167  0.00  0.00    +0.152 HD
BRANCH  33  37
ATOM     36  N   UNL     1      40.913 -25.854 -14.097  0.00  0.00    -0.191 NA
ATOM     37  C   UNL     1      39.840 -25.482 -13.856  0.00  0.00    +0.100 C 
ENDBRANCH  33  37
ENDBRANCH  25  27
ENDBRANCH  24  25
ENDBRANCH  23  24
ENDBRANCH  22  23
ENDBRANCH   1  22
TORSDOF 8
ENDMDL
MODEL 7
REMARK VINA RESULT:     -11.5      5.911      9.470
REMARK  Name = 6918314
REMARK  8 active torsions:
REMARK  status: ('A' for Active; 'I' for Inactive)
REMARK    1  A    between atoms: N_1  and  C_22
REMARK    2  A    between atoms: N_2  and  C_9
REMARK    3  A    between atoms: C_16  and  C_19
REMARK    4  A    between atoms: C_22  and  C_23
REMARK    5  A    between atoms: C_23  and  C_24
REMARK    6  A    between atoms: C_24  and  C_25
REMARK    7  A    between atoms: C_25  and  C_27
REMARK    8  A    between atoms: C_33  and  C_37
REMARK                            x       y       z     vdW  Elec       q    Type
REMARK                         _______ _______ _______ _____ _____    ______ ____
ROOT
ATOM      1  N   UNL     1      33.866 -13.175 -23.069  0.00  0.00    +0.389 N 
ATOM      2  N   UNL     1      32.740 -10.611 -22.511  0.00  0.00    -0.312 N 
ATOM      3  C   UNL     1      33.829 -12.139 -24.108  0.00  0.00    -0.055 C 
ATOM      4  C   UNL     1      32.691 -13.054 -22.200  0.00  0.00    -0.055 C 
ATOM      5  C   UNL     1      33.827 -10.740 -23.489  0.00  0.00    +0.068 C 
ATOM      6  C   UNL     1      32.649 -11.685 -21.517  0.00  0.00    +0.068 C 
ATOM      7  H   UNL     1      34.707 -13.046 -22.505  0.00  0.00    -0.080 HD
ENDROOT
BRANCH   2   9
ATOM      8  O   UNL     1      30.995  -5.493 -21.369  0.00  0.00    -0.449 OA
ATOM      9  C   UNL     1      32.299  -9.323 -22.184  0.00  0.00    +0.048 C 
ATOM     10  C   UNL     1      32.049  -8.369 -23.201  0.00  0.00    +0.018 C 
ATOM     11  C   UNL     1      32.096  -8.952 -20.836  0.00  0.00    +0.018 C 
ATOM     12  C   UNL     1      31.606  -7.080 -22.856  0.00  0.00    +0.039 C 
ATOM     13  C   UNL     1      31.425  -6.778 -21.510  0.00  0.00    +0.146 C 
ATOM     14  C   UNL     1      31.656  -7.676 -20.470  0.00  0.00    +0.039 C 
ATOM     15  C   UNL     1      31.262  -5.900 -23.566  0.00  0.00    +0.045 C 
ATOM     16  C   UNL     1      30.900  -4.969 -22.620  0.00  0.00    +0.198 C 
BRANCH  16  19
ATOM     17  O   UNL     1      30.137  -3.070 -23.827  0.00  0.00    -0.267 OA
ATOM     18  N   UNL     1      30.417  -2.826 -21.588  0.00  0.00    -0.323 N 
ATOM     19  C   UNL     1      30.466  -3.620 -22.745  0.00  0.00    +0.277 C 
ATOM     20  H   UNL     1      30.121  -1.888 -21.646  0.00  0.00    +0.145 HD
ATOM     21  H   UNL     1      30.680  -3.205 -20.719  0.00  0.00    +0.145 HD
ENDBRANCH  16  19
ENDBRANCH   2   9
BRANCH   1  22
ATOM     22  C   UNL     1      33.923 -14.506 -23.674  0.00  0.00    -0.077 C 
BRANCH  22  23
ATOM     23  C   UNL     1      34.685 -15.469 -22.765  0.00  0.00    -0.022 C 
BRANCH  23  24
ATOM     24  C   UNL     1      35.062 -16.751 -23.511  0.00  0.00    +0.003 C 
BRANCH  24  25
ATOM     25  C   UNL     1      34.584 -17.996 -22.757  0.00  0.00    +0.028 C 
BRANCH  25  27
ATOM     26  N   UNL     1      37.592 -18.946 -20.918  0.00  0.00    -0.312 N 
ATOM     27  C   UNL     1      35.640 -18.554 -21.851  0.00  0.00    -0.006 C 
ATOM     28  C   UNL     1      35.430 -19.487 -20.816  0.00  0.00    +0.011 C 
ATOM     29  C   UNL     1      36.964 -18.231 -21.902  0.00  0.00    +0.058 C 
ATOM     30  C   UNL     1      36.679 -19.721 -20.238  0.00  0.00    +0.048 C 
ATOM     31  C   UNL     1      34.307 -20.165 -20.301  0.00  0.00    +0.011 C 
ATOM     32  C   UNL     1      36.863 -20.604 -19.168  0.00  0.00    +0.015 C 
ATOM     33  C   UNL     1      34.475 -21.051 -19.230  0.00  0.00    +0.069 C 
ATOM     34  C   UNL     1      35.734 -21.265 -18.673  0.00  0.00    +0.012 C 
ATOM     35  H   UNL     1      38.556 -18.911 -20.723  0.00  0.00    +0.152 HD
BRANCH  33  37
ATOM     36  N   UNL     1      32.419 -22.305 -18.275  0.00  0.00    -0.191 NA
ATOM     37  C   UNL     1      33.340 -21.743 -18.703  0.00  0.00    +0.100 C 
ENDBRANCH  33  37
ENDBRANCH  25  27
ENDBRANCH  24  25
ENDBRANCH  23  24
ENDBRANCH  22  23
ENDBRANCH   1  22
TORSDOF 8
ENDMDL
MODEL 8
REMARK VINA RESULT:     -11.4      4.102     11.153
REMARK  Name = 6918314
REMARK  8 active torsions:
REMARK  status: ('A' for Active; 'I' for Inactive)
REMARK    1  A    between atoms: N_1  and  C_22
REMARK    2  A    between atoms: N_2  and  C_9
REMARK    3  A    between atoms: C_16  and  C_19
REMARK    4  A    between atoms: C_22  and  C_23
REMARK    5  A    between atoms: C_23  and  C_24
REMARK    6  A    between atoms: C_24  and  C_25
REMARK    7  A    between atoms: C_25  and  C_27
REMARK    8  A    between atoms: C_33  and  C_37
REMARK                            x       y       z     vdW  Elec       q    Type
REMARK                         _______ _______ _______ _____ _____    ______ ____
ROOT
ATOM      1  N   UNL     1      34.061 -15.234 -24.398  0.00  0.00    +0.389 N 
ATOM      2  N   UNL     1      34.882 -17.255 -22.556  0.00  0.00    -0.312 N 
ATOM      3  C   UNL     1      34.428 -16.571 -24.879  0.00  0.00    -0.055 C 
ATOM      4  C   UNL     1      34.870 -14.885 -23.225  0.00  0.00    -0.055 C 
ATOM      5  C   UNL     1      34.194 -17.628 -23.797  0.00  0.00    +0.068 C 
ATOM      6  C   UNL     1      34.651 -15.885 -22.088  0.00  0.00    +0.068 C 
ATOM      7  H   UNL     1      33.077 -15.240 -24.129  0.00  0.00    -0.080 HD
ENDROOT
BRANCH   2   9
ATOM      8  O   UNL     1      35.839 -21.284 -18.896  0.00  0.00    -0.449 OA
ATOM      9  C   UNL     1      35.163 -18.268 -21.630  0.00  0.00    +0.048 C 
ATOM     10  C   UNL     1      34.119 -19.066 -21.100  0.00  0.00    +0.018 C 
ATOM     11  C   UNL     1      36.489 -18.509 -21.207  0.00  0.00    +0.018 C 
ATOM     12  C   UNL     1      34.417 -20.078 -20.171  0.00  0.00    +0.039 C 
ATOM     13  C   UNL     1      35.743 -20.266 -19.796  0.00  0.00    +0.146 C 
ATOM     14  C   UNL     1      36.808 -19.511 -20.284  0.00  0.00    +0.039 C 
ATOM     15  C   UNL     1      33.671 -21.046 -19.449  0.00  0.00    +0.045 C 
ATOM     16  C   UNL     1      34.578 -21.750 -18.692  0.00  0.00    +0.198 C 
BRANCH  16  19
ATOM     17  O   UNL     1      33.746 -23.871 -18.018  0.00  0.00    -0.267 OA
ATOM     18  N   UNL     1      34.996 -22.726 -16.509  0.00  0.00    -0.323 N 
ATOM     19  C   UNL     1      34.407 -22.829 -17.780  0.00  0.00    +0.277 C 
ATOM     20  H   UNL     1      34.893 -23.458 -15.858  0.00  0.00    +0.145 HD
ATOM     21  H   UNL     1      35.511 -21.923 -16.268  0.00  0.00    +0.145 HD
ENDBRANCH  16  19
ENDBRANCH   2   9
BRANCH   1  22
ATOM     22  C   UNL     1      34.238 -14.242 -25.458  0.00  0.00    -0.077 C 
BRANCH  22  23
ATOM     23  C   UNL     1      33.048 -13.283 -25.491  0.00  0.00    -0.022 C 
BRANCH  23  24
ATOM     24  C   UNL     1      33.505 -11.845 -25.744  0.00  0.00    +0.003 C 
BRANCH  24  25
ATOM     25  C   UNL     1      34.327 -11.305 -24.569  0.00  0.00    +0.028 C 
BRANCH  25  27
ATOM     26  N   UNL     1      32.433  -8.822 -22.678  0.00  0.00    -0.312 N 
ATOM     27  C   UNL     1      33.495 -10.504 -23.613  0.00  0.00    -0.006 C 
ATOM     28  C   UNL     1      32.884 -10.994 -22.441  0.00  0.00    +0.011 C 
ATOM     29  C   UNL     1      33.211  -9.177 -23.746  0.00  0.00    +0.058 C 
ATOM     30  C   UNL     1      32.216  -9.912 -21.864  0.00  0.00    +0.048 C 
ATOM     31  C   UNL     1      32.824 -12.248 -21.800  0.00  0.00    +0.011 C 
ATOM     32  C   UNL     1      31.489 -10.021 -20.674  0.00  0.00    +0.015 C 
ATOM     33  C   UNL     1      32.099 -12.372 -20.609  0.00  0.00    +0.069 C 
ATOM     34  C   UNL     1      31.443 -11.274 -20.056  0.00  0.00    +0.012 C 
ATOM     35  H   UNL     1      32.078  -7.918 -22.514  0.00  0.00    +0.152 HD
BRANCH  33  37
ATOM     36  N   UNL     1      31.981 -14.671 -19.421  0.00  0.00    -0.191 NA
ATOM     37  C   UNL     1      32.034 -13.641 -19.953  0.00  0.00    +0.100 C 
ENDBRANCH  33  37
ENDBRANCH  25  27
ENDBRANCH  24  25
ENDBRANCH  23  24
ENDBRANCH  22  23
ENDBRANCH   1  22
TORSDOF 8
ENDMDL
MODEL 9
REMARK VINA RESULT:     -11.4      4.650     11.387
REMARK  Name = 6918314
REMARK  8 active torsions:
REMARK  status: ('A' for Active; 'I' for Inactive)
REMARK    1  A    between atoms: N_1  and  C_22
REMARK    2  A    between atoms: N_2  and  C_9
REMARK    3  A    between atoms: C_16  and  C_19
REMARK    4  A    between atoms: C_22  and  C_23
REMARK    5  A    between atoms: C_23  and  C_24
REMARK    6  A    between atoms: C_24  and  C_25
REMARK    7  A    between atoms: C_25  and  C_27
REMARK    8  A    between atoms: C_33  and  C_37
REMARK                            x       y       z     vdW  Elec       q    Type
REMARK                         _______ _______ _______ _____ _____    ______ ____
ROOT
ATOM      1  N   UNL     1      34.938 -17.818 -22.605  0.00  0.00    +0.389 N 
ATOM      2  N   UNL     1      35.200 -19.761 -20.529  0.00  0.00    -0.312 N 
ATOM      3  C   UNL     1      34.140 -19.049 -22.636  0.00  0.00    -0.055 C 
ATOM      4  C   UNL     1      36.247 -18.086 -22.000  0.00  0.00    -0.055 C 
ATOM      5  C   UNL     1      33.918 -19.596 -21.225  0.00  0.00    +0.068 C 
ATOM      6  C   UNL     1      36.097 -18.602 -20.567  0.00  0.00    +0.068 C 
ATOM      7  H   UNL     1      34.450 -17.123 -22.038  0.00  0.00    -0.080 HD
ENDROOT
BRANCH   2   9
ATOM      8  O   UNL     1      35.538 -23.191 -16.208  0.00  0.00    -0.449 OA
ATOM      9  C   UNL     1      35.250 -20.643 -19.442  0.00  0.00    +0.048 C 
ATOM     10  C   UNL     1      36.406 -20.713 -18.626  0.00  0.00    +0.018 C 
ATOM     11  C   UNL     1      34.150 -21.477 -19.141  0.00  0.00    +0.018 C 
ATOM     12  C   UNL     1      36.440 -21.603 -17.539  0.00  0.00    +0.039 C 
ATOM     13  C   UNL     1      35.324 -22.397 -17.295  0.00  0.00    +0.146 C 
ATOM     14  C   UNL     1      34.162 -22.370 -18.064  0.00  0.00    +0.039 C 
ATOM     15  C   UNL     1      37.383 -21.943 -16.533  0.00  0.00    +0.045 C 
ATOM     16  C   UNL     1      36.788 -22.908 -15.754  0.00  0.00    +0.198 C 
BRANCH  16  19
ATOM     17  O   UNL     1      37.680 -23.076 -13.558  0.00  0.00    -0.267 OA
ATOM     18  N   UNL     1      37.271 -25.019 -14.656  0.00  0.00    -0.323 N 
ATOM     19  C   UNL     1      37.256 -23.615 -14.611  0.00  0.00    +0.277 C 
ATOM     20  H   UNL     1      37.590 -25.533 -13.880  0.00  0.00    +0.145 HD
ATOM     21  H   UNL     1      36.963 -25.489 -15.464  0.00  0.00    +0.145 HD
ENDBRANCH  16  19
ENDBRANCH   2   9
BRANCH   1  22
ATOM     22  C   UNL     1      35.097 -17.275 -23.953  0.00  0.00    -0.077 C 
BRANCH  22  23
ATOM     23  C   UNL     1      34.357 -15.944 -24.081  0.00  0.00    -0.022 C 
BRANCH  23  24
ATOM     24  C   UNL     1      34.806 -14.956 -23.003  0.00  0.00    +0.003 C 
BRANCH  24  25
ATOM     25  C   UNL     1      34.166 -13.580 -23.206  0.00  0.00    +0.028 C 
BRANCH  25  27
ATOM     26  N   UNL     1      32.226 -13.221 -20.133  0.00  0.00    -0.312 N 
ATOM     27  C   UNL     1      33.327 -13.163 -22.035  0.00  0.00    -0.006 C 
ATOM     28  C   UNL     1      32.758 -11.888 -21.841  0.00  0.00    +0.011 C 
ATOM     29  C   UNL     1      32.995 -13.967 -20.986  0.00  0.00    +0.058 C 
ATOM     30  C   UNL     1      32.065 -11.947 -20.630  0.00  0.00    +0.048 C 
ATOM     31  C   UNL     1      32.755 -10.679 -22.566  0.00  0.00    +0.011 C 
ATOM     32  C   UNL     1      31.366 -10.855 -20.106  0.00  0.00    +0.015 C 
ATOM     33  C   UNL     1      32.059  -9.578 -22.053  0.00  0.00    +0.069 C 
ATOM     34  C   UNL     1      31.376  -9.666 -20.842  0.00  0.00    +0.012 C 
ATOM     35  H   UNL     1      31.843 -13.548 -19.287  0.00  0.00    +0.152 HD
BRANCH  33  37
ATOM     36  N   UNL     1      32.045  -7.350 -23.377  0.00  0.00    -0.191 NA
ATOM     37  C   UNL     1      32.051  -8.348 -22.784  0.00  0.00    +0.100 C 
ENDBRANCH  33  37
ENDBRANCH  25  27
ENDBRANCH  24  25
ENDBRANCH  23  24
ENDBRANCH  22  23
ENDBRANCH   1  22
TORSDOF 8
ENDMDL
