MODEL 1
REMARK VINA RESULT:     -11.7      0.000      0.000
REMARK  Name = 9562794
REMARK  7 active torsions:
REMARK  status: ('A' for Active; 'I' for Inactive)
REMARK    1  A    between atoms: N_1  and  C_2
REMARK    2  A    between atoms: N_1  and  N_16
REMARK    3  A    between atoms: C_2  and  C_5
REMARK    4  A    between atoms: C_6  and  O_13
REMARK    5  A    between atoms: C_17  and  C_19
REMARK    6  A    between atoms: C_22  and  O_25
REMARK    7  A    between atoms: C_23  and  O_27
REMARK                            x       y       z     vdW  Elec       q    Type
REMARK                         _______ _______ _______ _____ _____    ______ ____
ROOT
ATOM      1  N   UNL     1      37.104 -21.377 -16.607  0.00  0.00    -0.126 NA
ENDROOT
BRANCH   1   3
ATOM      2  O   UNL     1      38.559 -23.231 -15.218  0.00  0.00    -0.269 OA
ATOM      3  N   UNL     1      36.643 -21.958 -15.475  0.00  0.00    -0.228 N 
ATOM      4  C   UNL     1      37.444 -22.886 -14.837  0.00  0.00    +0.260 C 
ATOM      5  H   UNL     1      35.757 -21.725 -15.114  0.00  0.00    +0.171 HD
BRANCH   4   6
ATOM      6  C   UNL     1      36.870 -23.501 -13.612  0.00  0.00    +0.058 C 
ATOM      7  C   UNL     1      35.513 -23.741 -13.561  0.00  0.00    +0.044 C 
ATOM      8  C   UNL     1      37.713 -23.811 -12.565  0.00  0.00    +0.008 C 
ATOM      9  C   UNL     1      34.973 -24.317 -12.410  0.00  0.00    +0.168 C 
ATOM     10  C   UNL     1      35.804 -24.640 -11.337  0.00  0.00    +0.167 C 
ATOM     11  C   UNL     1      37.173 -24.387 -11.414  0.00  0.00    +0.040 C 
BRANCH   9  12
ATOM     12  O   UNL     1      33.634 -24.559 -12.347  0.00  0.00    -0.503 OA
ATOM     13  H   UNL     1      33.237 -25.157 -12.948  0.00  0.00    +0.292 HD
ENDBRANCH   9  12
BRANCH  10  14
ATOM     14  O   UNL     1      35.289 -25.203 -10.209  0.00  0.00    -0.503 OA
ATOM     15  H   UNL     1      35.799 -25.224  -9.423  0.00  0.00    +0.292 HD
ENDBRANCH  10  14
ENDBRANCH   4   6
ENDBRANCH   1   3
BRANCH   1  16
ATOM     16  C   UNL     1      36.727 -21.964 -17.703  0.00  0.00    +0.141 C 
BRANCH  16  19
ATOM     17  C   UNL     1      35.609 -20.568 -19.453  0.00  0.00    +0.000 C 
ATOM     18  C   UNL     1      34.429 -20.200 -20.143  0.00  0.00    -0.000 C 
ATOM     19  C   UNL     1      35.539 -21.546 -18.447  0.00  0.00    +0.031 C 
ATOM     20  C   UNL     1      34.325 -22.153 -18.127  0.00  0.00    +0.136 C 
ATOM     21  C   UNL     1      33.215 -20.821 -19.806  0.00  0.00    +0.003 C 
ATOM     22  C   UNL     1      36.823 -19.947 -19.789  0.00  0.00    -0.000 C 
ATOM     23  C   UNL     1      33.164 -21.790 -18.804  0.00  0.00    +0.037 C 
ATOM     24  C   UNL     1      34.498 -19.222 -21.147  0.00  0.00    -0.000 C 
ATOM     25  C   UNL     1      36.874 -18.977 -20.790  0.00  0.00    -0.000 C 
ATOM     26  C   UNL     1      35.713 -18.614 -21.469  0.00  0.00    -0.000 C 
BRANCH  20  27
ATOM     27  O   UNL     1      34.248 -23.103 -17.152  0.00  0.00    -0.472 OA
ATOM     28  C   UNL     1      33.012 -23.212 -16.449  0.00  0.00    +0.252 C 
ENDBRANCH  20  27
ENDBRANCH  16  19
ENDBRANCH   1  16
TORSDOF 7
ENDMDL
MODEL 2
REMARK VINA RESULT:     -11.2      3.693      8.767
REMARK  Name = 9562794
REMARK  7 active torsions:
REMARK  status: ('A' for Active; 'I' for Inactive)
REMARK    1  A    between atoms: N_1  and  C_2
REMARK    2  A    between atoms: N_1  and  N_16
REMARK    3  A    between atoms: C_2  and  C_5
REMARK    4  A    between atoms: C_6  and  O_13
REMARK    5  A    between atoms: C_17  and  C_19
REMARK    6  A    between atoms: C_22  and  O_25
REMARK    7  A    between atoms: C_23  and  O_27
REMARK                            x       y       z     vdW  Elec       q    Type
REMARK                         _______ _______ _______ _____ _____    ______ ____
ROOT
ATOM      1  N   UNL     1      36.431 -20.170 -19.058  0.00  0.00    -0.126 NA
ENDROOT
BRANCH   1   3
ATOM      2  O   UNL     1      37.650 -18.647 -20.976  0.00  0.00    -0.269 OA
ATOM      3  N   UNL     1      35.755 -19.662 -20.116  0.00  0.00    -0.228 N 
ATOM      4  C   UNL     1      36.450 -18.902 -21.038  0.00  0.00    +0.260 C 
ATOM      5  H   UNL     1      34.791 -19.830 -20.225  0.00  0.00    +0.171 HD
BRANCH   4   6
ATOM      6  C   UNL     1      35.646 -18.357 -22.163  0.00  0.00    +0.058 C 
ATOM      7  C   UNL     1      35.624 -16.993 -22.365  0.00  0.00    +0.044 C 
ATOM      8  C   UNL     1      34.948 -19.232 -22.967  0.00  0.00    +0.008 C 
ATOM      9  C   UNL     1      34.867 -16.480 -23.420  0.00  0.00    +0.168 C 
ATOM     10  C   UNL     1      34.152 -17.344 -24.248  0.00  0.00    +0.167 C 
ATOM     11  C   UNL     1      34.191 -18.720 -24.022  0.00  0.00    +0.040 C 
BRANCH   9  12
ATOM     12  O   UNL     1      34.836 -15.135 -23.630  0.00  0.00    -0.503 OA
ATOM     13  H   UNL     1      35.410 -14.572 -23.149  0.00  0.00    +0.292 HD
ENDBRANCH   9  12
BRANCH  10  14
ATOM     14  O   UNL     1      33.410 -16.857 -25.281  0.00  0.00    -0.503 OA
ATOM     15  H   UNL     1      32.476 -16.929 -25.261  0.00  0.00    +0.292 HD
ENDBRANCH  10  14
ENDBRANCH   4   6
ENDBRANCH   1   3
BRANCH   1  16
ATOM     16  C   UNL     1      36.286 -21.450 -18.894  0.00  0.00    +0.141 C 
BRANCH  16  19
ATOM     17  C   UNL     1      35.740 -22.406 -16.646  0.00  0.00    +0.000 C 
ATOM     18  C   UNL     1      34.782 -22.946 -15.756  0.00  0.00    -0.000 C 
ATOM     19  C   UNL     1      35.337 -22.015 -17.934  0.00  0.00    +0.031 C 
ATOM     20  C   UNL     1      34.009 -22.155 -18.337  0.00  0.00    +0.136 C 
ATOM     21  C   UNL     1      33.449 -23.080 -16.180  0.00  0.00    +0.003 C 
ATOM     22  C   UNL     1      37.072 -22.272 -16.223  0.00  0.00    -0.000 C 
ATOM     23  C   UNL     1      33.067 -22.687 -17.462  0.00  0.00    +0.037 C 
ATOM     24  C   UNL     1      35.184 -23.338 -14.469  0.00  0.00    -0.000 C 
ATOM     25  C   UNL     1      37.455 -22.666 -14.941  0.00  0.00    -0.000 C 
ATOM     26  C   UNL     1      36.513 -23.199 -14.065  0.00  0.00    -0.000 C 
BRANCH  20  27
ATOM     27  O   UNL     1      33.609 -21.778 -19.585  0.00  0.00    -0.472 OA
ATOM     28  C   UNL     1      32.707 -20.677 -19.671  0.00  0.00    +0.252 C 
ENDBRANCH  20  27
ENDBRANCH  16  19
ENDBRANCH   1  16
TORSDOF 7
ENDMDL
MODEL 3
REMARK VINA RESULT:     -10.5      3.206      8.235
REMARK  Name = 9562794
REMARK  7 active torsions:
REMARK  status: ('A' for Active; 'I' for Inactive)
REMARK    1  A    between atoms: N_1  and  C_2
REMARK    2  A    between atoms: N_1  and  N_16
REMARK    3  A    between atoms: C_2  and  C_5
REMARK    4  A    between atoms: C_6  and  O_13
REMARK    5  A    between atoms: C_17  and  C_19
REMARK    6  A    between atoms: C_22  and  O_25
REMARK    7  A    between atoms: C_23  and  O_27
REMARK                            x       y       z     vdW  Elec       q    Type
REMARK                         _______ _______ _______ _____ _____    ______ ____
ROOT
ATOM      1  N   UNL     1      32.676 -22.092 -18.204  0.00  0.00    -0.126 NA
ENDROOT
BRANCH   1   3
ATOM      2  O   UNL     1      32.497 -20.367 -20.320  0.00  0.00    -0.269 OA
ATOM      3  N   UNL     1      33.757 -21.448 -18.706  0.00  0.00    -0.228 N 
ATOM      4  C   UNL     1      33.575 -20.594 -19.778  0.00  0.00    +0.260 C 
ATOM      5  H   UNL     1      34.650 -21.585 -18.317  0.00  0.00    +0.171 HD
BRANCH   4   6
ATOM      6  C   UNL     1      34.804 -19.936 -20.294  0.00  0.00    +0.058 C 
ATOM      7  C   UNL     1      34.694 -19.064 -21.357  0.00  0.00    +0.044 C 
ATOM      8  C   UNL     1      36.012 -20.219 -19.694  0.00  0.00    +0.008 C 
ATOM      9  C   UNL     1      35.848 -18.447 -21.843  0.00  0.00    +0.168 C 
ATOM     10  C   UNL     1      37.084 -18.716 -21.254  0.00  0.00    +0.167 C 
ATOM     11  C   UNL     1      37.166 -19.602 -20.180  0.00  0.00    +0.040 C 
BRANCH   9  12
ATOM     12  O   UNL     1      35.755 -17.584 -22.893  0.00  0.00    -0.503 OA
ATOM     13  H   UNL     1      36.163 -17.794 -23.710  0.00  0.00    +0.292 HD
ENDBRANCH   9  12
BRANCH  10  14
ATOM     14  O   UNL     1      38.216 -18.120 -21.719  0.00  0.00    -0.503 OA
ATOM     15  H   UNL     1      39.048 -18.536 -21.597  0.00  0.00    +0.292 HD
ENDBRANCH  10  14
ENDBRANCH   4   6
ENDBRANCH   1   3
BRANCH   1  16
ATOM     16  C   UNL     1      32.952 -23.199 -17.583  0.00  0.00    +0.141 C 
BRANCH  16  19
ATOM     17  C   UNL     1      32.309 -23.444 -15.178  0.00  0.00    +0.000 C 
ATOM     18  C   UNL     1      32.690 -23.472 -13.815  0.00  0.00    -0.000 C 
ATOM     19  C   UNL     1      33.290 -23.236 -16.161  0.00  0.00    +0.031 C 
ATOM     20  C   UNL     1      34.627 -23.058 -15.805  0.00  0.00    +0.136 C 
ATOM     21  C   UNL     1      34.041 -23.290 -13.476  0.00  0.00    +0.003 C 
ATOM     22  C   UNL     1      30.959 -23.625 -15.517  0.00  0.00    -0.000 C 
ATOM     23  C   UNL     1      35.002 -23.084 -14.465  0.00  0.00    +0.037 C 
ATOM     24  C   UNL     1      31.709 -23.678 -12.832  0.00  0.00    -0.000 C 
ATOM     25  C   UNL     1      29.997 -23.830 -14.527  0.00  0.00    -0.000 C 
ATOM     26  C   UNL     1      30.371 -23.856 -13.186  0.00  0.00    -0.000 C 
BRANCH  20  27
ATOM     27  O   UNL     1      35.587 -22.856 -16.753  0.00  0.00    -0.472 OA
ATOM     28  C   UNL     1      36.709 -22.059 -16.379  0.00  0.00    +0.252 C 
ENDBRANCH  20  27
ENDBRANCH  16  19
ENDBRANCH   1  16
TORSDOF 7
ENDMDL
MODEL 4
REMARK VINA RESULT:     -10.4      3.316      8.347
REMARK  Name = 9562794
REMARK  7 active torsions:
REMARK  status: ('A' for Active; 'I' for Inactive)
REMARK    1  A    between atoms: N_1  and  C_2
REMARK    2  A    between atoms: N_1  and  N_16
REMARK    3  A    between atoms: C_2  and  C_5
REMARK    4  A    between atoms: C_6  and  O_13
REMARK    5  A    between atoms: C_17  and  C_19
REMARK    6  A    between atoms: C_22  and  O_25
REMARK    7  A    between atoms: C_23  and  O_27
REMARK                            x       y       z     vdW  Elec       q    Type
REMARK                         _______ _______ _______ _____ _____    ______ ____
ROOT
ATOM      1  N   UNL     1      32.736 -22.805 -18.033  0.00  0.00    -0.126 NA
ENDROOT
BRANCH   1   3
ATOM      2  O   UNL     1      35.397 -22.343 -18.470  0.00  0.00    -0.269 OA
ATOM      3  N   UNL     1      33.174 -21.821 -18.854  0.00  0.00    -0.228 N 
ATOM      4  C   UNL     1      34.537 -21.657 -19.017  0.00  0.00    +0.260 C 
ATOM      5  H   UNL     1      32.537 -21.237 -19.324  0.00  0.00    +0.171 HD
BRANCH   4   6
ATOM      6  C   UNL     1      34.951 -20.547 -19.914  0.00  0.00    +0.058 C 
ATOM      7  C   UNL     1      36.275 -20.160 -19.925  0.00  0.00    +0.044 C 
ATOM      8  C   UNL     1      33.999 -19.940 -20.705  0.00  0.00    +0.008 C 
ATOM      9  C   UNL     1      36.664 -19.116 -20.766  0.00  0.00    +0.168 C 
ATOM     10  C   UNL     1      35.720 -18.485 -21.577  0.00  0.00    +0.167 C 
ATOM     11  C   UNL     1      34.387 -18.896 -21.546  0.00  0.00    +0.040 C 
BRANCH   9  12
ATOM     12  O   UNL     1      37.968 -18.722 -20.786  0.00  0.00    -0.503 OA
ATOM     13  H   UNL     1      38.228 -17.941 -20.341  0.00  0.00    +0.292 HD
ENDBRANCH   9  12
BRANCH  10  14
ATOM     14  O   UNL     1      36.087 -17.465 -22.401  0.00  0.00    -0.503 OA
ATOM     15  H   UNL     1      36.591 -16.750 -22.065  0.00  0.00    +0.292 HD
ENDBRANCH  10  14
ENDBRANCH   4   6
ENDBRANCH   1   3
BRANCH   1  16
ATOM     16  C   UNL     1      32.255 -22.385 -16.902  0.00  0.00    +0.141 C 
BRANCH  16  19
ATOM     17  C   UNL     1      31.134 -23.819 -15.185  0.00  0.00    +0.000 C 
ATOM     18  C   UNL     1      31.222 -24.595 -14.004  0.00  0.00    -0.000 C 
ATOM     19  C   UNL     1      32.290 -23.198 -15.686  0.00  0.00    +0.031 C 
ATOM     20  C   UNL     1      33.514 -23.340 -15.033  0.00  0.00    +0.136 C 
ATOM     21  C   UNL     1      32.463 -24.726 -13.360  0.00  0.00    +0.003 C 
ATOM     22  C   UNL     1      29.893 -23.687 -15.829  0.00  0.00    -0.000 C 
ATOM     23  C   UNL     1      33.601 -24.102 -13.872  0.00  0.00    +0.037 C 
ATOM     24  C   UNL     1      30.067 -25.214 -13.502  0.00  0.00    -0.000 C 
ATOM     25  C   UNL     1      28.755 -24.310 -15.317  0.00  0.00    -0.000 C 
ATOM     26  C   UNL     1      28.841 -25.073 -14.155  0.00  0.00    -0.000 C 
BRANCH  20  27
ATOM     27  O   UNL     1      34.642 -22.741 -15.513  0.00  0.00    -0.472 OA
ATOM     28  C   UNL     1      35.826 -22.869 -14.730  0.00  0.00    +0.252 C 
ENDBRANCH  20  27
ENDBRANCH  16  19
ENDBRANCH   1  16
TORSDOF 7
ENDMDL
MODEL 5
REMARK VINA RESULT:     -10.3      3.161      7.990
REMARK  Name = 9562794
REMARK  7 active torsions:
REMARK  status: ('A' for Active; 'I' for Inactive)
REMARK    1  A    between atoms: N_1  and  C_2
REMARK    2  A    between atoms: N_1  and  N_16
REMARK    3  A    between atoms: C_2  and  C_5
REMARK    4  A    between atoms: C_6  and  O_13
REMARK    5  A    between atoms: C_17  and  C_19
REMARK    6  A    between atoms: C_22  and  O_25
REMARK    7  A    between atoms: C_23  and  O_27
REMARK                            x       y       z     vdW  Elec       q    Type
REMARK                         _______ _______ _______ _____ _____    ______ ____
ROOT
ATOM      1  N   UNL     1      32.724 -22.880 -17.888  0.00  0.00    -0.126 NA
ENDROOT
BRANCH   1   3
ATOM      2  O   UNL     1      35.377 -22.331 -18.265  0.00  0.00    -0.269 OA
ATOM      3  N   UNL     1      33.148 -21.915 -18.736  0.00  0.00    -0.228 N 
ATOM      4  C   UNL     1      34.508 -21.703 -18.866  0.00  0.00    +0.260 C 
ATOM      5  H   UNL     1      32.504 -21.376 -19.249  0.00  0.00    +0.171 HD
BRANCH   4   6
ATOM      6  C   UNL     1      34.907 -20.616 -19.797  0.00  0.00    +0.058 C 
ATOM      7  C   UNL     1      36.227 -20.216 -19.826  0.00  0.00    +0.044 C 
ATOM      8  C   UNL     1      33.945 -20.042 -20.601  0.00  0.00    +0.008 C 
ATOM      9  C   UNL     1      36.601 -19.193 -20.699  0.00  0.00    +0.168 C 
ATOM     10  C   UNL     1      35.647 -18.596 -21.523  0.00  0.00    +0.167 C 
ATOM     11  C   UNL     1      34.319 -19.019 -21.474  0.00  0.00    +0.040 C 
BRANCH   9  12
ATOM     12  O   UNL     1      37.901 -18.787 -20.738  0.00  0.00    -0.503 OA
ATOM     13  H   UNL     1      38.208 -18.140 -20.135  0.00  0.00    +0.292 HD
ENDBRANCH   9  12
BRANCH  10  14
ATOM     14  O   UNL     1      36.000 -17.597 -22.379  0.00  0.00    -0.503 OA
ATOM     15  H   UNL     1      36.904 -17.375 -22.492  0.00  0.00    +0.292 HD
ENDBRANCH  10  14
ENDBRANCH   4   6
ENDBRANCH   1   3
BRANCH   1  16
ATOM     16  C   UNL     1      32.029 -22.442 -16.881  0.00  0.00    +0.141 C 
BRANCH  16  19
ATOM     17  C   UNL     1      33.011 -23.408 -14.792  0.00  0.00    +0.000 C 
ATOM     18  C   UNL     1      32.836 -24.138 -13.592  0.00  0.00    -0.000 C 
ATOM     19  C   UNL     1      31.905 -23.189 -15.630  0.00  0.00    +0.031 C 
ATOM     20  C   UNL     1      30.645 -23.682 -15.289  0.00  0.00    +0.136 C 
ATOM     21  C   UNL     1      31.560 -24.627 -13.266  0.00  0.00    +0.003 C 
ATOM     22  C   UNL     1      34.286 -22.919 -15.119  0.00  0.00    -0.000 C 
ATOM     23  C   UNL     1      30.473 -24.401 -14.110  0.00  0.00    +0.037 C 
ATOM     24  C   UNL     1      33.941 -24.359 -12.755  0.00  0.00    -0.000 C 
ATOM     25  C   UNL     1      35.374 -23.147 -14.275  0.00  0.00    -0.000 C 
ATOM     26  C   UNL     1      35.202 -23.865 -13.095  0.00  0.00    -0.000 C 
BRANCH  20  27
ATOM     27  O   UNL     1      29.566 -23.474 -16.096  0.00  0.00    -0.472 OA
ATOM     28  C   UNL     1      28.463 -22.768 -15.533  0.00  0.00    +0.252 C 
ENDBRANCH  20  27
ENDBRANCH  16  19
ENDBRANCH   1  16
TORSDOF 7
ENDMDL
MODEL 6
REMARK VINA RESULT:     -10.2      5.058      8.088
REMARK  Name = 9562794
REMARK  7 active torsions:
REMARK  status: ('A' for Active; 'I' for Inactive)
REMARK    1  A    between atoms: N_1  and  C_2
REMARK    2  A    between atoms: N_1  and  N_16
REMARK    3  A    between atoms: C_2  and  C_5
REMARK    4  A    between atoms: C_6  and  O_13
REMARK    5  A    between atoms: C_17  and  C_19
REMARK    6  A    between atoms: C_22  and  O_25
REMARK    7  A    between atoms: C_23  and  O_27
REMARK                            x       y       z     vdW  Elec       q    Type
REMARK                         _______ _______ _______ _____ _____    ______ ____
ROOT
ATOM      1  N   UNL     1      35.684 -16.267 -21.472  0.00  0.00    -0.126 NA
ENDROOT
BRANCH   1   3
ATOM      2  O   UNL     1      37.169 -18.564 -21.517  0.00  0.00    -0.269 OA
ATOM      3  N   UNL     1      35.303 -17.388 -20.815  0.00  0.00    -0.228 N 
ATOM      4  C   UNL     1      36.114 -18.505 -20.893  0.00  0.00    +0.260 C 
ATOM      5  H   UNL     1      34.468 -17.407 -20.295  0.00  0.00    +0.171 HD
BRANCH   4   6
ATOM      6  C   UNL     1      35.627 -19.708 -20.167  0.00  0.00    +0.058 C 
ATOM      7  C   UNL     1      34.285 -20.021 -20.224  0.00  0.00    +0.044 C 
ATOM      8  C   UNL     1      36.533 -20.470 -19.461  0.00  0.00    +0.008 C 
ATOM      9  C   UNL     1      33.828 -21.149 -19.542  0.00  0.00    +0.168 C 
ATOM     10  C   UNL     1      34.723 -21.938 -18.819  0.00  0.00    +0.167 C 
ATOM     11  C   UNL     1      36.075 -21.598 -18.778  0.00  0.00    +0.040 C 
BRANCH   9  12
ATOM     12  O   UNL     1      32.505 -21.470 -19.589  0.00  0.00    -0.503 OA
ATOM     13  H   UNL     1      31.886 -20.980 -19.085  0.00  0.00    +0.292 HD
ENDBRANCH   9  12
BRANCH  10  14
ATOM     14  O   UNL     1      34.289 -23.041 -18.149  0.00  0.00    -0.503 OA
ATOM     15  H   UNL     1      33.371 -23.217 -18.082  0.00  0.00    +0.292 HD
ENDBRANCH  10  14
ENDBRANCH   4   6
ENDBRANCH   1   3
BRANCH   1  16
ATOM     16  C   UNL     1      34.712 -15.453 -21.753  0.00  0.00    +0.141 C 
BRANCH  16  19
ATOM     17  C   UNL     1      34.075 -13.826 -23.544  0.00  0.00    +0.000 C 
ATOM     18  C   UNL     1      33.700 -13.583 -24.887  0.00  0.00    -0.000 C 
ATOM     19  C   UNL     1      34.322 -15.145 -23.129  0.00  0.00    +0.031 C 
ATOM     20  C   UNL     1      34.201 -16.208 -24.024  0.00  0.00    +0.136 C 
ATOM     21  C   UNL     1      33.583 -14.666 -25.775  0.00  0.00    +0.003 C 
ATOM     22  C   UNL     1      34.192 -12.744 -22.657  0.00  0.00    -0.000 C 
ATOM     23  C   UNL     1      33.831 -15.969 -25.344  0.00  0.00    +0.037 C 
ATOM     24  C   UNL     1      33.452 -12.265 -25.303  0.00  0.00    -0.000 C 
ATOM     25  C   UNL     1      33.942 -11.441 -23.087  0.00  0.00    -0.000 C 
ATOM     26  C   UNL     1      33.572 -11.201 -24.408  0.00  0.00    -0.000 C 
BRANCH  20  27
ATOM     27  O   UNL     1      34.439 -17.492 -23.630  0.00  0.00    -0.472 OA
ATOM     28  C   UNL     1      33.785 -18.526 -24.361  0.00  0.00    +0.252 C 
ENDBRANCH  20  27
ENDBRANCH  16  19
ENDBRANCH   1  16
TORSDOF 7
ENDMDL
MODEL 7
REMARK VINA RESULT:     -10.0      4.945      7.920
REMARK  Name = 9562794
REMARK  7 active torsions:
REMARK  status: ('A' for Active; 'I' for Inactive)
REMARK    1  A    between atoms: N_1  and  C_2
REMARK    2  A    between atoms: N_1  and  N_16
REMARK    3  A    between atoms: C_2  and  C_5
REMARK    4  A    between atoms: C_6  and  O_13
REMARK    5  A    between atoms: C_17  and  C_19
REMARK    6  A    between atoms: C_22  and  O_25
REMARK    7  A    between atoms: C_23  and  O_27
REMARK                            x       y       z     vdW  Elec       q    Type
REMARK                         _______ _______ _______ _____ _____    ______ ____
ROOT
ATOM      1  N   UNL     1      35.620 -17.542 -23.009  0.00  0.00    -0.126 NA
ENDROOT
BRANCH   1   3
ATOM      2  O   UNL     1      37.272 -18.473 -21.038  0.00  0.00    -0.269 OA
ATOM      3  N   UNL     1      35.230 -18.494 -22.129  0.00  0.00    -0.228 N 
ATOM      4  C   UNL     1      36.130 -18.907 -21.165  0.00  0.00    +0.260 C 
ATOM      5  H   UNL     1      34.327 -18.883 -22.175  0.00  0.00    +0.171 HD
BRANCH   4   6
ATOM      6  C   UNL     1      35.648 -19.969 -20.244  0.00  0.00    +0.058 C 
ATOM      7  C   UNL     1      34.299 -20.256 -20.209  0.00  0.00    +0.044 C 
ATOM      8  C   UNL     1      36.563 -20.632 -19.454  0.00  0.00    +0.008 C 
ATOM      9  C   UNL     1      33.845 -21.252 -19.342  0.00  0.00    +0.168 C 
ATOM     10  C   UNL     1      34.751 -21.938 -18.533  0.00  0.00    +0.167 C 
ATOM     11  C   UNL     1      36.110 -21.628 -18.588  0.00  0.00    +0.040 C 
BRANCH   9  12
ATOM     12  O   UNL     1      32.516 -21.546 -19.297  0.00  0.00    -0.503 OA
ATOM     13  H   UNL     1      32.115 -21.778 -18.483  0.00  0.00    +0.292 HD
ENDBRANCH   9  12
BRANCH  10  14
ATOM     14  O   UNL     1      34.320 -22.911 -17.683  0.00  0.00    -0.503 OA
ATOM     15  H   UNL     1      33.456 -23.262 -17.774  0.00  0.00    +0.292 HD
ENDBRANCH  10  14
ENDBRANCH   4   6
ENDBRANCH   1   3
BRANCH   1  16
ATOM     16  C   UNL     1      34.647 -16.833 -23.498  0.00  0.00    +0.141 C 
BRANCH  16  19
ATOM     17  C   UNL     1      34.085 -14.483 -24.147  0.00  0.00    +0.000 C 
ATOM     18  C   UNL     1      33.925 -13.126 -23.778  0.00  0.00    -0.000 C 
ATOM     19  C   UNL     1      34.468 -15.419 -23.172  0.00  0.00    +0.031 C 
ATOM     20  C   UNL     1      34.690 -15.022 -21.853  0.00  0.00    +0.136 C 
ATOM     21  C   UNL     1      34.153 -12.745 -22.445  0.00  0.00    +0.003 C 
ATOM     22  C   UNL     1      33.857 -14.864 -25.479  0.00  0.00    -0.000 C 
ATOM     23  C   UNL     1      34.534 -13.688 -21.490  0.00  0.00    +0.037 C 
ATOM     24  C   UNL     1      33.543 -12.190 -24.752  0.00  0.00    -0.000 C 
ATOM     25  C   UNL     1      33.477 -13.921 -26.434  0.00  0.00    -0.000 C 
ATOM     26  C   UNL     1      33.320 -12.585 -26.072  0.00  0.00    -0.000 C 
BRANCH  20  27
ATOM     27  O   UNL     1      35.062 -15.924 -20.900  0.00  0.00    -0.472 OA
ATOM     28  C   UNL     1      34.717 -15.619 -19.551  0.00  0.00    +0.252 C 
ENDBRANCH  20  27
ENDBRANCH  16  19
ENDBRANCH   1  16
TORSDOF 7
ENDMDL
MODEL 8
REMARK VINA RESULT:      -9.9      1.909      2.705
REMARK  Name = 9562794
REMARK  7 active torsions:
REMARK  status: ('A' for Active; 'I' for Inactive)
REMARK    1  A    between atoms: N_1  and  C_2
REMARK    2  A    between atoms: N_1  and  N_16
REMARK    3  A    between atoms: C_2  and  C_5
REMARK    4  A    between atoms: C_6  and  O_13
REMARK    5  A    between atoms: C_17  and  C_19
REMARK    6  A    between atoms: C_22  and  O_25
REMARK    7  A    between atoms: C_23  and  O_27
REMARK                            x       y       z     vdW  Elec       q    Type
REMARK                         _______ _______ _______ _____ _____    ______ ____
ROOT
ATOM      1  N   UNL     1      36.676 -21.398 -17.260  0.00  0.00    -0.126 NA
ENDROOT
BRANCH   1   3
ATOM      2  O   UNL     1      35.911 -22.395 -14.830  0.00  0.00    -0.269 OA
ATOM      3  N   UNL     1      37.429 -22.291 -16.575  0.00  0.00    -0.228 N 
ATOM      4  C   UNL     1      36.967 -22.742 -15.353  0.00  0.00    +0.260 C 
ATOM      5  H   UNL     1      38.286 -22.611 -16.938  0.00  0.00    +0.171 HD
BRANCH   4   6
ATOM      6  C   UNL     1      37.850 -23.703 -14.643  0.00  0.00    +0.058 C 
ATOM      7  C   UNL     1      38.848 -24.339 -15.352  0.00  0.00    +0.044 C 
ATOM      8  C   UNL     1      37.643 -23.929 -13.298  0.00  0.00    +0.008 C 
ATOM      9  C   UNL     1      39.676 -25.243 -14.686  0.00  0.00    +0.168 C 
ATOM     10  C   UNL     1      39.488 -25.489 -13.326  0.00  0.00    +0.167 C 
ATOM     11  C   UNL     1      38.472 -24.833 -12.632  0.00  0.00    +0.040 C 
BRANCH   9  12
ATOM     12  O   UNL     1      40.665 -25.878 -15.375  0.00  0.00    -0.503 OA
ATOM     13  H   UNL     1      40.475 -26.288 -16.195  0.00  0.00    +0.292 HD
ENDBRANCH   9  12
BRANCH  10  14
ATOM     14  O   UNL     1      40.290 -26.369 -12.665  0.00  0.00    -0.503 OA
ATOM     15  H   UNL     1      40.377 -26.314 -11.733  0.00  0.00    +0.292 HD
ENDBRANCH  10  14
ENDBRANCH   4   6
ENDBRANCH   1   3
BRANCH   1  16
ATOM     16  C   UNL     1      36.288 -21.811 -18.429  0.00  0.00    +0.141 C 
BRANCH  16  19
ATOM     17  C   UNL     1      35.492 -20.080 -20.052  0.00  0.00    +0.000 C 
ATOM     18  C   UNL     1      34.423 -19.473 -20.754  0.00  0.00    -0.000 C 
ATOM     19  C   UNL     1      35.222 -21.147 -19.180  0.00  0.00    +0.031 C 
ATOM     20  C   UNL     1      33.917 -21.609 -19.002  0.00  0.00    +0.136 C 
ATOM     21  C   UNL     1      33.116 -19.951 -20.563  0.00  0.00    +0.003 C 
ATOM     22  C   UNL     1      36.798 -19.602 -20.242  0.00  0.00    -0.000 C 
ATOM     23  C   UNL     1      32.866 -21.012 -19.692  0.00  0.00    +0.037 C 
ATOM     24  C   UNL     1      34.692 -18.405 -21.625  0.00  0.00    -0.000 C 
ATOM     25  C   UNL     1      37.048 -18.540 -21.112  0.00  0.00    -0.000 C 
ATOM     26  C   UNL     1      35.997 -17.942 -21.803  0.00  0.00    -0.000 C 
BRANCH  20  27
ATOM     27  O   UNL     1      33.646 -22.645 -18.158  0.00  0.00    -0.472 OA
ATOM     28  C   UNL     1      32.609 -22.445 -17.200  0.00  0.00    +0.252 C 
ENDBRANCH  20  27
ENDBRANCH  16  19
ENDBRANCH   1  16
TORSDOF 7
ENDMDL
MODEL 9
REMARK VINA RESULT:      -9.9      5.021      7.908
REMARK  Name = 9562794
REMARK  7 active torsions:
REMARK  status: ('A' for Active; 'I' for Inactive)
REMARK    1  A    between atoms: N_1  and  C_2
REMARK    2  A    between atoms: N_1  and  N_16
REMARK    3  A    between atoms: C_2  and  C_5
REMARK    4  A    between atoms: C_6  and  O_13
REMARK    5  A    between atoms: C_17  and  C_19
REMARK    6  A    between atoms: C_22  and  O_25
REMARK    7  A    between atoms: C_23  and  O_27
REMARK                            x       y       z     vdW  Elec       q    Type
REMARK                         _______ _______ _______ _____ _____    ______ ____
ROOT
ATOM      1  N   UNL     1      35.432 -16.913 -21.559  0.00  0.00    -0.126 NA
ENDROOT
BRANCH   1   3
ATOM      2  O   UNL     1      34.973 -19.511 -22.281  0.00  0.00    -0.269 OA
ATOM      3  N   UNL     1      35.321 -17.908 -20.648  0.00  0.00    -0.228 N 
ATOM      4  C   UNL     1      35.088 -19.193 -21.101  0.00  0.00    +0.260 C 
ATOM      5  H   UNL     1      35.404 -17.721 -19.685  0.00  0.00    +0.171 HD
BRANCH   4   6
ATOM      6  C   UNL     1      34.955 -20.234 -20.049  0.00  0.00    +0.058 C 
ATOM      7  C   UNL     1      33.693 -20.650 -19.680  0.00  0.00    +0.044 C 
ATOM      8  C   UNL     1      36.098 -20.750 -19.475  0.00  0.00    +0.008 C 
ATOM      9  C   UNL     1      33.568 -21.627 -18.691  0.00  0.00    +0.168 C 
ATOM     10  C   UNL     1      34.708 -22.165 -18.095  0.00  0.00    +0.167 C 
ATOM     11  C   UNL     1      35.973 -21.727 -18.486  0.00  0.00    +0.040 C 
BRANCH   9  12
ATOM     12  O   UNL     1      32.327 -22.046 -18.317  0.00  0.00    -0.503 OA
ATOM     13  H   UNL     1      31.760 -22.451 -18.944  0.00  0.00    +0.292 HD
ENDBRANCH   9  12
BRANCH  10  14
ATOM     14  O   UNL     1      34.599 -23.118 -17.128  0.00  0.00    -0.503 OA
ATOM     15  H   UNL     1      34.562 -24.024 -17.367  0.00  0.00    +0.292 HD
ENDBRANCH  10  14
ENDBRANCH   4   6
ENDBRANCH   1   3
BRANCH   1  16
ATOM     16  C   UNL     1      34.982 -15.763 -21.155  0.00  0.00    +0.141 C 
BRANCH  16  19
ATOM     17  C   UNL     1      33.426 -13.839 -21.530  0.00  0.00    +0.000 C 
ATOM     18  C   UNL     1      32.747 -12.984 -22.429  0.00  0.00    -0.000 C 
ATOM     19  C   UNL     1      34.256 -14.851 -22.039  0.00  0.00    +0.031 C 
ATOM     20  C   UNL     1      34.412 -15.018 -23.416  0.00  0.00    +0.136 C 
ATOM     21  C   UNL     1      32.916 -13.167 -23.812  0.00  0.00    +0.003 C 
ATOM     22  C   UNL     1      33.257 -13.656 -20.148  0.00  0.00    -0.000 C 
ATOM     23  C   UNL     1      33.743 -14.178 -24.300  0.00  0.00    +0.037 C 
ATOM     24  C   UNL     1      31.916 -11.972 -21.921  0.00  0.00    -0.000 C 
ATOM     25  C   UNL     1      32.429 -12.646 -19.659  0.00  0.00    -0.000 C 
ATOM     26  C   UNL     1      31.759 -11.805 -20.544  0.00  0.00    -0.000 C 
BRANCH  20  27
ATOM     27  O   UNL     1      35.216 -15.998 -23.919  0.00  0.00    -0.472 OA
ATOM     28  C   UNL     1      34.605 -16.957 -24.781  0.00  0.00    +0.252 C 
ENDBRANCH  20  27
ENDBRANCH  16  19
ENDBRANCH   1  16
TORSDOF 7
ENDMDL
