MODEL 1
REMARK VINA RESULT:     -12.3      0.000      0.000
REMARK  Name = 60870
REMARK  7 active torsions:
REMARK  status: ('A' for Active; 'I' for Inactive)
REMARK    1  A    between atoms: C_2  and  C_4
REMARK    2  A    between atoms: C_2  and  C_18
REMARK    3  A    between atoms: C_3  and  C_9
REMARK    4  A    between atoms: C_9  and  C_14
REMARK    5  A    between atoms: C_18  and  C_19
REMARK    6  A    between atoms: C_19  and  C_22
REMARK    7  A    between atoms: C_24  and  C_26
REMARK                            x       y       z     vdW  Elec       q    Type
REMARK                         _______ _______ _______ _____ _____    ______ ____
ROOT
ATOM      1  O   UNL     1      34.633 -19.402 -22.380  0.00  0.00    -0.291 OA
ATOM      2  C   UNL     1      34.789 -19.214 -21.156  0.00  0.00    +0.173 C 
ENDROOT
BRANCH   2   4
ATOM      3  C   UNL     1      33.830 -22.243 -18.366  0.00  0.00    -0.021 C 
ATOM      4  C   UNL     1      34.459 -20.256 -20.195  0.00  0.00    +0.035 C 
ATOM      5  C   UNL     1      35.158 -22.012 -18.691  0.00  0.00    -0.004 C 
ATOM      6  C   UNL     1      32.811 -21.498 -18.939  0.00  0.00    -0.004 C 
ATOM      7  C   UNL     1      35.475 -21.012 -19.612  0.00  0.00    +0.003 C 
ATOM      8  C   UNL     1      33.127 -20.498 -19.860  0.00  0.00    +0.003 C 
BRANCH   3   9
ATOM      9  C   UNL     1      33.488 -23.322 -17.371  0.00  0.00    +0.047 C 
BRANCH   9  14
ATOM     10  S   UNL     1      34.003 -23.485 -14.670  0.00  0.00    -0.048 S 
ATOM     11  O   UNL     1      30.680 -22.744 -16.487  0.00  0.00    -0.274 OA
ATOM     12  O   UNL     1      32.626 -24.637 -12.751  0.00  0.00    -0.263 OA
ATOM     13  N   UNL     1      31.463 -23.728 -14.547  0.00  0.00    -0.246 N 
ATOM     14  C   UNL     1      33.054 -22.746 -16.035  0.00  0.00    +0.137 C 
ATOM     15  C   UNL     1      31.603 -23.058 -15.744  0.00  0.00    +0.239 C 
ATOM     16  C   UNL     1      32.580 -24.048 -13.820  0.00  0.00    +0.279 C 
ATOM     17  H   UNL     1      30.570 -23.974 -14.217  0.00  0.00    +0.158 HD
ENDBRANCH   9  14
ENDBRANCH   3   9
ENDBRANCH   2   4
BRANCH   2  18
ATOM     18  C   UNL     1      35.339 -17.862 -20.666  0.00  0.00    +0.076 C 
BRANCH  18  19
ATOM     19  C   UNL     1      35.969 -17.019 -21.779  0.00  0.00    +0.066 C 
BRANCH  19  22
ATOM     20  O   UNL     1      33.774 -14.611 -23.427  0.00  0.00    -0.449 OA
ATOM     21  N   UNL     1      34.663 -14.957 -21.376  0.00  0.00    -0.373 NA
ATOM     22  C   UNL     1      35.059 -15.921 -22.245  0.00  0.00    +0.130 C 
ATOM     23  C   UNL     1      34.540 -15.736 -23.482  0.00  0.00    +0.216 C 
ATOM     24  C   UNL     1      33.900 -14.203 -22.135  0.00  0.00    +0.277 C 
ATOM     25  C   UNL     1      34.614 -16.430 -24.772  0.00  0.00    +0.055 C 
BRANCH  24  26
ATOM     26  C   UNL     1      33.176 -13.009 -21.797  0.00  0.00    +0.066 C 
ATOM     27  C   UNL     1      32.391 -12.965 -20.642  0.00  0.00    +0.006 C 
ATOM     28  C   UNL     1      33.251 -11.884 -22.624  0.00  0.00    +0.006 C 
ATOM     29  C   UNL     1      31.687 -11.805 -20.315  0.00  0.00    +0.000 C 
ATOM     30  C   UNL     1      32.547 -10.725 -22.297  0.00  0.00    +0.000 C 
ATOM     31  C   UNL     1      31.765 -10.686 -21.142  0.00  0.00    +0.000 C 
ENDBRANCH  24  26
ENDBRANCH  19  22
ENDBRANCH  18  19
ENDBRANCH   2  18
TORSDOF 7
ENDMDL
MODEL 2
REMARK VINA RESULT:     -12.3      3.436     11.143
REMARK  Name = 60870
REMARK  7 active torsions:
REMARK  status: ('A' for Active; 'I' for Inactive)
REMARK    1  A    between atoms: C_2  and  C_4
REMARK    2  A    between atoms: C_2  and  C_18
REMARK    3  A    between atoms: C_3  and  C_9
REMARK    4  A    between atoms: C_9  and  C_14
REMARK    5  A    between atoms: C_18  and  C_19
REMARK    6  A    between atoms: C_19  and  C_22
REMARK    7  A    between atoms: C_24  and  C_26
REMARK                            x       y       z     vdW  Elec       q    Type
REMARK                         _______ _______ _______ _____ _____    ______ ____
ROOT
ATOM      1  O   UNL     1      33.723 -24.024 -18.212  0.00  0.00    -0.291 OA
ATOM      2  C   UNL     1      33.451 -22.821 -18.025  0.00  0.00    +0.173 C 
ENDROOT
BRANCH   2   4
ATOM      3  C   UNL     1      35.141 -19.814 -20.470  0.00  0.00    -0.021 C 
ATOM      4  C   UNL     1      34.033 -21.787 -18.867  0.00  0.00    +0.035 C 
ATOM      5  C   UNL     1      35.976 -20.679 -19.779  0.00  0.00    -0.004 C 
ATOM      6  C   UNL     1      33.762 -19.918 -20.374  0.00  0.00    -0.004 C 
ATOM      7  C   UNL     1      35.418 -21.671 -18.972  0.00  0.00    +0.003 C 
ATOM      8  C   UNL     1      33.204 -20.911 -19.568  0.00  0.00    +0.003 C 
BRANCH   3   9
ATOM      9  C   UNL     1      35.743 -18.742 -21.342  0.00  0.00    +0.047 C 
BRANCH   9  14
ATOM     10  S   UNL     1      34.503 -18.210 -23.744  0.00  0.00    -0.048 S 
ATOM     11  O   UNL     1      35.298 -15.821 -20.819  0.00  0.00    -0.274 OA
ATOM     12  O   UNL     1      34.811 -16.189 -25.396  0.00  0.00    -0.263 OA
ATOM     13  N   UNL     1      35.084 -15.802 -23.121  0.00  0.00    -0.246 N 
ATOM     14  C   UNL     1      34.681 -17.856 -21.968  0.00  0.00    +0.137 C 
ATOM     15  C   UNL     1      35.056 -16.394 -21.875  0.00  0.00    +0.239 C 
ATOM     16  C   UNL     1      34.823 -16.560 -24.232  0.00  0.00    +0.279 C 
ATOM     17  H   UNL     1      35.289 -14.844 -23.211  0.00  0.00    +0.158 HD
ENDBRANCH   9  14
ENDBRANCH   3   9
ENDBRANCH   2   4
BRANCH   2  18
ATOM     18  C   UNL     1      32.486 -22.435 -16.888  0.00  0.00    +0.076 C 
BRANCH  18  19
ATOM     19  C   UNL     1      32.039 -23.625 -16.035  0.00  0.00    +0.066 C 
BRANCH  19  22
ATOM     20  O   UNL     1      33.333 -23.814 -12.626  0.00  0.00    -0.449 OA
ATOM     21  N   UNL     1      34.141 -23.757 -14.738  0.00  0.00    -0.373 NA
ATOM     22  C   UNL     1      32.785 -23.706 -14.736  0.00  0.00    +0.130 C 
ATOM     23  C   UNL     1      32.276 -23.738 -13.482  0.00  0.00    +0.216 C 
ATOM     24  C   UNL     1      34.413 -23.820 -13.453  0.00  0.00    +0.277 C 
ATOM     25  C   UNL     1      30.936 -23.713 -12.887  0.00  0.00    +0.055 C 
BRANCH  24  26
ATOM     26  C   UNL     1      35.688 -23.895 -12.795  0.00  0.00    +0.066 C 
ATOM     27  C   UNL     1      36.789 -24.450 -13.453  0.00  0.00    +0.006 C 
ATOM     28  C   UNL     1      35.834 -23.415 -11.490  0.00  0.00    +0.006 C 
ATOM     29  C   UNL     1      38.026 -24.525 -12.813  0.00  0.00    +0.000 C 
ATOM     30  C   UNL     1      37.072 -23.490 -10.850  0.00  0.00    +0.000 C 
ATOM     31  C   UNL     1      38.167 -24.045 -11.512  0.00  0.00    +0.000 C 
ENDBRANCH  24  26
ENDBRANCH  19  22
ENDBRANCH  18  19
ENDBRANCH   2  18
TORSDOF 7
ENDMDL
MODEL 3
REMARK VINA RESULT:     -12.2      1.705      2.206
REMARK  Name = 60870
REMARK  7 active torsions:
REMARK  status: ('A' for Active; 'I' for Inactive)
REMARK    1  A    between atoms: C_2  and  C_4
REMARK    2  A    between atoms: C_2  and  C_18
REMARK    3  A    between atoms: C_3  and  C_9
REMARK    4  A    between atoms: C_9  and  C_14
REMARK    5  A    between atoms: C_18  and  C_19
REMARK    6  A    between atoms: C_19  and  C_22
REMARK    7  A    between atoms: C_24  and  C_26
REMARK                            x       y       z     vdW  Elec       q    Type
REMARK                         _______ _______ _______ _____ _____    ______ ____
ROOT
ATOM      1  O   UNL     1      36.906 -18.997 -20.131  0.00  0.00    -0.291 OA
ATOM      2  C   UNL     1      35.802 -19.482 -20.453  0.00  0.00    +0.173 C 
ENDROOT
BRANCH   2   4
ATOM      3  C   UNL     1      33.948 -22.424 -18.048  0.00  0.00    -0.021 C 
ATOM      4  C   UNL     1      35.164 -20.494 -19.624  0.00  0.00    +0.035 C 
ATOM      5  C   UNL     1      35.323 -22.257 -17.982  0.00  0.00    -0.004 C 
ATOM      6  C   UNL     1      33.170 -21.642 -18.889  0.00  0.00    -0.004 C 
ATOM      7  C   UNL     1      35.934 -21.286 -18.775  0.00  0.00    +0.003 C 
ATOM      8  C   UNL     1      33.782 -20.670 -19.682  0.00  0.00    +0.003 C 
BRANCH   3   9
ATOM      9  C   UNL     1      33.286 -23.473 -17.191  0.00  0.00    +0.047 C 
BRANCH   9  14
ATOM     10  S   UNL     1      33.568 -23.785 -14.468  0.00  0.00    -0.048 S 
ATOM     11  O   UNL     1      30.487 -22.643 -16.494  0.00  0.00    -0.274 OA
ATOM     12  O   UNL     1      31.936 -24.859 -12.710  0.00  0.00    -0.263 OA
ATOM     13  N   UNL     1      31.015 -23.772 -14.546  0.00  0.00    -0.246 N 
ATOM     14  C   UNL     1      32.807 -22.904 -15.867  0.00  0.00    +0.137 C 
ATOM     15  C   UNL     1      31.314 -23.077 -15.699  0.00  0.00    +0.239 C 
ATOM     16  C   UNL     1      32.034 -24.230 -13.753  0.00  0.00    +0.279 C 
ATOM     17  H   UNL     1      30.078 -23.937 -14.295  0.00  0.00    +0.158 HD
ENDBRANCH   9  14
ENDBRANCH   3   9
ENDBRANCH   2   4
BRANCH   2  18
ATOM     18  C   UNL     1      35.113 -18.996 -21.742  0.00  0.00    +0.076 C 
BRANCH  18  19
ATOM     19  C   UNL     1      35.936 -17.970 -22.525  0.00  0.00    +0.066 C 
BRANCH  19  22
ATOM     20  O   UNL     1      34.456 -14.699 -21.857  0.00  0.00    -0.449 OA
ATOM     21  N   UNL     1      35.072 -15.941 -23.645  0.00  0.00    -0.373 NA
ATOM     22  C   UNL     1      35.325 -16.601 -22.487  0.00  0.00    +0.130 C 
ATOM     23  C   UNL     1      34.964 -15.878 -21.400  0.00  0.00    +0.216 C 
ATOM     24  C   UNL     1      34.554 -14.814 -23.210  0.00  0.00    +0.277 C 
ATOM     25  C   UNL     1      35.000 -16.070 -19.946  0.00  0.00    +0.055 C 
BRANCH  24  26
ATOM     26  C   UNL     1      34.077 -13.683 -23.956  0.00  0.00    +0.066 C 
ATOM     27  C   UNL     1      34.147 -12.399 -23.409  0.00  0.00    +0.006 C 
ATOM     28  C   UNL     1      33.537 -13.861 -25.233  0.00  0.00    +0.006 C 
ATOM     29  C   UNL     1      33.682 -11.300 -24.134  0.00  0.00    +0.000 C 
ATOM     30  C   UNL     1      33.072 -12.763 -25.958  0.00  0.00    +0.000 C 
ATOM     31  C   UNL     1      33.145 -11.483 -25.407  0.00  0.00    +0.000 C 
ENDBRANCH  24  26
ENDBRANCH  19  22
ENDBRANCH  18  19
ENDBRANCH   2  18
TORSDOF 7
ENDMDL
MODEL 4
REMARK VINA RESULT:     -12.2      4.909     11.630
REMARK  Name = 60870
REMARK  7 active torsions:
REMARK  status: ('A' for Active; 'I' for Inactive)
REMARK    1  A    between atoms: C_2  and  C_4
REMARK    2  A    between atoms: C_2  and  C_18
REMARK    3  A    between atoms: C_3  and  C_9
REMARK    4  A    between atoms: C_9  and  C_14
REMARK    5  A    between atoms: C_18  and  C_19
REMARK    6  A    between atoms: C_19  and  C_22
REMARK    7  A    between atoms: C_24  and  C_26
REMARK                            x       y       z     vdW  Elec       q    Type
REMARK                         _______ _______ _______ _____ _____    ______ ____
ROOT
ATOM      1  O   UNL     1      33.400 -14.756 -24.413  0.00  0.00    -0.291 OA
ATOM      2  C   UNL     1      33.820 -14.140 -23.412  0.00  0.00    +0.173 C 
ENDROOT
BRANCH   2   4
ATOM      3  C   UNL     1      33.261  -9.965 -23.053  0.00  0.00    -0.021 C 
ATOM      4  C   UNL     1      33.629 -12.703 -23.288  0.00  0.00    +0.035 C 
ATOM      5  C   UNL     1      32.680 -10.812 -22.122  0.00  0.00    -0.004 C 
ATOM      6  C   UNL     1      34.023 -10.463 -24.100  0.00  0.00    -0.004 C 
ATOM      7  C   UNL     1      32.865 -12.190 -22.240  0.00  0.00    +0.003 C 
ATOM      8  C   UNL     1      34.208 -11.840 -24.218  0.00  0.00    +0.003 C 
BRANCH   3   9
ATOM      9  C   UNL     1      33.062  -8.476 -22.925  0.00  0.00    +0.047 C 
BRANCH   9  14
ATOM     10  S   UNL     1      30.790  -6.939 -23.176  0.00  0.00    -0.048 S 
ATOM     11  O   UNL     1      32.695  -7.986 -19.987  0.00  0.00    -0.274 OA
ATOM     12  O   UNL     1      30.115  -4.706 -21.964  0.00  0.00    -0.263 OA
ATOM     13  N   UNL     1      31.409  -6.244 -20.797  0.00  0.00    -0.246 N 
ATOM     14  C   UNL     1      31.764  -8.136 -22.213  0.00  0.00    +0.137 C 
ATOM     15  C   UNL     1      32.024  -7.476 -20.877  0.00  0.00    +0.239 C 
ATOM     16  C   UNL     1      30.709  -5.770 -21.876  0.00  0.00    +0.279 C 
ATOM     17  H   UNL     1      31.471  -5.710 -19.973  0.00  0.00    +0.158 HD
ENDBRANCH   9  14
ENDBRANCH   3   9
ENDBRANCH   2   4
BRANCH   2  18
ATOM     18  C   UNL     1      34.547 -14.918 -22.299  0.00  0.00    +0.076 C 
BRANCH  18  19
ATOM     19  C   UNL     1      35.490 -16.003 -22.828  0.00  0.00    +0.066 C 
BRANCH  19  22
ATOM     20  O   UNL     1      34.164 -19.387 -22.472  0.00  0.00    -0.449 OA
ATOM     21  N   UNL     1      35.287 -17.873 -21.221  0.00  0.00    -0.373 NA
ATOM     22  C   UNL     1      35.032 -17.383 -22.461  0.00  0.00    +0.130 C 
ATOM     23  C   UNL     1      34.360 -18.272 -23.230  0.00  0.00    +0.216 C 
ATOM     24  C   UNL     1      34.747 -19.069 -21.284  0.00  0.00    +0.277 C 
ATOM     25  C   UNL     1      33.835 -18.296 -24.600  0.00  0.00    +0.055 C 
BRANCH  24  26
ATOM     26  C   UNL     1      34.683 -20.093 -20.278  0.00  0.00    +0.066 C 
ATOM     27  C   UNL     1      33.447 -20.579 -19.844  0.00  0.00    +0.006 C 
ATOM     28  C   UNL     1      35.860 -20.610 -19.726  0.00  0.00    +0.006 C 
ATOM     29  C   UNL     1      33.385 -21.573 -18.867  0.00  0.00    +0.000 C 
ATOM     30  C   UNL     1      35.798 -21.604 -18.749  0.00  0.00    +0.000 C 
ATOM     31  C   UNL     1      34.561 -22.084 -18.319  0.00  0.00    +0.000 C 
ENDBRANCH  24  26
ENDBRANCH  19  22
ENDBRANCH  18  19
ENDBRANCH   2  18
TORSDOF 7
ENDMDL
MODEL 5
REMARK VINA RESULT:     -11.9      3.559      6.317
REMARK  Name = 60870
REMARK  7 active torsions:
REMARK  status: ('A' for Active; 'I' for Inactive)
REMARK    1  A    between atoms: C_2  and  C_4
REMARK    2  A    between atoms: C_2  and  C_18
REMARK    3  A    between atoms: C_3  and  C_9
REMARK    4  A    between atoms: C_9  and  C_14
REMARK    5  A    between atoms: C_18  and  C_19
REMARK    6  A    between atoms: C_19  and  C_22
REMARK    7  A    between atoms: C_24  and  C_26
REMARK                            x       y       z     vdW  Elec       q    Type
REMARK                         _______ _______ _______ _____ _____    ______ ____
ROOT
ATOM      1  O   UNL     1      32.259 -23.435 -16.471  0.00  0.00    -0.291 OA
ATOM      2  C   UNL     1      33.462 -23.156 -16.657  0.00  0.00    +0.173 C 
ENDROOT
BRANCH   2   4
ATOM      3  C   UNL     1      36.202 -23.140 -13.437  0.00  0.00    -0.021 C 
ATOM      4  C   UNL     1      34.405 -23.152 -15.549  0.00  0.00    +0.035 C 
ATOM      5  C   UNL     1      34.895 -23.546 -13.217  0.00  0.00    -0.004 C 
ATOM      6  C   UNL     1      36.627 -22.740 -14.696  0.00  0.00    -0.004 C 
ATOM      7  C   UNL     1      33.990 -23.552 -14.280  0.00  0.00    +0.003 C 
ATOM      8  C   UNL     1      35.723 -22.746 -15.758  0.00  0.00    +0.003 C 
BRANCH   3   9
ATOM      9  C   UNL     1      37.179 -23.135 -12.290  0.00  0.00    +0.047 C 
BRANCH   9  14
ATOM     10  S   UNL     1      38.604 -24.998 -13.734  0.00  0.00    -0.048 S 
ATOM     11  O   UNL     1      36.242 -25.518 -10.726  0.00  0.00    -0.274 OA
ATOM     12  O   UNL     1      37.877 -27.359 -14.633  0.00  0.00    -0.263 OA
ATOM     13  N   UNL     1      36.953 -26.609 -12.637  0.00  0.00    -0.246 N 
ATOM     14  C   UNL     1      37.892 -24.468 -12.145  0.00  0.00    +0.137 C 
ATOM     15  C   UNL     1      36.935 -25.565 -11.736  0.00  0.00    +0.239 C 
ATOM     16  C   UNL     1      37.752 -26.528 -13.747  0.00  0.00    +0.279 C 
ATOM     17  H   UNL     1      36.396 -27.406 -12.484  0.00  0.00    +0.158 HD
ENDBRANCH   9  14
ENDBRANCH   3   9
ENDBRANCH   2   4
BRANCH   2  18
ATOM     18  C   UNL     1      33.944 -22.816 -18.080  0.00  0.00    +0.076 C 
BRANCH  18  19
ATOM     19  C   UNL     1      33.184 -21.650 -18.720  0.00  0.00    +0.066 C 
BRANCH  19  22
ATOM     20  O   UNL     1      35.757 -19.877 -20.610  0.00  0.00    -0.449 OA
ATOM     21  N   UNL     1      33.499 -20.006 -20.541  0.00  0.00    -0.373 NA
ATOM     22  C   UNL     1      34.060 -20.822 -19.613  0.00  0.00    +0.130 C 
ATOM     23  C   UNL     1      35.412 -20.763 -19.634  0.00  0.00    +0.216 C 
ATOM     24  C   UNL     1      34.557 -19.468 -21.105  0.00  0.00    +0.277 C 
ATOM     25  C   UNL     1      36.507 -21.397 -18.892  0.00  0.00    +0.055 C 
BRANCH  24  26
ATOM     26  C   UNL     1      34.631 -18.509 -22.172  0.00  0.00    +0.066 C 
ATOM     27  C   UNL     1      34.056 -18.791 -23.414  0.00  0.00    +0.006 C 
ATOM     28  C   UNL     1      35.281 -17.287 -21.975  0.00  0.00    +0.006 C 
ATOM     29  C   UNL     1      34.130 -17.860 -24.451  0.00  0.00    +0.000 C 
ATOM     30  C   UNL     1      35.355 -16.356 -23.011  0.00  0.00    +0.000 C 
ATOM     31  C   UNL     1      34.779 -16.643 -24.249  0.00  0.00    +0.000 C 
ENDBRANCH  24  26
ENDBRANCH  19  22
ENDBRANCH  18  19
ENDBRANCH   2  18
TORSDOF 7
ENDMDL
MODEL 6
REMARK VINA RESULT:     -11.9      2.422      4.445
REMARK  Name = 60870
REMARK  7 active torsions:
REMARK  status: ('A' for Active; 'I' for Inactive)
REMARK    1  A    between atoms: C_2  and  C_4
REMARK    2  A    between atoms: C_2  and  C_18
REMARK    3  A    between atoms: C_3  and  C_9
REMARK    4  A    between atoms: C_9  and  C_14
REMARK    5  A    between atoms: C_18  and  C_19
REMARK    6  A    between atoms: C_19  and  C_22
REMARK    7  A    between atoms: C_24  and  C_26
REMARK                            x       y       z     vdW  Elec       q    Type
REMARK                         _______ _______ _______ _____ _____    ______ ____
ROOT
ATOM      1  O   UNL     1      34.999 -15.581 -24.733  0.00  0.00    -0.291 OA
ATOM      2  C   UNL     1      34.821 -15.650 -23.499  0.00  0.00    +0.173 C 
ENDROOT
BRANCH   2   4
ATOM      3  C   UNL     1      35.151 -19.345 -21.469  0.00  0.00    -0.021 C 
ATOM      4  C   UNL     1      34.936 -16.922 -22.801  0.00  0.00    +0.035 C 
ATOM      5  C   UNL     1      34.706 -19.326 -22.783  0.00  0.00    -0.004 C 
ATOM      6  C   UNL     1      35.491 -18.172 -20.811  0.00  0.00    -0.004 C 
ATOM      7  C   UNL     1      34.597 -18.107 -23.453  0.00  0.00    +0.003 C 
ATOM      8  C   UNL     1      35.382 -16.953 -21.481  0.00  0.00    +0.003 C 
BRANCH   3   9
ATOM      9  C   UNL     1      35.269 -20.662 -20.746  0.00  0.00    +0.047 C 
BRANCH   9  14
ATOM     10  S   UNL     1      35.315 -21.869 -18.270  0.00  0.00    -0.048 S 
ATOM     11  O   UNL     1      32.335 -20.351 -20.197  0.00  0.00    -0.274 OA
ATOM     12  O   UNL     1      33.660 -23.611 -17.206  0.00  0.00    -0.263 OA
ATOM     13  N   UNL     1      32.800 -22.035 -18.682  0.00  0.00    -0.246 N 
ATOM     14  C   UNL     1      34.596 -20.624 -19.385  0.00  0.00    +0.137 C 
ATOM     15  C   UNL     1      33.125 -20.964 -19.487  0.00  0.00    +0.239 C 
ATOM     16  C   UNL     1      33.783 -22.656 -17.957  0.00  0.00    +0.279 C 
ATOM     17  H   UNL     1      31.870 -22.352 -18.629  0.00  0.00    +0.158 HD
ENDBRANCH   9  14
ENDBRANCH   3   9
ENDBRANCH   2   4
BRANCH   2  18
ATOM     18  C   UNL     1      34.478 -14.370 -22.715  0.00  0.00    +0.076 C 
BRANCH  18  19
ATOM     19  C   UNL     1      33.133 -13.754 -23.108  0.00  0.00    +0.066 C 
BRANCH  19  22
ATOM     20  O   UNL     1      32.031 -11.542 -20.419  0.00  0.00    -0.449 OA
ATOM     21  N   UNL     1      32.665 -11.382 -22.585  0.00  0.00    -0.373 NA
ATOM     22  C   UNL     1      32.705 -12.671 -22.162  0.00  0.00    +0.130 C 
ATOM     23  C   UNL     1      32.329 -12.794 -20.867  0.00  0.00    +0.216 C 
ATOM     24  C   UNL     1      32.256 -10.754 -21.506  0.00  0.00    +0.277 C 
ATOM     25  C   UNL     1      32.185 -13.896 -19.911  0.00  0.00    +0.055 C 
BRANCH  24  26
ATOM     26  C   UNL     1      32.013  -9.352 -21.305  0.00  0.00    +0.066 C 
ATOM     27  C   UNL     1      32.245  -8.769 -20.056  0.00  0.00    +0.006 C 
ATOM     28  C   UNL     1      31.540  -8.563 -22.358  0.00  0.00    +0.006 C 
ATOM     29  C   UNL     1      32.008  -7.408 -19.862  0.00  0.00    +0.000 C 
ATOM     30  C   UNL     1      31.303  -7.202 -22.163  0.00  0.00    +0.000 C 
ATOM     31  C   UNL     1      31.536  -6.625 -20.915  0.00  0.00    +0.000 C 
ENDBRANCH  24  26
ENDBRANCH  19  22
ENDBRANCH  18  19
ENDBRANCH   2  18
TORSDOF 7
ENDMDL
MODEL 7
REMARK VINA RESULT:     -11.9      3.405     11.221
REMARK  Name = 60870
REMARK  7 active torsions:
REMARK  status: ('A' for Active; 'I' for Inactive)
REMARK    1  A    between atoms: C_2  and  C_4
REMARK    2  A    between atoms: C_2  and  C_18
REMARK    3  A    between atoms: C_3  and  C_9
REMARK    4  A    between atoms: C_9  and  C_14
REMARK    5  A    between atoms: C_18  and  C_19
REMARK    6  A    between atoms: C_19  and  C_22
REMARK    7  A    between atoms: C_24  and  C_26
REMARK                            x       y       z     vdW  Elec       q    Type
REMARK                         _______ _______ _______ _____ _____    ______ ____
ROOT
ATOM      1  O   UNL     1      36.468 -21.192 -17.770  0.00  0.00    -0.291 OA
ATOM      2  C   UNL     1      35.708 -21.314 -18.752  0.00  0.00    +0.173 C 
ENDROOT
BRANCH   2   4
ATOM      3  C   UNL     1      35.737 -18.469 -21.880  0.00  0.00    -0.021 C 
ATOM      4  C   UNL     1      35.718 -20.335 -19.827  0.00  0.00    +0.035 C 
ATOM      5  C   UNL     1      34.593 -19.220 -21.652  0.00  0.00    -0.004 C 
ATOM      6  C   UNL     1      36.871 -18.635 -21.099  0.00  0.00    -0.004 C 
ATOM      7  C   UNL     1      34.584 -20.158 -20.619  0.00  0.00    +0.003 C 
ATOM      8  C   UNL     1      36.861 -19.573 -20.066  0.00  0.00    +0.003 C 
BRANCH   3   9
ATOM      9  C   UNL     1      35.747 -17.455 -22.994  0.00  0.00    +0.047 C 
BRANCH   9  14
ATOM     10  S   UNL     1      33.945 -16.420 -24.802  0.00  0.00    -0.048 S 
ATOM     11  O   UNL     1      34.945 -15.100 -21.316  0.00  0.00    -0.274 OA
ATOM     12  O   UNL     1      33.546 -13.935 -25.560  0.00  0.00    -0.263 OA
ATOM     13  N   UNL     1      34.237 -14.322 -23.375  0.00  0.00    -0.246 N 
ATOM     14  C   UNL     1      34.442 -16.683 -23.072  0.00  0.00    +0.137 C 
ATOM     15  C   UNL     1      34.579 -15.303 -22.468  0.00  0.00    +0.239 C 
ATOM     16  C   UNL     1      33.871 -14.678 -24.646  0.00  0.00    +0.279 C 
ATOM     17  H   UNL     1      34.255 -13.374 -23.111  0.00  0.00    +0.158 HD
ENDBRANCH   9  14
ENDBRANCH   3   9
ENDBRANCH   2   4
BRANCH   2  18
ATOM     18  C   UNL     1      34.754 -22.522 -18.819  0.00  0.00    +0.076 C 
BRANCH  18  19
ATOM     19  C   UNL     1      33.507 -22.364 -17.945  0.00  0.00    +0.066 C 
BRANCH  19  22
ATOM     20  O   UNL     1      33.290 -23.949 -14.662  0.00  0.00    -0.449 OA
ATOM     21  N   UNL     1      34.864 -23.515 -16.227  0.00  0.00    -0.373 NA
ATOM     22  C   UNL     1      33.650 -23.054 -16.620  0.00  0.00    +0.130 C 
ATOM     23  C   UNL     1      32.689 -23.301 -15.699  0.00  0.00    +0.216 C 
ATOM     24  C   UNL     1      34.590 -24.039 -15.053  0.00  0.00    +0.277 C 
ATOM     25  C   UNL     1      31.250 -23.045 -15.582  0.00  0.00    +0.055 C 
BRANCH  24  26
ATOM     26  C   UNL     1      35.465 -24.694 -14.121  0.00  0.00    +0.066 C 
ATOM     27  C   UNL     1      36.343 -25.690 -14.560  0.00  0.00    +0.006 C 
ATOM     28  C   UNL     1      35.442 -24.342 -12.768  0.00  0.00    +0.006 C 
ATOM     29  C   UNL     1      37.191 -26.327 -13.654  0.00  0.00    +0.000 C 
ATOM     30  C   UNL     1      36.290 -24.979 -11.863  0.00  0.00    +0.000 C 
ATOM     31  C   UNL     1      37.165 -25.972 -12.306  0.00  0.00    +0.000 C 
ENDBRANCH  24  26
ENDBRANCH  19  22
ENDBRANCH  18  19
ENDBRANCH   2  18
TORSDOF 7
ENDMDL
MODEL 8
REMARK VINA RESULT:     -11.7      3.796      6.778
REMARK  Name = 60870
REMARK  7 active torsions:
REMARK  status: ('A' for Active; 'I' for Inactive)
REMARK    1  A    between atoms: C_2  and  C_4
REMARK    2  A    between atoms: C_2  and  C_18
REMARK    3  A    between atoms: C_3  and  C_9
REMARK    4  A    between atoms: C_9  and  C_14
REMARK    5  A    between atoms: C_18  and  C_19
REMARK    6  A    between atoms: C_19  and  C_22
REMARK    7  A    between atoms: C_24  and  C_26
REMARK                            x       y       z     vdW  Elec       q    Type
REMARK                         _______ _______ _______ _____ _____    ______ ____
ROOT
ATOM      1  O   UNL     1      32.068 -23.817 -15.207  0.00  0.00    -0.291 OA
ATOM      2  C   UNL     1      33.078 -23.347 -15.769  0.00  0.00    +0.173 C 
ENDROOT
BRANCH   2   4
ATOM      3  C   UNL     1      36.943 -24.032 -14.196  0.00  0.00    -0.021 C 
ATOM      4  C   UNL     1      34.408 -23.583 -15.227  0.00  0.00    +0.035 C 
ATOM      5  C   UNL     1      36.464 -22.733 -14.286  0.00  0.00    -0.004 C 
ATOM      6  C   UNL     1      36.176 -25.110 -14.613  0.00  0.00    -0.004 C 
ATOM      7  C   UNL     1      35.188 -22.508 -14.804  0.00  0.00    +0.003 C 
ATOM      8  C   UNL     1      34.901 -24.884 -15.131  0.00  0.00    +0.003 C 
BRANCH   3   9
ATOM      9  C   UNL     1      38.321 -24.276 -13.635  0.00  0.00    +0.047 C 
BRANCH   9  14
ATOM     10  S   UNL     1      37.027 -25.774 -11.720  0.00  0.00    -0.048 S 
ATOM     11  O   UNL     1      38.516 -22.223 -11.455  0.00  0.00    -0.274 OA
ATOM     12  O   UNL     1      35.195 -25.069  -9.972  0.00  0.00    -0.263 OA
ATOM     13  N   UNL     1      36.794 -23.498 -10.585  0.00  0.00    -0.246 N 
ATOM     14  C   UNL     1      38.287 -24.530 -12.139  0.00  0.00    +0.137 C 
ATOM     15  C   UNL     1      37.904 -23.283 -11.375  0.00  0.00    +0.239 C 
ATOM     16  C   UNL     1      36.180 -24.723 -10.606  0.00  0.00    +0.279 C 
ATOM     17  H   UNL     1      36.446 -22.778 -10.011  0.00  0.00    +0.158 HD
ENDBRANCH   9  14
ENDBRANCH   3   9
ENDBRANCH   2   4
BRANCH   2  18
ATOM     18  C   UNL     1      32.907 -22.512 -17.051  0.00  0.00    +0.076 C 
BRANCH  18  19
ATOM     19  C   UNL     1      33.805 -22.971 -18.204  0.00  0.00    +0.066 C 
BRANCH  19  22
ATOM     20  O   UNL     1      36.083 -20.350 -19.332  0.00  0.00    -0.449 OA
ATOM     21  N   UNL     1      34.004 -21.103 -19.812  0.00  0.00    -0.373 NA
ATOM     22  C   UNL     1      34.568 -21.835 -18.819  0.00  0.00    +0.130 C 
ATOM     23  C   UNL     1      35.813 -21.404 -18.512  0.00  0.00    +0.216 C 
ATOM     24  C   UNL     1      34.952 -20.232 -20.079  0.00  0.00    +0.277 C 
ATOM     25  C   UNL     1      36.861 -21.794 -17.561  0.00  0.00    +0.055 C 
BRANCH  24  26
ATOM     26  C   UNL     1      34.967 -19.171 -21.049  0.00  0.00    +0.066 C 
ATOM     27  C   UNL     1      35.373 -17.886 -20.680  0.00  0.00    +0.006 C 
ATOM     28  C   UNL     1      34.574 -19.420 -22.368  0.00  0.00    +0.006 C 
ATOM     29  C   UNL     1      35.386 -16.856 -21.622  0.00  0.00    +0.000 C 
ATOM     30  C   UNL     1      34.588 -18.390 -23.309  0.00  0.00    +0.000 C 
ATOM     31  C   UNL     1      34.993 -17.108 -22.935  0.00  0.00    +0.000 C 
ENDBRANCH  24  26
ENDBRANCH  19  22
ENDBRANCH  18  19
ENDBRANCH   2  18
TORSDOF 7
ENDMDL
MODEL 9
REMARK VINA RESULT:     -11.7      2.626      4.656
REMARK  Name = 60870
REMARK  7 active torsions:
REMARK  status: ('A' for Active; 'I' for Inactive)
REMARK    1  A    between atoms: C_2  and  C_4
REMARK    2  A    between atoms: C_2  and  C_18
REMARK    3  A    between atoms: C_3  and  C_9
REMARK    4  A    between atoms: C_9  and  C_14
REMARK    5  A    between atoms: C_18  and  C_19
REMARK    6  A    between atoms: C_19  and  C_22
REMARK    7  A    between atoms: C_24  and  C_26
REMARK                            x       y       z     vdW  Elec       q    Type
REMARK                         _______ _______ _______ _____ _____    ______ ____
ROOT
ATOM      1  O   UNL     1      34.973 -15.154 -24.483  0.00  0.00    -0.291 OA
ATOM      2  C   UNL     1      34.797 -15.309 -23.258  0.00  0.00    +0.173 C 
ENDROOT
BRANCH   2   4
ATOM      3  C   UNL     1      35.088 -19.143 -21.499  0.00  0.00    -0.021 C 
ATOM      4  C   UNL     1      34.896 -16.628 -22.652  0.00  0.00    +0.035 C 
ATOM      5  C   UNL     1      35.394 -18.021 -20.743  0.00  0.00    -0.004 C 
ATOM      6  C   UNL     1      34.687 -19.029 -22.821  0.00  0.00    -0.004 C 
ATOM      7  C   UNL     1      35.297 -16.756 -21.323  0.00  0.00    +0.003 C 
ATOM      8  C   UNL     1      34.590 -17.763 -23.402  0.00  0.00    +0.003 C 
BRANCH   3   9
ATOM      9  C   UNL     1      35.191 -20.510 -20.871  0.00  0.00    +0.047 C 
BRANCH   9  14
ATOM     10  S   UNL     1      35.349 -21.818 -18.453  0.00  0.00    -0.048 S 
ATOM     11  O   UNL     1      32.268 -20.313 -20.224  0.00  0.00    -0.274 OA
ATOM     12  O   UNL     1      33.779 -23.654 -17.416  0.00  0.00    -0.263 OA
ATOM     13  N   UNL     1      32.828 -22.045 -18.798  0.00  0.00    -0.246 N 
ATOM     14  C   UNL     1      34.559 -20.550 -19.492  0.00  0.00    +0.137 C 
ATOM     15  C   UNL     1      33.097 -20.931 -19.565  0.00  0.00    +0.239 C 
ATOM     16  C   UNL     1      33.851 -22.664 -18.129  0.00  0.00    +0.279 C 
ATOM     17  H   UNL     1      31.910 -22.392 -18.731  0.00  0.00    +0.158 HD
ENDBRANCH   9  14
ENDBRANCH   3   9
ENDBRANCH   2   4
BRANCH   2  18
ATOM     18  C   UNL     1      34.473 -14.083 -22.383  0.00  0.00    +0.076 C 
BRANCH  18  19
ATOM     19  C   UNL     1      33.091 -13.484 -22.658  0.00  0.00    +0.066 C 
BRANCH  19  22
ATOM     20  O   UNL     1      33.416 -10.063 -23.893  0.00  0.00    -0.449 OA
ATOM     21  N   UNL     1      32.836 -11.120 -21.979  0.00  0.00    -0.373 NA
ATOM     22  C   UNL     1      33.156 -12.014 -22.948  0.00  0.00    +0.130 C 
ATOM     23  C   UNL     1      33.507 -11.406 -24.105  0.00  0.00    +0.216 C 
ATOM     24  C   UNL     1      33.009  -9.973 -22.597  0.00  0.00    +0.277 C 
ATOM     25  C   UNL     1      33.933 -11.842 -25.439  0.00  0.00    +0.055 C 
BRANCH  24  26
ATOM     26  C   UNL     1      32.830  -8.636 -22.104  0.00  0.00    +0.066 C 
ATOM     27  C   UNL     1      33.481  -7.564 -22.721  0.00  0.00    +0.006 C 
ATOM     28  C   UNL     1      32.003  -8.398 -21.001  0.00  0.00    +0.006 C 
ATOM     29  C   UNL     1      33.307  -6.266 -22.241  0.00  0.00    +0.000 C 
ATOM     30  C   UNL     1      31.830  -7.100 -20.521  0.00  0.00    +0.000 C 
ATOM     31  C   UNL     1      32.482  -6.034 -21.141  0.00  0.00    +0.000 C 
ENDBRANCH  24  26
ENDBRANCH  19  22
ENDBRANCH  18  19
ENDBRANCH   2  18
TORSDOF 7
ENDMDL
