MODEL 1
REMARK VINA RESULT:     -11.8      0.000      0.000
REMARK  Name = 445481
REMARK  5 active torsions:
REMARK  status: ('A' for Active; 'I' for Inactive)
REMARK    1  A    between atoms: N_2  and  C_21
REMARK    2  A    between atoms: C_3  and  N_7
REMARK    3  A    between atoms: N_7  and  S_9
REMARK    4  A    between atoms: S_9  and  C_14
REMARK    5  A    between atoms: C_21  and  C_24
REMARK                            x       y       z     vdW  Elec       q    Type
REMARK                         _______ _______ _______ _____ _____    ______ ____
ROOT
ATOM      1  O   UNL     1      36.202 -21.399 -19.501  0.00  0.00    -0.273 OA
ATOM      2  N   UNL     1      33.964 -21.943 -19.017  0.00  0.00    -0.273 N 
ATOM      3  C   UNL     1      34.381 -19.863 -19.983  0.00  0.00    +0.153 C 
ATOM      4  C   UNL     1      32.912 -20.229 -20.172  0.00  0.00    +0.048 C 
ATOM      5  C   UNL     1      32.675 -21.301 -19.126  0.00  0.00    +0.096 C 
ATOM      6  C   UNL     1      35.005 -21.147 -19.495  0.00  0.00    +0.242 C 
ENDROOT
BRANCH   3   7
ATOM      7  N   UNL     1      34.996 -19.474 -21.257  0.00  0.00    -0.171 NA
ATOM      8  H   UNL     1      35.574 -20.256 -21.565  0.00  0.00    +0.149 HD
BRANCH   7   9
ATOM      9  S   UNL     1      35.983 -18.072 -21.282  0.00  0.00    +0.066 S 
ATOM     10  O   UNL     1      37.280 -18.411 -21.834  0.00  0.00    -0.152 OA
ATOM     11  O   UNL     1      35.861 -17.382 -20.012  0.00  0.00    -0.152 OA
BRANCH   9  14
ATOM     12  S   UNL     1      34.916 -15.405 -21.800  0.00  0.00    -0.066 S 
ATOM     13  N   UNL     1      33.905 -15.674 -25.547  0.00  0.00    -0.243 NA
ATOM     14  C   UNL     1      35.247 -16.932 -22.454  0.00  0.00    +0.153 C 
ATOM     15  C   UNL     1      34.909 -17.064 -23.757  0.00  0.00    +0.046 C 
ATOM     16  C   UNL     1      34.344 -15.858 -24.271  0.00  0.00    +0.089 C 
ATOM     17  C   UNL     1      34.285 -14.856 -23.302  0.00  0.00    +0.048 C 
ATOM     18  C   UNL     1      33.758 -13.597 -23.625  0.00  0.00    +0.010 C 
ATOM     19  C   UNL     1      33.309 -13.404 -24.925  0.00  0.00    +0.021 C 
ATOM     20  C   UNL     1      33.405 -14.452 -25.821  0.00  0.00    +0.099 C 
ENDBRANCH   9  14
ENDBRANCH   7   9
ENDBRANCH   3   7
BRANCH   2  21
ATOM     21  C   UNL     1      34.121 -23.221 -18.359  0.00  0.00    +0.135 C 
BRANCH  21  24
ATOM     22  N   UNL     1      34.089 -23.530 -15.898  0.00  0.00    -0.313 N 
ATOM     23  N   UNL     1      32.410 -23.548 -12.611  0.00  0.00    -0.241 NA
ATOM     24  C   UNL     1      33.414 -23.221 -17.032  0.00  0.00    +0.046 C 
ATOM     25  C   UNL     1      32.117 -22.948 -16.737  0.00  0.00    +0.013 C 
ATOM     26  C   UNL     1      31.975 -23.095 -15.329  0.00  0.00    +0.017 C 
ATOM     27  C   UNL     1      33.227 -23.460 -14.829  0.00  0.00    +0.068 C 
ATOM     28  C   UNL     1      30.908 -22.954 -14.431  0.00  0.00    +0.022 C 
ATOM     29  C   UNL     1      33.443 -23.685 -13.476  0.00  0.00    +0.113 C 
ATOM     30  C   UNL     1      31.197 -23.196 -13.094  0.00  0.00    +0.099 C 
ATOM     31  H   UNL     1      35.043 -23.767 -15.848  0.00  0.00    +0.152 HD
ENDBRANCH  21  24
ENDBRANCH   2  21
TORSDOF 5
ENDMDL
MODEL 2
REMARK VINA RESULT:     -11.8      2.568     10.448
REMARK  Name = 445481
REMARK  5 active torsions:
REMARK  status: ('A' for Active; 'I' for Inactive)
REMARK    1  A    between atoms: N_2  and  C_21
REMARK    2  A    between atoms: C_3  and  N_7
REMARK    3  A    between atoms: N_7  and  S_9
REMARK    4  A    between atoms: S_9  and  C_14
REMARK    5  A    between atoms: C_21  and  C_24
REMARK                            x       y       z     vdW  Elec       q    Type
REMARK                         _______ _______ _______ _____ _____    ______ ____
ROOT
ATOM      1  O   UNL     1      36.860 -20.555 -19.511  0.00  0.00    -0.273 OA
ATOM      2  N   UNL     1      35.434 -19.364 -20.956  0.00  0.00    -0.273 N 
ATOM      3  C   UNL     1      34.504 -21.114 -19.729  0.00  0.00    +0.153 C 
ATOM      4  C   UNL     1      33.395 -20.192 -20.223  0.00  0.00    +0.048 C 
ATOM      5  C   UNL     1      34.048 -19.426 -21.357  0.00  0.00    +0.096 C 
ATOM      6  C   UNL     1      35.765 -20.334 -20.009  0.00  0.00    +0.242 C 
ENDROOT
BRANCH   3   7
ATOM      7  N   UNL     1      34.389 -21.353 -18.286  0.00  0.00    -0.171 NA
ATOM      8  H   UNL     1      35.336 -21.450 -17.919  0.00  0.00    +0.149 HD
BRANCH   7   9
ATOM      9  S   UNL     1      33.498 -22.721 -17.763  0.00  0.00    +0.066 S 
ATOM     10  O   UNL     1      33.885 -23.874 -18.552  0.00  0.00    -0.152 OA
ATOM     11  O   UNL     1      32.105 -22.348 -17.606  0.00  0.00    -0.152 OA
BRANCH   9  14
ATOM     12  S   UNL     1      35.658 -22.734 -15.801  0.00  0.00    -0.066 S 
ATOM     13  N   UNL     1      33.864 -24.173 -12.663  0.00  0.00    -0.243 NA
ATOM     14  C   UNL     1      34.027 -23.086 -16.090  0.00  0.00    +0.153 C 
ATOM     15  C   UNL     1      33.369 -23.589 -15.020  0.00  0.00    +0.046 C 
ATOM     16  C   UNL     1      34.229 -23.702 -13.887  0.00  0.00    +0.089 C 
ATOM     17  C   UNL     1      35.524 -23.266 -14.172  0.00  0.00    +0.048 C 
ATOM     18  C   UNL     1      36.511 -23.302 -13.176  0.00  0.00    +0.010 C 
ATOM     19  C   UNL     1      36.145 -23.782 -11.925  0.00  0.00    +0.021 C 
ATOM     20  C   UNL     1      34.839 -24.193 -11.731  0.00  0.00    +0.099 C 
ENDBRANCH   9  14
ENDBRANCH   7   9
ENDBRANCH   3   7
BRANCH   2  21
ATOM     21  C   UNL     1      36.367 -18.459 -21.590  0.00  0.00    +0.135 C 
BRANCH  21  24
ATOM     22  N   UNL     1      35.328 -17.275 -23.506  0.00  0.00    -0.313 N 
ATOM     23  N   UNL     1      33.548 -14.424 -25.031  0.00  0.00    -0.241 NA
ATOM     24  C   UNL     1      35.641 -17.285 -22.188  0.00  0.00    +0.046 C 
ATOM     25  C   UNL     1      35.207 -16.141 -21.600  0.00  0.00    +0.013 C 
ATOM     26  C   UNL     1      34.583 -15.367 -22.619  0.00  0.00    +0.017 C 
ATOM     27  C   UNL     1      34.673 -16.102 -23.802  0.00  0.00    +0.068 C 
ATOM     28  C   UNL     1      33.951 -14.117 -22.652  0.00  0.00    +0.022 C 
ATOM     29  C   UNL     1      34.158 -15.632 -25.003  0.00  0.00    +0.113 C 
ATOM     30  C   UNL     1      33.460 -13.710 -23.886  0.00  0.00    +0.099 C 
ATOM     31  H   UNL     1      35.537 -17.991 -24.148  0.00  0.00    +0.152 HD
ENDBRANCH  21  24
ENDBRANCH   2  21
TORSDOF 5
ENDMDL
MODEL 3
REMARK VINA RESULT:     -11.7      2.768     10.254
REMARK  Name = 445481
REMARK  5 active torsions:
REMARK  status: ('A' for Active; 'I' for Inactive)
REMARK    1  A    between atoms: N_2  and  C_21
REMARK    2  A    between atoms: C_3  and  N_7
REMARK    3  A    between atoms: N_7  and  S_9
REMARK    4  A    between atoms: S_9  and  C_14
REMARK    5  A    between atoms: C_21  and  C_24
REMARK                            x       y       z     vdW  Elec       q    Type
REMARK                         _______ _______ _______ _____ _____    ______ ____
ROOT
ATOM      1  O   UNL     1      37.020 -19.717 -19.642  0.00  0.00    -0.273 OA
ATOM      2  N   UNL     1      35.546 -18.895 -21.282  0.00  0.00    -0.273 N 
ATOM      3  C   UNL     1      34.883 -20.784 -20.088  0.00  0.00    +0.153 C 
ATOM      4  C   UNL     1      33.664 -20.137 -20.738  0.00  0.00    +0.048 C 
ATOM      5  C   UNL     1      34.262 -19.267 -21.827  0.00  0.00    +0.096 C 
ATOM      6  C   UNL     1      35.968 -19.751 -20.264  0.00  0.00    +0.242 C 
ENDROOT
BRANCH   3   7
ATOM      7  N   UNL     1      34.657 -21.016 -18.658  0.00  0.00    -0.171 NA
ATOM      8  H   UNL     1      35.574 -21.097 -18.216  0.00  0.00    +0.149 HD
BRANCH   7   9
ATOM      9  S   UNL     1      33.747 -22.394 -18.196  0.00  0.00    +0.066 S 
ATOM     10  O   UNL     1      34.135 -23.521 -19.022  0.00  0.00    -0.152 OA
ATOM     11  O   UNL     1      32.356 -22.015 -18.044  0.00  0.00    -0.152 OA
BRANCH   9  14
ATOM     12  S   UNL     1      33.003 -23.474 -15.589  0.00  0.00    -0.066 S 
ATOM     13  N   UNL     1      36.368 -23.242 -13.651  0.00  0.00    -0.243 NA
ATOM     14  C   UNL     1      34.252 -22.825 -16.531  0.00  0.00    +0.153 C 
ATOM     15  C   UNL     1      35.439 -22.729 -15.891  0.00  0.00    +0.046 C 
ATOM     16  C   UNL     1      35.346 -23.208 -14.549  0.00  0.00    +0.089 C 
ATOM     17  C   UNL     1      34.058 -23.651 -14.244  0.00  0.00    +0.048 C 
ATOM     18  C   UNL     1      33.775 -24.158 -12.967  0.00  0.00    +0.010 C 
ATOM     19  C   UNL     1      34.814 -24.196 -12.046  0.00  0.00    +0.021 C 
ATOM     20  C   UNL     1      36.059 -23.736 -12.434  0.00  0.00    +0.099 C 
ENDBRANCH   9  14
ENDBRANCH   7   9
ENDBRANCH   3   7
BRANCH   2  21
ATOM     21  C   UNL     1      36.328 -17.819 -21.850  0.00  0.00    +0.135 C 
BRANCH  21  24
ATOM     22  N   UNL     1      35.254 -15.949 -23.075  0.00  0.00    -0.313 N 
ATOM     23  N   UNL     1      33.291 -12.828 -23.240  0.00  0.00    -0.241 NA
ATOM     24  C   UNL     1      35.526 -16.548 -21.890  0.00  0.00    +0.046 C 
ATOM     25  C   UNL     1      34.981 -15.831 -20.874  0.00  0.00    +0.013 C 
ATOM     26  C   UNL     1      34.326 -14.713 -21.465  0.00  0.00    +0.017 C 
ATOM     27  C   UNL     1      34.513 -14.814 -22.844  0.00  0.00    +0.068 C 
ATOM     28  C   UNL     1      33.594 -13.629 -20.963  0.00  0.00    +0.022 C 
ATOM     29  C   UNL     1      33.998 -13.874 -23.728  0.00  0.00    +0.113 C 
ATOM     30  C   UNL     1      33.109 -12.730 -21.904  0.00  0.00    +0.099 C 
ATOM     31  H   UNL     1      35.541 -16.274 -23.959  0.00  0.00    +0.152 HD
ENDBRANCH  21  24
ENDBRANCH   2  21
TORSDOF 5
ENDMDL
MODEL 4
REMARK VINA RESULT:     -11.3      2.499     10.095
REMARK  Name = 445481
REMARK  5 active torsions:
REMARK  status: ('A' for Active; 'I' for Inactive)
REMARK    1  A    between atoms: N_2  and  C_21
REMARK    2  A    between atoms: C_3  and  N_7
REMARK    3  A    between atoms: N_7  and  S_9
REMARK    4  A    between atoms: S_9  and  C_14
REMARK    5  A    between atoms: C_21  and  C_24
REMARK                            x       y       z     vdW  Elec       q    Type
REMARK                         _______ _______ _______ _____ _____    ______ ____
ROOT
ATOM      1  O   UNL     1      36.609 -19.784 -19.527  0.00  0.00    -0.273 OA
ATOM      2  N   UNL     1      35.339 -18.819 -21.257  0.00  0.00    -0.273 N 
ATOM      3  C   UNL     1      34.476 -20.720 -20.221  0.00  0.00    +0.153 C 
ATOM      4  C   UNL     1      33.357 -19.985 -20.951  0.00  0.00    +0.048 C 
ATOM      5  C   UNL     1      34.096 -19.101 -21.937  0.00  0.00    +0.096 C 
ATOM      6  C   UNL     1      35.621 -19.738 -20.246  0.00  0.00    +0.242 C 
ENDROOT
BRANCH   3   7
ATOM      7  N   UNL     1      34.104 -21.001 -18.830  0.00  0.00    -0.171 NA
ATOM      8  H   UNL     1      34.554 -20.295 -18.248  0.00  0.00    +0.149 HD
BRANCH   7   9
ATOM      9  S   UNL     1      34.513 -22.533 -18.178  0.00  0.00    +0.066 S 
ATOM     10  O   UNL     1      35.811 -22.449 -17.538  0.00  0.00    -0.152 OA
ATOM     11  O   UNL     1      34.222 -23.560 -19.160  0.00  0.00    -0.152 OA
BRANCH   9  14
ATOM     12  S   UNL     1      34.083 -23.387 -15.420  0.00  0.00    -0.066 S 
ATOM     13  N   UNL     1      30.208 -23.194 -15.131  0.00  0.00    -0.243 NA
ATOM     14  C   UNL     1      33.349 -22.871 -16.857  0.00  0.00    +0.153 C 
ATOM     15  C   UNL     1      32.000 -22.791 -16.795  0.00  0.00    +0.046 C 
ATOM     16  C   UNL     1      31.516 -23.169 -15.506  0.00  0.00    +0.089 C 
ATOM     17  C   UNL     1      32.555 -23.524 -14.644  0.00  0.00    +0.048 C 
ATOM     18  C   UNL     1      32.271 -23.924 -13.330  0.00  0.00    +0.010 C 
ATOM     19  C   UNL     1      30.938 -23.951 -12.941  0.00  0.00    +0.021 C 
ATOM     20  C   UNL     1      29.973 -23.584 -13.861  0.00  0.00    +0.099 C 
ENDBRANCH   9  14
ENDBRANCH   7   9
ENDBRANCH   3   7
BRANCH   2  21
ATOM     21  C   UNL     1      36.221 -17.762 -21.698  0.00  0.00    +0.135 C 
BRANCH  21  24
ATOM     22  N   UNL     1      35.245 -15.936 -23.065  0.00  0.00    -0.313 N 
ATOM     23  N   UNL     1      33.400 -12.766 -23.473  0.00  0.00    -0.241 NA
ATOM     24  C   UNL     1      35.466 -16.469 -21.838  0.00  0.00    +0.046 C 
ATOM     25  C   UNL     1      34.923 -15.671 -20.883  0.00  0.00    +0.013 C 
ATOM     26  C   UNL     1      34.323 -14.571 -21.558  0.00  0.00    +0.017 C 
ATOM     27  C   UNL     1      34.540 -14.764 -22.924  0.00  0.00    +0.068 C 
ATOM     28  C   UNL     1      33.618 -13.432 -21.144  0.00  0.00    +0.022 C 
ATOM     29  C   UNL     1      34.080 -13.864 -23.877  0.00  0.00    +0.113 C 
ATOM     30  C   UNL     1      33.189 -12.578 -22.151  0.00  0.00    +0.099 C 
ATOM     31  H   UNL     1      35.541 -16.326 -23.919  0.00  0.00    +0.152 HD
ENDBRANCH  21  24
ENDBRANCH   2  21
TORSDOF 5
ENDMDL
MODEL 5
REMARK VINA RESULT:     -11.2      1.704      2.422
REMARK  Name = 445481
REMARK  5 active torsions:
REMARK  status: ('A' for Active; 'I' for Inactive)
REMARK    1  A    between atoms: N_2  and  C_21
REMARK    2  A    between atoms: C_3  and  N_7
REMARK    3  A    between atoms: N_7  and  S_9
REMARK    4  A    between atoms: S_9  and  C_14
REMARK    5  A    between atoms: C_21  and  C_24
REMARK                            x       y       z     vdW  Elec       q    Type
REMARK                         _______ _______ _______ _____ _____    ______ ____
ROOT
ATOM      1  O   UNL     1      32.521 -20.441 -19.973  0.00  0.00    -0.273 OA
ATOM      2  N   UNL     1      33.882 -21.780 -18.598  0.00  0.00    -0.273 N 
ATOM      3  C   UNL     1      34.933 -20.531 -20.262  0.00  0.00    +0.153 C 
ATOM      4  C   UNL     1      35.957 -20.945 -19.210  0.00  0.00    +0.048 C 
ATOM      5  C   UNL     1      35.286 -22.102 -18.496  0.00  0.00    +0.096 C 
ATOM      6  C   UNL     1      33.610 -20.871 -19.621  0.00  0.00    +0.242 C 
ENDROOT
BRANCH   3   7
ATOM      7  N   UNL     1      34.994 -19.089 -20.520  0.00  0.00    -0.171 NA
ATOM      8  H   UNL     1      34.034 -18.745 -20.545  0.00  0.00    +0.149 HD
BRANCH   7   9
ATOM      9  S   UNL     1      35.762 -18.557 -21.958  0.00  0.00    +0.066 S 
ATOM     10  O   UNL     1      35.319 -19.377 -23.067  0.00  0.00    -0.152 OA
ATOM     11  O   UNL     1      37.173 -18.346 -21.693  0.00  0.00    -0.152 OA
BRANCH   9  14
ATOM     12  S   UNL     1      34.586 -16.714 -23.891  0.00  0.00    -0.066 S 
ATOM     13  N   UNL     1      34.260 -13.462 -21.780  0.00  0.00    -0.243 NA
ATOM     14  C   UNL     1      35.148 -16.909 -22.305  0.00  0.00    +0.153 C 
ATOM     15  C   UNL     1      35.051 -15.799 -21.539  0.00  0.00    +0.046 C 
ATOM     16  C   UNL     1      34.486 -14.711 -22.272  0.00  0.00    +0.089 C 
ATOM     17  C   UNL     1      34.181 -15.071 -23.585  0.00  0.00    +0.048 C 
ATOM     18  C   UNL     1      33.617 -14.130 -24.458  0.00  0.00    +0.010 C 
ATOM     19  C   UNL     1      33.384 -12.853 -23.962  0.00  0.00    +0.021 C 
ATOM     20  C   UNL     1      33.717 -12.583 -22.648  0.00  0.00    +0.099 C 
ENDBRANCH   9  14
ENDBRANCH   7   9
ENDBRANCH   3   7
BRANCH   2  21
ATOM     21  C   UNL     1      32.890 -22.453 -17.788  0.00  0.00    +0.135 C 
BRANCH  21  24
ATOM     22  N   UNL     1      32.667 -23.295 -15.466  0.00  0.00    -0.313 N 
ATOM     23  N   UNL     1      34.037 -24.280 -12.183  0.00  0.00    -0.241 NA
ATOM     24  C   UNL     1      33.473 -22.848 -16.460  0.00  0.00    +0.046 C 
ATOM     25  C   UNL     1      34.763 -22.838 -16.039  0.00  0.00    +0.013 C 
ATOM     26  C   UNL     1      34.762 -23.309 -14.695  0.00  0.00    +0.017 C 
ATOM     27  C   UNL     1      33.435 -23.588 -14.363  0.00  0.00    +0.068 C 
ATOM     28  C   UNL     1      35.755 -23.526 -13.731  0.00  0.00    +0.022 C 
ATOM     29  C   UNL     1      33.074 -24.071 -13.112  0.00  0.00    +0.113 C 
ATOM     30  C   UNL     1      35.322 -24.010 -12.503  0.00  0.00    +0.099 C 
ATOM     31  H   UNL     1      31.689 -23.392 -15.524  0.00  0.00    +0.152 HD
ENDBRANCH  21  24
ENDBRANCH   2  21
TORSDOF 5
ENDMDL
MODEL 6
REMARK VINA RESULT:     -11.2      4.136      6.448
REMARK  Name = 445481
REMARK  5 active torsions:
REMARK  status: ('A' for Active; 'I' for Inactive)
REMARK    1  A    between atoms: N_2  and  C_21
REMARK    2  A    between atoms: C_3  and  N_7
REMARK    3  A    between atoms: N_7  and  S_9
REMARK    4  A    between atoms: S_9  and  C_14
REMARK    5  A    between atoms: C_21  and  C_24
REMARK                            x       y       z     vdW  Elec       q    Type
REMARK                         _______ _______ _______ _____ _____    ______ ____
ROOT
ATOM      1  O   UNL     1      34.919 -15.912 -23.768  0.00  0.00    -0.273 OA
ATOM      2  N   UNL     1      35.376 -16.763 -21.623  0.00  0.00    -0.273 N 
ATOM      3  C   UNL     1      34.561 -14.584 -21.764  0.00  0.00    +0.153 C 
ATOM      4  C   UNL     1      34.356 -15.115 -20.349  0.00  0.00    +0.048 C 
ATOM      5  C   UNL     1      35.322 -16.280 -20.263  0.00  0.00    +0.096 C 
ATOM      6  C   UNL     1      34.950 -15.812 -22.550  0.00  0.00    +0.242 C 
ENDROOT
BRANCH   3   7
ATOM      7  N   UNL     1      33.315 -14.032 -22.307  0.00  0.00    -0.171 NA
ATOM      8  H   UNL     1      32.790 -14.808 -22.711  0.00  0.00    +0.149 HD
BRANCH   7   9
ATOM      9  S   UNL     1      33.427 -12.813 -23.508  0.00  0.00    +0.066 S 
ATOM     10  O   UNL     1      32.388 -13.022 -24.498  0.00  0.00    -0.152 OA
ATOM     11  O   UNL     1      34.816 -12.654 -23.895  0.00  0.00    -0.152 OA
BRANCH   9  14
ATOM     12  S   UNL     1      33.781  -9.917 -23.433  0.00  0.00    -0.066 S 
ATOM     13  N   UNL     1      31.548  -8.929 -20.405  0.00  0.00    -0.243 NA
ATOM     14  C   UNL     1      33.029 -11.255 -22.717  0.00  0.00    +0.153 C 
ATOM     15  C   UNL     1      32.243 -10.951 -21.659  0.00  0.00    +0.046 C 
ATOM     16  C   UNL     1      32.241  -9.547 -21.401  0.00  0.00    +0.089 C 
ATOM     17  C   UNL     1      33.047  -8.851 -22.302  0.00  0.00    +0.048 C 
ATOM     18  C   UNL     1      33.169  -7.457 -22.204  0.00  0.00    +0.010 C 
ATOM     19  C   UNL     1      32.464  -6.821 -21.189  0.00  0.00    +0.021 C 
ATOM     20  C   UNL     1      31.689  -7.590 -20.340  0.00  0.00    +0.099 C 
ENDBRANCH   9  14
ENDBRANCH   7   9
ENDBRANCH   3   7
BRANCH   2  21
ATOM     21  C   UNL     1      35.938 -18.056 -21.947  0.00  0.00    +0.135 C 
BRANCH  21  24
ATOM     22  N   UNL     1      36.249 -19.781 -20.193  0.00  0.00    -0.313 N 
ATOM     23  N   UNL     1      35.007 -22.381 -17.885  0.00  0.00    -0.241 NA
ATOM     24  C   UNL     1      35.407 -19.111 -21.016  0.00  0.00    +0.046 C 
ATOM     25  C   UNL     1      34.136 -19.551 -20.835  0.00  0.00    +0.013 C 
ATOM     26  C   UNL     1      34.189 -20.561 -19.834  0.00  0.00    +0.017 C 
ATOM     27  C   UNL     1      35.525 -20.684 -19.449  0.00  0.00    +0.068 C 
ATOM     28  C   UNL     1      33.234 -21.381 -19.217  0.00  0.00    +0.022 C 
ATOM     29  C   UNL     1      35.932 -21.591 -18.479  0.00  0.00    +0.113 C 
ATOM     30  C   UNL     1      33.713 -22.263 -18.257  0.00  0.00    +0.099 C 
ATOM     31  H   UNL     1      37.222 -19.645 -20.136  0.00  0.00    +0.152 HD
ENDBRANCH  21  24
ENDBRANCH   2  21
TORSDOF 5
ENDMDL
MODEL 7
REMARK VINA RESULT:     -11.1      3.933      6.382
REMARK  Name = 445481
REMARK  5 active torsions:
REMARK  status: ('A' for Active; 'I' for Inactive)
REMARK    1  A    between atoms: N_2  and  C_21
REMARK    2  A    between atoms: C_3  and  N_7
REMARK    3  A    between atoms: N_7  and  S_9
REMARK    4  A    between atoms: S_9  and  C_14
REMARK    5  A    between atoms: C_21  and  C_24
REMARK                            x       y       z     vdW  Elec       q    Type
REMARK                         _______ _______ _______ _____ _____    ______ ____
ROOT
ATOM      1  O   UNL     1      35.313 -15.682 -20.379  0.00  0.00    -0.273 OA
ATOM      2  N   UNL     1      35.718 -17.100 -22.212  0.00  0.00    -0.273 N 
ATOM      3  C   UNL     1      34.233 -15.332 -22.528  0.00  0.00    +0.153 C 
ATOM      4  C   UNL     1      34.722 -15.835 -23.882  0.00  0.00    +0.048 C 
ATOM      5  C   UNL     1      35.255 -17.221 -23.574  0.00  0.00    +0.096 C 
ATOM      6  C   UNL     1      35.148 -16.017 -21.543  0.00  0.00    +0.242 C 
ENDROOT
BRANCH   3   7
ATOM      7  N   UNL     1      34.393 -13.879 -22.415  0.00  0.00    -0.171 NA
ATOM      8  H   UNL     1      34.138 -13.619 -21.462  0.00  0.00    +0.149 HD
BRANCH   7   9
ATOM      9  S   UNL     1      33.487 -12.881 -23.474  0.00  0.00    +0.066 S 
ATOM     10  O   UNL     1      32.258 -13.560 -23.834  0.00  0.00    -0.152 OA
ATOM     11  O   UNL     1      34.371 -12.335 -24.486  0.00  0.00    -0.152 OA
BRANCH   9  14
ATOM     12  S   UNL     1      32.248 -11.816 -21.055  0.00  0.00    -0.066 S 
ATOM     13  N   UNL     1      32.463  -7.983 -21.683  0.00  0.00    -0.243 NA
ATOM     14  C   UNL     1      32.980 -11.440 -22.536  0.00  0.00    +0.153 C 
ATOM     15  C   UNL     1      33.073 -10.115 -22.790  0.00  0.00    +0.046 C 
ATOM     16  C   UNL     1      32.519  -9.342 -21.725  0.00  0.00    +0.089 C 
ATOM     17  C   UNL     1      32.026 -10.149 -20.699  0.00  0.00    +0.048 C 
ATOM     18  C   UNL     1      31.443  -9.565 -19.565  0.00  0.00    +0.010 C 
ATOM     19  C   UNL     1      31.382  -8.178 -19.516  0.00  0.00    +0.021 C 
ATOM     20  C   UNL     1      31.896  -7.456 -20.578  0.00  0.00    +0.099 C 
ENDBRANCH   9  14
ENDBRANCH   7   9
ENDBRANCH   3   7
BRANCH   2  21
ATOM     21  C   UNL     1      36.581 -18.095 -21.614  0.00  0.00    +0.135 C 
BRANCH  21  24
ATOM     22  N   UNL     1      36.385 -19.962 -19.993  0.00  0.00    -0.313 N 
ATOM     23  N   UNL     1      34.455 -22.445 -18.060  0.00  0.00    -0.241 NA
ATOM     24  C   UNL     1      35.772 -19.097 -20.837  0.00  0.00    +0.046 C 
ATOM     25  C   UNL     1      34.432 -19.312 -20.827  0.00  0.00    +0.013 C 
ATOM     26  C   UNL     1      34.193 -20.380 -19.917  0.00  0.00    +0.017 C 
ATOM     27  C   UNL     1      35.435 -20.767 -19.409  0.00  0.00    +0.068 C 
ATOM     28  C   UNL     1      33.047 -21.054 -19.475  0.00  0.00    +0.022 C 
ATOM     29  C   UNL     1      35.564 -21.796 -18.485  0.00  0.00    +0.113 C 
ATOM     30  C   UNL     1      33.252 -22.071 -18.551  0.00  0.00    +0.099 C 
ATOM     31  H   UNL     1      37.353 -20.008 -19.825  0.00  0.00    +0.152 HD
ENDBRANCH  21  24
ENDBRANCH   2  21
TORSDOF 5
ENDMDL
MODEL 8
REMARK VINA RESULT:     -10.8      4.837      8.267
REMARK  Name = 445481
REMARK  5 active torsions:
REMARK  status: ('A' for Active; 'I' for Inactive)
REMARK    1  A    between atoms: N_2  and  C_21
REMARK    2  A    between atoms: C_3  and  N_7
REMARK    3  A    between atoms: N_7  and  S_9
REMARK    4  A    between atoms: S_9  and  C_14
REMARK    5  A    between atoms: C_21  and  C_24
REMARK                            x       y       z     vdW  Elec       q    Type
REMARK                         _______ _______ _______ _____ _____    ______ ____
ROOT
ATOM      1  O   UNL     1      34.911 -14.751 -21.544  0.00  0.00    -0.273 OA
ATOM      2  N   UNL     1      34.328 -15.202 -23.779  0.00  0.00    -0.273 N 
ATOM      3  C   UNL     1      33.021 -13.662 -22.616  0.00  0.00    +0.153 C 
ATOM      4  C   UNL     1      32.809 -13.483 -24.116  0.00  0.00    +0.048 C 
ATOM      5  C   UNL     1      33.298 -14.793 -24.703  0.00  0.00    +0.096 C 
ATOM      6  C   UNL     1      34.215 -14.580 -22.535  0.00  0.00    +0.242 C 
ENDROOT
BRANCH   3   7
ATOM      7  N   UNL     1      33.343 -12.384 -21.972  0.00  0.00    -0.171 NA
ATOM      8  H   UNL     1      34.126 -12.553 -21.340  0.00  0.00    +0.149 HD
BRANCH   7   9
ATOM      9  S   UNL     1      32.115 -11.605 -21.064  0.00  0.00    +0.066 S 
ATOM     10  O   UNL     1      32.391 -11.767 -19.650  0.00  0.00    -0.152 OA
ATOM     11  O   UNL     1      30.822 -11.946 -21.624  0.00  0.00    -0.152 OA
BRANCH   9  14
ATOM     12  S   UNL     1      33.041  -9.481 -22.839  0.00  0.00    -0.066 S 
ATOM     13  N   UNL     1      31.951  -6.295 -20.891  0.00  0.00    -0.243 NA
ATOM     14  C   UNL     1      32.262  -9.846 -21.381  0.00  0.00    +0.153 C 
ATOM     15  C   UNL     1      31.867  -8.763 -20.674  0.00  0.00    +0.046 C 
ATOM     16  C   UNL     1      32.212  -7.551 -21.345  0.00  0.00    +0.089 C 
ATOM     17  C   UNL     1      32.866  -7.795 -22.554  0.00  0.00    +0.048 C 
ATOM     18  C   UNL     1      33.282  -6.722 -23.356  0.00  0.00    +0.010 C 
ATOM     19  C   UNL     1      33.018  -5.437 -22.896  0.00  0.00    +0.021 C 
ATOM     20  C   UNL     1      32.366  -5.289 -21.687  0.00  0.00    +0.099 C 
ENDBRANCH   9  14
ENDBRANCH   7   9
ENDBRANCH   3   7
BRANCH   2  21
ATOM     21  C   UNL     1      35.276 -16.242 -24.112  0.00  0.00    +0.135 C 
BRANCH  21  24
ATOM     22  N   UNL     1      36.367 -17.455 -22.243  0.00  0.00    -0.313 N 
ATOM     23  N   UNL     1      36.455 -20.047 -19.617  0.00  0.00    -0.241 NA
ATOM     24  C   UNL     1      35.287 -17.306 -23.049  0.00  0.00    +0.046 C 
ATOM     25  C   UNL     1      34.338 -18.220 -22.724  0.00  0.00    +0.013 C 
ATOM     26  C   UNL     1      34.859 -18.988 -21.644  0.00  0.00    +0.017 C 
ATOM     27  C   UNL     1      36.131 -18.486 -21.364  0.00  0.00    +0.068 C 
ATOM     28  C   UNL     1      34.375 -20.058 -20.879  0.00  0.00    +0.022 C 
ATOM     29  C   UNL     1      36.925 -19.014 -20.355  0.00  0.00    +0.113 C 
ATOM     30  C   UNL     1      35.223 -20.535 -19.888  0.00  0.00    +0.099 C 
ATOM     31  H   UNL     1      37.187 -16.913 -22.281  0.00  0.00    +0.152 HD
ENDBRANCH  21  24
ENDBRANCH   2  21
TORSDOF 5
ENDMDL
MODEL 9
REMARK VINA RESULT:     -10.7      1.465      2.131
REMARK  Name = 445481
REMARK  5 active torsions:
REMARK  status: ('A' for Active; 'I' for Inactive)
REMARK    1  A    between atoms: N_2  and  C_21
REMARK    2  A    between atoms: C_3  and  N_7
REMARK    3  A    between atoms: N_7  and  S_9
REMARK    4  A    between atoms: S_9  and  C_14
REMARK    5  A    between atoms: C_21  and  C_24
REMARK                            x       y       z     vdW  Elec       q    Type
REMARK                         _______ _______ _______ _____ _____    ______ ____
ROOT
ATOM      1  O   UNL     1      32.350 -20.970 -19.860  0.00  0.00    -0.273 OA
ATOM      2  N   UNL     1      34.086 -21.947 -18.608  0.00  0.00    -0.273 N 
ATOM      3  C   UNL     1      34.687 -20.488 -20.323  0.00  0.00    +0.153 C 
ATOM      4  C   UNL     1      35.855 -20.647 -19.355  0.00  0.00    +0.048 C 
ATOM      5  C   UNL     1      35.530 -21.928 -18.612  0.00  0.00    +0.096 C 
ATOM      6  C   UNL     1      33.533 -21.130 -19.594  0.00  0.00    +0.242 C 
ENDROOT
BRANCH   3   7
ATOM      7  N   UNL     1      34.387 -19.073 -20.562  0.00  0.00    -0.171 NA
ATOM      8  H   UNL     1      33.714 -19.031 -21.328  0.00  0.00    +0.149 HD
BRANCH   7   9
ATOM      9  S   UNL     1      35.685 -18.029 -20.970  0.00  0.00    +0.066 S 
ATOM     10  O   UNL     1      36.739 -18.801 -21.600  0.00  0.00    -0.152 OA
ATOM     11  O   UNL     1      35.961 -17.153 -19.847  0.00  0.00    -0.152 OA
BRANCH   9  14
ATOM     12  S   UNL     1      34.742 -15.357 -21.667  0.00  0.00    -0.066 S 
ATOM     13  N   UNL     1      34.054 -15.734 -25.477  0.00  0.00    -0.243 NA
ATOM     14  C   UNL     1      35.087 -16.914 -22.238  0.00  0.00    +0.153 C 
ATOM     15  C   UNL     1      34.860 -17.084 -23.561  0.00  0.00    +0.046 C 
ATOM     16  C   UNL     1      34.375 -15.883 -24.163  0.00  0.00    +0.089 C 
ATOM     17  C   UNL     1      34.259 -14.847 -23.236  0.00  0.00    +0.048 C 
ATOM     18  C   UNL     1      33.798 -13.587 -23.645  0.00  0.00    +0.010 C 
ATOM     19  C   UNL     1      33.469 -13.428 -24.986  0.00  0.00    +0.021 C 
ATOM     20  C   UNL     1      33.614 -14.510 -25.834  0.00  0.00    +0.099 C 
ENDBRANCH   9  14
ENDBRANCH   7   9
ENDBRANCH   3   7
BRANCH   2  21
ATOM     21  C   UNL     1      33.342 -22.834 -17.740  0.00  0.00    +0.135 C 
BRANCH  21  24
ATOM     22  N   UNL     1      33.379 -23.488 -15.348  0.00  0.00    -0.313 N 
ATOM     23  N   UNL     1      35.043 -23.890 -12.077  0.00  0.00    -0.241 NA
ATOM     24  C   UNL     1      34.043 -22.988 -16.418  0.00  0.00    +0.046 C 
ATOM     25  C   UNL     1      35.322 -22.692 -16.072  0.00  0.00    +0.013 C 
ATOM     26  C   UNL     1      35.465 -23.031 -14.697  0.00  0.00    +0.017 C 
ATOM     27  C   UNL     1      34.233 -23.527 -14.269  0.00  0.00    +0.068 C 
ATOM     28  C   UNL     1      36.519 -22.965 -13.775  0.00  0.00    +0.022 C 
ATOM     29  C   UNL     1      34.023 -23.955 -12.965  0.00  0.00    +0.113 C 
ATOM     30  C   UNL     1      36.237 -23.409 -12.490  0.00  0.00    +0.099 C 
ATOM     31  H   UNL     1      32.438 -23.776 -15.342  0.00  0.00    +0.152 HD
ENDBRANCH  21  24
ENDBRANCH   2  21
TORSDOF 5
ENDMDL
