MODEL 1
REMARK VINA RESULT:     -12.1      0.000      0.000
REMARK  Name = 10173277
REMARK  7 active torsions:
REMARK  status: ('A' for Active; 'I' for Inactive)
REMARK    1  A    between atoms: C_12  and  O_24
REMARK    2  A    between atoms: N_13  and  N_15
REMARK    3  A    between atoms: N_15  and  C_16
REMARK    4  A    between atoms: C_16  and  C_17
REMARK    5  A    between atoms: O_24  and  C_25
REMARK    6  A    between atoms: C_25  and  C_26
REMARK    7  A    between atoms: C_26  and  C_28
REMARK                            x       y       z     vdW  Elec       q    Type
REMARK                         _______ _______ _______ _____ _____    ______ ____
ROOT
ATOM      1  O   UNL     1      28.238 -24.149 -14.656  0.00  0.00    -0.350 OA
ATOM      2  N   UNL     1      31.031 -23.908 -14.446  0.00  0.00    -0.281 N 
ATOM      3  N   UNL     1      32.913 -23.927 -12.965  0.00  0.00    -0.300 NA
ATOM      4  N   UNL     1      35.109 -23.386 -13.798  0.00  0.00    -0.299 NA
ATOM      5  C   UNL     1      30.305 -24.879 -13.616  0.00  0.00    +0.125 C 
ATOM      6  C   UNL     1      30.226 -22.787 -14.945  0.00  0.00    +0.125 C 
ATOM      7  C   UNL     1      29.018 -25.297 -14.320  0.00  0.00    +0.164 C 
ATOM      8  C   UNL     1      28.943 -23.316 -15.576  0.00  0.00    +0.164 C 
ATOM      9  C   UNL     1      32.400 -23.735 -14.217  0.00  0.00    +0.184 C 
ATOM     10  C   UNL     1      33.218 -23.368 -15.286  0.00  0.00    +0.153 C 
ATOM     11  C   UNL     1      34.563 -23.208 -15.018  0.00  0.00    +0.195 C 
ATOM     12  C   UNL     1      34.241 -23.739 -12.831  0.00  0.00    +0.312 C 
ATOM     13  N   UNL     1      35.402 -22.835 -16.095  0.00  0.00    -0.238 N 
ATOM     14  H   UNL     1      36.367 -22.711 -15.945  0.00  0.00    +0.170 HD
ENDROOT
BRANCH  13  15
ATOM     15  N   UNL     1      34.888 -22.650 -17.319  0.00  0.00    -0.127 NA
BRANCH  15  16
ATOM     16  C   UNL     1      35.649 -21.945 -18.092  0.00  0.00    +0.138 C 
BRANCH  16  17
ATOM     17  C   UNL     1      35.097 -21.072 -19.143  0.00  0.00    -0.003 C 
ATOM     18  C   UNL     1      35.434 -19.474 -20.900  0.00  0.00    -0.022 C 
ATOM     19  C   UNL     1      35.957 -20.299 -19.905  0.00  0.00    -0.007 C 
ATOM     20  C   UNL     1      33.726 -21.041 -19.348  0.00  0.00    -0.003 C 
ATOM     21  C   UNL     1      34.057 -19.432 -21.119  0.00  0.00    -0.004 C 
ATOM     22  C   UNL     1      33.203 -20.216 -20.343  0.00  0.00    -0.001 C 
ATOM     23  C   UNL     1      36.347 -18.636 -21.731  0.00  0.00    +0.031 C 
ENDBRANCH  16  17
ENDBRANCH  15  16
ENDBRANCH  13  15
BRANCH  12  24
ATOM     24  O   UNL     1      34.764 -23.929 -11.574  0.00  0.00    -0.399 OA
BRANCH  24  25
ATOM     25  C   UNL     1      36.036 -23.350 -11.320  0.00  0.00    +0.229 C 
BRANCH  25  26
ATOM     26  C   UNL     1      37.028 -24.437 -10.924  0.00  0.00    +0.094 C 
BRANCH  26  28
ATOM     27  N   UNL     1      38.877 -24.425 -12.488  0.00  0.00    -0.248 NA
ATOM     28  C   UNL     1      37.736 -25.031 -12.117  0.00  0.00    +0.063 C 
ATOM     29  C   UNL     1      37.182 -26.131 -12.736  0.00  0.00    +0.015 C 
ATOM     30  C   UNL     1      37.858 -26.654 -13.832  0.00  0.00    +0.003 C 
ATOM     31  C   UNL     1      39.506 -24.961 -13.557  0.00  0.00    +0.098 C 
ATOM     32  C   UNL     1      39.043 -26.063 -14.257  0.00  0.00    +0.021 C 
ENDBRANCH  26  28
ENDBRANCH  25  26
ENDBRANCH  24  25
ENDBRANCH  12  24
TORSDOF 7
ENDMDL
MODEL 2
REMARK VINA RESULT:     -10.8      1.598      2.818
REMARK  Name = 10173277
REMARK  7 active torsions:
REMARK  status: ('A' for Active; 'I' for Inactive)
REMARK    1  A    between atoms: C_12  and  O_24
REMARK    2  A    between atoms: N_13  and  N_15
REMARK    3  A    between atoms: N_15  and  C_16
REMARK    4  A    between atoms: C_16  and  C_17
REMARK    5  A    between atoms: O_24  and  C_25
REMARK    6  A    between atoms: C_25  and  C_26
REMARK    7  A    between atoms: C_26  and  C_28
REMARK                            x       y       z     vdW  Elec       q    Type
REMARK                         _______ _______ _______ _____ _____    ______ ____
ROOT
ATOM      1  O   UNL     1      28.248 -23.963 -14.629  0.00  0.00    -0.350 OA
ATOM      2  N   UNL     1      30.879 -23.561 -15.534  0.00  0.00    -0.281 N 
ATOM      3  N   UNL     1      33.201 -23.587 -14.945  0.00  0.00    -0.300 NA
ATOM      4  N   UNL     1      34.855 -22.835 -16.528  0.00  0.00    -0.299 NA
ATOM      5  C   UNL     1      30.576 -24.646 -14.590  0.00  0.00    +0.125 C 
ATOM      6  C   UNL     1      29.914 -22.455 -15.545  0.00  0.00    +0.125 C 
ATOM      7  C   UNL     1      29.125 -25.082 -14.758  0.00  0.00    +0.164 C 
ATOM      8  C   UNL     1      28.498 -23.009 -15.660  0.00  0.00    +0.164 C 
ATOM      9  C   UNL     1      32.219 -23.321 -15.857  0.00  0.00    +0.184 C 
ATOM     10  C   UNL     1      32.523 -22.810 -17.119  0.00  0.00    +0.153 C 
ATOM     11  C   UNL     1      33.856 -22.587 -17.399  0.00  0.00    +0.195 C 
ATOM     12  C   UNL     1      34.463 -23.327 -15.337  0.00  0.00    +0.312 C 
ATOM     13  N   UNL     1      34.177 -22.068 -18.677  0.00  0.00    -0.238 N 
ATOM     14  H   UNL     1      35.116 -21.895 -18.914  0.00  0.00    +0.170 HD
ENDROOT
BRANCH  13  15
ATOM     15  N   UNL     1      33.205 -21.810 -19.564  0.00  0.00    -0.127 NA
BRANCH  15  16
ATOM     16  C   UNL     1      33.092 -20.554 -19.847  0.00  0.00    +0.138 C 
BRANCH  16  17
ATOM     17  C   UNL     1      34.095 -19.844 -20.658  0.00  0.00    -0.003 C 
ATOM     18  C   UNL     1      34.686 -18.669 -22.666  0.00  0.00    -0.022 C 
ATOM     19  C   UNL     1      33.735 -19.342 -21.899  0.00  0.00    -0.007 C 
ATOM     20  C   UNL     1      35.382 -19.693 -20.165  0.00  0.00    -0.003 C 
ATOM     21  C   UNL     1      35.985 -18.509 -22.183  0.00  0.00    -0.004 C 
ATOM     22  C   UNL     1      36.333 -19.020 -20.933  0.00  0.00    -0.001 C 
ATOM     23  C   UNL     1      34.314 -18.122 -24.003  0.00  0.00    +0.031 C 
ENDBRANCH  16  17
ENDBRANCH  15  16
ENDBRANCH  13  15
BRANCH  12  24
ATOM     24  O   UNL     1      35.456 -23.592 -14.424  0.00  0.00    -0.399 OA
BRANCH  24  25
ATOM     25  C   UNL     1      36.752 -23.841 -14.948  0.00  0.00    +0.229 C 
BRANCH  25  26
ATOM     26  C   UNL     1      37.640 -24.443 -13.865  0.00  0.00    +0.094 C 
BRANCH  26  28
ATOM     27  N   UNL     1      36.283 -25.142 -11.984  0.00  0.00    -0.248 NA
ATOM     28  C   UNL     1      37.101 -24.195 -12.477  0.00  0.00    +0.063 C 
ATOM     29  C   UNL     1      37.471 -23.043 -11.819  0.00  0.00    +0.015 C 
ATOM     30  C   UNL     1      36.958 -22.845 -10.542  0.00  0.00    +0.003 C 
ATOM     31  C   UNL     1      35.803 -24.915 -10.742  0.00  0.00    +0.098 C 
ATOM     32  C   UNL     1      36.107 -23.794  -9.986  0.00  0.00    +0.021 C 
ENDBRANCH  26  28
ENDBRANCH  25  26
ENDBRANCH  24  25
ENDBRANCH  12  24
TORSDOF 7
ENDMDL
MODEL 3
REMARK VINA RESULT:     -10.4      2.862      9.023
REMARK  Name = 10173277
REMARK  7 active torsions:
REMARK  status: ('A' for Active; 'I' for Inactive)
REMARK    1  A    between atoms: C_12  and  O_24
REMARK    2  A    between atoms: N_13  and  N_15
REMARK    3  A    between atoms: N_15  and  C_16
REMARK    4  A    between atoms: C_16  and  C_17
REMARK    5  A    between atoms: O_24  and  C_25
REMARK    6  A    between atoms: C_25  and  C_26
REMARK    7  A    between atoms: C_26  and  C_28
REMARK                            x       y       z     vdW  Elec       q    Type
REMARK                         _______ _______ _______ _____ _____    ______ ____
ROOT
ATOM      1  O   UNL     1      37.918 -23.733 -13.102  0.00  0.00    -0.350 OA
ATOM      2  N   UNL     1      36.605 -22.899 -15.443  0.00  0.00    -0.281 N 
ATOM      3  N   UNL     1      36.752 -21.566 -17.428  0.00  0.00    -0.300 NA
ATOM      4  N   UNL     1      34.834 -21.329 -18.868  0.00  0.00    -0.299 NA
ATOM      5  C   UNL     1      38.049 -23.172 -15.459  0.00  0.00    +0.125 C 
ATOM      6  C   UNL     1      36.044 -22.581 -14.125  0.00  0.00    +0.125 C 
ATOM      7  C   UNL     1      38.392 -24.184 -14.371  0.00  0.00    +0.164 C 
ATOM      8  C   UNL     1      36.496 -23.623 -13.108  0.00  0.00    +0.164 C 
ATOM      9  C   UNL     1      36.020 -22.365 -16.597  0.00  0.00    +0.184 C 
ATOM     10  C   UNL     1      34.687 -22.669 -16.874  0.00  0.00    +0.153 C 
ATOM     11  C   UNL     1      34.147 -22.123 -18.021  0.00  0.00    +0.195 C 
ATOM     12  C   UNL     1      36.113 -21.094 -18.516  0.00  0.00    +0.312 C 
ATOM     13  N   UNL     1      32.794 -22.424 -18.313  0.00  0.00    -0.238 N 
ATOM     14  H   UNL     1      32.374 -22.054 -19.122  0.00  0.00    +0.170 HD
ENDROOT
BRANCH  13  15
ATOM     15  N   UNL     1      32.086 -23.210 -17.491  0.00  0.00    -0.127 NA
BRANCH  15  16
ATOM     16  C   UNL     1      31.504 -22.560 -16.536  0.00  0.00    +0.138 C 
BRANCH  16  17
ATOM     17  C   UNL     1      31.199 -23.187 -15.239  0.00  0.00    -0.003 C 
ATOM     18  C   UNL     1      29.908 -24.734 -13.936  0.00  0.00    -0.022 C 
ATOM     19  C   UNL     1      30.196 -24.140 -15.165  0.00  0.00    -0.007 C 
ATOM     20  C   UNL     1      31.921 -22.811 -14.118  0.00  0.00    -0.003 C 
ATOM     21  C   UNL     1      30.626 -24.366 -12.799  0.00  0.00    -0.004 C 
ATOM     22  C   UNL     1      31.633 -23.405 -12.889  0.00  0.00    -0.001 C 
ATOM     23  C   UNL     1      28.832 -25.763 -13.839  0.00  0.00    +0.031 C 
ENDBRANCH  16  17
ENDBRANCH  15  16
ENDBRANCH  13  15
BRANCH  12  24
ATOM     24  O   UNL     1      36.844 -20.287 -19.356  0.00  0.00    -0.399 OA
BRANCH  24  25
ATOM     25  C   UNL     1      36.239 -19.945 -20.595  0.00  0.00    +0.229 C 
BRANCH  25  26
ATOM     26  C   UNL     1      36.194 -18.429 -20.746  0.00  0.00    +0.094 C 
BRANCH  26  28
ATOM     27  N   UNL     1      35.592 -16.695 -22.325  0.00  0.00    -0.248 NA
ATOM     28  C   UNL     1      35.495 -17.999 -22.012  0.00  0.00    +0.063 C 
ATOM     29  C   UNL     1      34.819 -18.946 -22.750  0.00  0.00    +0.015 C 
ATOM     30  C   UNL     1      34.186 -18.518 -23.911  0.00  0.00    +0.003 C 
ATOM     31  C   UNL     1      34.964 -16.316 -23.460  0.00  0.00    +0.098 C 
ATOM     32  C   UNL     1      34.255 -17.179 -24.280  0.00  0.00    +0.021 C 
ENDBRANCH  26  28
ENDBRANCH  25  26
ENDBRANCH  24  25
ENDBRANCH  12  24
TORSDOF 7
ENDMDL
MODEL 4
REMARK VINA RESULT:     -10.3      2.073      8.183
REMARK  Name = 10173277
REMARK  7 active torsions:
REMARK  status: ('A' for Active; 'I' for Inactive)
REMARK    1  A    between atoms: C_12  and  O_24
REMARK    2  A    between atoms: N_13  and  N_15
REMARK    3  A    between atoms: N_15  and  C_16
REMARK    4  A    between atoms: C_16  and  C_17
REMARK    5  A    between atoms: O_24  and  C_25
REMARK    6  A    between atoms: C_25  and  C_26
REMARK    7  A    between atoms: C_26  and  C_28
REMARK                            x       y       z     vdW  Elec       q    Type
REMARK                         _______ _______ _______ _____ _____    ______ ____
ROOT
ATOM      1  O   UNL     1      39.062 -24.287 -12.086  0.00  0.00    -0.350 OA
ATOM      2  N   UNL     1      36.841 -23.778 -13.732  0.00  0.00    -0.281 N 
ATOM      3  N   UNL     1      36.099 -23.242 -15.946  0.00  0.00    -0.300 NA
ATOM      4  N   UNL     1      33.771 -22.777 -16.360  0.00  0.00    -0.299 NA
ATOM      5  C   UNL     1      37.988 -24.539 -14.247  0.00  0.00    +0.125 C 
ATOM      6  C   UNL     1      37.134 -22.902 -12.592  0.00  0.00    +0.125 C 
ATOM      7  C   UNL     1      38.702 -25.233 -13.093  0.00  0.00    +0.164 C 
ATOM      8  C   UNL     1      37.896 -23.683 -11.527  0.00  0.00    +0.164 C 
ATOM      9  C   UNL     1      35.817 -23.441 -14.625  0.00  0.00    +0.184 C 
ATOM     10  C   UNL     1      34.516 -23.316 -14.136  0.00  0.00    +0.153 C 
ATOM     11  C   UNL     1      33.535 -22.982 -15.048  0.00  0.00    +0.195 C 
ATOM     12  C   UNL     1      35.056 -22.921 -16.736  0.00  0.00    +0.312 C 
ATOM     13  N   UNL     1      32.211 -22.852 -14.563  0.00  0.00    -0.238 N 
ATOM     14  H   UNL     1      31.483 -22.616 -15.182  0.00  0.00    +0.170 HD
ENDROOT
BRANCH  13  15
ATOM     15  N   UNL     1      31.945 -23.050 -13.264  0.00  0.00    -0.127 NA
BRANCH  15  16
ATOM     16  C   UNL     1      30.791 -23.594 -13.056  0.00  0.00    +0.138 C 
BRANCH  16  17
ATOM     17  C   UNL     1      29.847 -23.865 -14.154  0.00  0.00    -0.003 C 
ATOM     18  C   UNL     1      28.089 -23.124 -15.609  0.00  0.00    -0.022 C 
ATOM     19  C   UNL     1      28.981 -22.866 -14.568  0.00  0.00    -0.007 C 
ATOM     20  C   UNL     1      29.845 -25.116 -14.752  0.00  0.00    -0.003 C 
ATOM     21  C   UNL     1      28.074 -24.377 -16.220  0.00  0.00    -0.004 C 
ATOM     22  C   UNL     1      28.952 -25.373 -15.792  0.00  0.00    -0.001 C 
ATOM     23  C   UNL     1      27.150 -22.059 -16.067  0.00  0.00    +0.031 C 
ENDBRANCH  16  17
ENDBRANCH  15  16
ENDBRANCH  13  15
BRANCH  12  24
ATOM     24  O   UNL     1      35.333 -22.719 -18.068  0.00  0.00    -0.399 OA
BRANCH  24  25
ATOM     25  C   UNL     1      35.641 -21.389 -18.459  0.00  0.00    +0.229 C 
BRANCH  25  26
ATOM     26  C   UNL     1      34.639 -20.914 -19.505  0.00  0.00    +0.094 C 
BRANCH  26  28
ATOM     27  N   UNL     1      36.485 -19.495 -20.173  0.00  0.00    -0.248 NA
ATOM     28  C   UNL     1      35.236 -19.904 -20.455  0.00  0.00    +0.063 C 
ATOM     29  C   UNL     1      34.481 -19.475 -21.524  0.00  0.00    +0.015 C 
ATOM     30  C   UNL     1      35.058 -18.545 -22.381  0.00  0.00    +0.003 C 
ATOM     31  C   UNL     1      37.014 -18.591 -21.027  0.00  0.00    +0.098 C 
ATOM     32  C   UNL     1      36.349 -18.089 -22.134  0.00  0.00    +0.021 C 
ENDBRANCH  26  28
ENDBRANCH  25  26
ENDBRANCH  24  25
ENDBRANCH  12  24
TORSDOF 7
ENDMDL
MODEL 5
REMARK VINA RESULT:      -9.4      2.276      6.060
REMARK  Name = 10173277
REMARK  7 active torsions:
REMARK  status: ('A' for Active; 'I' for Inactive)
REMARK    1  A    between atoms: C_12  and  O_24
REMARK    2  A    between atoms: N_13  and  N_15
REMARK    3  A    between atoms: N_15  and  C_16
REMARK    4  A    between atoms: C_16  and  C_17
REMARK    5  A    between atoms: O_24  and  C_25
REMARK    6  A    between atoms: C_25  and  C_26
REMARK    7  A    between atoms: C_26  and  C_28
REMARK                            x       y       z     vdW  Elec       q    Type
REMARK                         _______ _______ _______ _____ _____    ______ ____
ROOT
ATOM      1  O   UNL     1      35.090 -21.064 -19.747  0.00  0.00    -0.350 OA
ATOM      2  N   UNL     1      34.937 -22.344 -17.250  0.00  0.00    -0.281 N 
ATOM      3  N   UNL     1      35.902 -23.998 -15.810  0.00  0.00    -0.300 NA
ATOM      4  N   UNL     1      34.831 -24.556 -13.725  0.00  0.00    -0.299 NA
ATOM      5  C   UNL     1      36.243 -22.024 -17.840  0.00  0.00    +0.125 C 
ATOM      6  C   UNL     1      33.828 -22.448 -18.205  0.00  0.00    +0.125 C 
ATOM      7  C   UNL     1      36.105 -20.825 -18.772  0.00  0.00    +0.164 C 
ATOM      8  C   UNL     1      33.820 -21.227 -19.118  0.00  0.00    +0.164 C 
ATOM      9  C   UNL     1      34.911 -23.094 -16.068  0.00  0.00    +0.184 C 
ATOM     10  C   UNL     1      33.862 -22.894 -15.171  0.00  0.00    +0.153 C 
ATOM     11  C   UNL     1      33.873 -23.653 -14.017  0.00  0.00    +0.195 C 
ATOM     12  C   UNL     1      35.801 -24.677 -14.651  0.00  0.00    +0.312 C 
ATOM     13  N   UNL     1      32.812 -23.460 -13.099  0.00  0.00    -0.238 N 
ATOM     14  H   UNL     1      32.785 -23.982 -12.265  0.00  0.00    +0.170 HD
ENDROOT
BRANCH  13  15
ATOM     15  N   UNL     1      31.846 -22.569 -13.362  0.00  0.00    -0.127 NA
BRANCH  15  16
ATOM     16  C   UNL     1      30.655 -23.036 -13.170  0.00  0.00    +0.138 C 
BRANCH  16  17
ATOM     17  C   UNL     1      29.785 -23.437 -14.289  0.00  0.00    -0.003 C 
ATOM     18  C   UNL     1      28.022 -22.922 -15.833  0.00  0.00    -0.022 C 
ATOM     19  C   UNL     1      28.845 -22.542 -14.773  0.00  0.00    -0.007 C 
ATOM     20  C   UNL     1      29.925 -24.703 -14.836  0.00  0.00    -0.003 C 
ATOM     21  C   UNL     1      28.151 -24.192 -16.395  0.00  0.00    -0.004 C 
ATOM     22  C   UNL     1      29.102 -25.083 -15.897  0.00  0.00    -0.001 C 
ATOM     23  C   UNL     1      27.005 -21.970 -16.367  0.00  0.00    +0.031 C 
ENDBRANCH  16  17
ENDBRANCH  15  16
ENDBRANCH  13  15
BRANCH  12  24
ATOM     24  O   UNL     1      36.795 -25.590 -14.385  0.00  0.00    -0.399 OA
BRANCH  24  25
ATOM     25  C   UNL     1      38.105 -25.070 -14.209  0.00  0.00    +0.229 C 
BRANCH  25  26
ATOM     26  C   UNL     1      38.565 -25.306 -12.775  0.00  0.00    +0.094 C 
BRANCH  26  28
ATOM     27  N   UNL     1      36.755 -25.527 -11.181  0.00  0.00    -0.248 NA
ATOM     28  C   UNL     1      37.631 -24.689 -11.763  0.00  0.00    +0.063 C 
ATOM     29  C   UNL     1      37.732 -23.340 -11.506  0.00  0.00    +0.015 C 
ATOM     30  C   UNL     1      36.857 -22.802 -10.568  0.00  0.00    +0.003 C 
ATOM     31  C   UNL     1      35.921 -24.969 -10.276  0.00  0.00    +0.098 C 
ATOM     32  C   UNL     1      35.932 -23.625  -9.937  0.00  0.00    +0.021 C 
ENDBRANCH  26  28
ENDBRANCH  25  26
ENDBRANCH  24  25
ENDBRANCH  12  24
TORSDOF 7
ENDMDL
