MODEL 1
REMARK VINA RESULT:     -12.1      0.000      0.000
REMARK  Name = 24963046
REMARK  6 active torsions:
REMARK  status: ('A' for Active; 'I' for Inactive)
REMARK    1  A    between atoms: N_1  and  C_27
REMARK    2  A    between atoms: C_4  and  C_16
REMARK    3  A    between atoms: C_13  and  C_22
REMARK    4  A    between atoms: N_21  and  C_24
REMARK    5  A    between atoms: C_27  and  C_28
REMARK    6  A    between atoms: C_28  and  N_30
REMARK                            x       y       z     vdW  Elec       q    Type
REMARK                         _______ _______ _______ _____ _____    ______ ____
ROOT
ATOM      1  N   UNL     1      35.394 -22.927 -16.509  0.00  0.00    -0.270 N 
ATOM      2  N   UNL     1      36.093 -21.359 -18.076  0.00  0.00    -0.338 NA
ATOM      3  N   UNL     1      33.819 -22.157 -18.028  0.00  0.00    -0.170 NA
ATOM      4  C   UNL     1      35.211 -18.893 -21.319  0.00  0.00    -0.000 C 
ATOM      5  C   UNL     1      34.215 -19.694 -20.767  0.00  0.00    +0.004 C 
ATOM      6  C   UNL     1      34.509 -20.527 -19.673  0.00  0.00    +0.050 C 
ATOM      7  C   UNL     1      35.086 -22.112 -17.586  0.00  0.00    +0.145 C 
ATOM      8  C   UNL     1      36.493 -18.924 -20.781  0.00  0.00    +0.003 C 
ATOM      9  C   UNL     1      35.801 -20.567 -19.122  0.00  0.00    +0.146 C 
ATOM     10  C   UNL     1      36.777 -19.755 -19.693  0.00  0.00    +0.033 C 
ATOM     11  C   UNL     1      33.561 -21.351 -19.076  0.00  0.00    +0.114 C 
ATOM     12  H   UNL     1      34.677 -23.487 -16.130  0.00  0.00    +0.159 HD
ENDROOT
BRANCH   4  16
ATOM     13  C   UNL     1      34.528 -15.813 -23.310  0.00  0.00    +0.053 C 
ATOM     14  C   UNL     1      34.814 -16.660 -22.239  0.00  0.00    +0.004 C 
ATOM     15  C   UNL     1      34.343 -16.342 -24.586  0.00  0.00    +0.004 C 
ATOM     16  C   UNL     1      34.914 -18.035 -22.444  0.00  0.00    -0.004 C 
ATOM     17  C   UNL     1      34.728 -18.564 -23.723  0.00  0.00    -0.022 C 
ATOM     18  C   UNL     1      34.443 -17.717 -24.794  0.00  0.00    -0.004 C 
ATOM     19  C   UNL     1      34.828 -20.034 -23.982  0.00  0.00    +0.031 C 
BRANCH  13  22
ATOM     20  O   UNL     1      34.974 -13.841 -22.117  0.00  0.00    -0.270 OA
ATOM     21  N   UNL     1      33.668 -13.649 -24.022  0.00  0.00    -0.302 N 
ATOM     22  C   UNL     1      34.424 -14.378 -23.095  0.00  0.00    +0.246 C 
ATOM     23  H   UNL     1      33.258 -14.133 -24.775  0.00  0.00    +0.150 HD
BRANCH  21  24
ATOM     24  C   UNL     1      33.460 -12.230 -23.928  0.00  0.00    +0.072 C 
ATOM     25  C   UNL     1      34.576 -11.262 -24.188  0.00  0.00    +0.021 C 
ATOM     26  C   UNL     1      33.432 -11.368 -25.155  0.00  0.00    +0.021 C 
ENDBRANCH  21  24
ENDBRANCH  13  22
ENDBRANCH   4  16
BRANCH   1  27
ATOM     27  C   UNL     1      36.704 -23.001 -15.908  0.00  0.00    +0.075 C 
BRANCH  27  28
ATOM     28  C   UNL     1      36.569 -23.120 -14.395  0.00  0.00    -0.055 C 
BRANCH  28  30
ATOM     29  O   UNL     1      38.589 -26.798 -14.333  0.00  0.00    -0.358 OA
ATOM     30  N   UNL     1      37.248 -24.323 -13.917  0.00  0.00    +0.391 N 
ATOM     31  C   UNL     1      38.630 -24.373 -14.414  0.00  0.00    -0.045 C 
ATOM     32  C   UNL     1      36.520 -25.531 -14.328  0.00  0.00    -0.045 C 
ATOM     33  C   UNL     1      39.314 -25.642 -13.912  0.00  0.00    +0.119 C 
ATOM     34  C   UNL     1      37.253 -26.772 -13.827  0.00  0.00    +0.119 C 
ATOM     35  H   UNL     1      37.269 -24.285 -12.898  0.00  0.00    -0.079 HD
ENDBRANCH  28  30
ENDBRANCH  27  28
ENDBRANCH   1  27
TORSDOF 6
ENDMDL
MODEL 2
REMARK VINA RESULT:     -11.8      1.273      1.472
REMARK  Name = 24963046
REMARK  6 active torsions:
REMARK  status: ('A' for Active; 'I' for Inactive)
REMARK    1  A    between atoms: N_1  and  C_27
REMARK    2  A    between atoms: C_4  and  C_16
REMARK    3  A    between atoms: C_13  and  C_22
REMARK    4  A    between atoms: N_21  and  C_24
REMARK    5  A    between atoms: C_27  and  C_28
REMARK    6  A    between atoms: C_28  and  N_30
REMARK                            x       y       z     vdW  Elec       q    Type
REMARK                         _______ _______ _______ _____ _____    ______ ____
ROOT
ATOM      1  N   UNL     1      33.825 -23.595 -16.429  0.00  0.00    -0.270 N 
ATOM      2  N   UNL     1      34.962 -22.171 -17.871  0.00  0.00    -0.338 NA
ATOM      3  N   UNL     1      32.557 -22.319 -17.894  0.00  0.00    -0.170 NA
ATOM      4  C   UNL     1      34.866 -19.334 -20.924  0.00  0.00    -0.000 C 
ATOM      5  C   UNL     1      33.677 -19.869 -20.438  0.00  0.00    +0.004 C 
ATOM      6  C   UNL     1      33.705 -20.826 -19.409  0.00  0.00    +0.050 C 
ATOM      7  C   UNL     1      33.777 -22.653 -17.444  0.00  0.00    +0.145 C 
ATOM      8  C   UNL     1      36.078 -19.751 -20.383  0.00  0.00    +0.003 C 
ATOM      9  C   UNL     1      34.923 -21.256 -18.856  0.00  0.00    +0.146 C 
ATOM     10  C   UNL     1      36.097 -20.703 -19.360  0.00  0.00    +0.033 C 
ATOM     11  C   UNL     1      32.554 -21.400 -18.879  0.00  0.00    +0.114 C 
ATOM     12  H   UNL     1      32.974 -23.963 -16.097  0.00  0.00    +0.159 HD
ENDROOT
BRANCH   4  16
ATOM     13  C   UNL     1      34.793 -16.029 -22.653  0.00  0.00    +0.053 C 
ATOM     14  C   UNL     1      34.817 -16.996 -21.648  0.00  0.00    +0.004 C 
ATOM     15  C   UNL     1      34.795 -16.415 -23.992  0.00  0.00    +0.004 C 
ATOM     16  C   UNL     1      34.841 -18.349 -21.983  0.00  0.00    -0.004 C 
ATOM     17  C   UNL     1      34.842 -18.736 -23.324  0.00  0.00    -0.022 C 
ATOM     18  C   UNL     1      34.820 -17.769 -24.329  0.00  0.00    -0.004 C 
ATOM     19  C   UNL     1      34.869 -20.177 -23.722  0.00  0.00    +0.031 C 
BRANCH  13  22
ATOM     20  O   UNL     1      35.035 -14.245 -21.147  0.00  0.00    -0.270 OA
ATOM     21  N   UNL     1      34.413 -13.717 -23.316  0.00  0.00    -0.302 N 
ATOM     22  C   UNL     1      34.768 -14.617 -22.304  0.00  0.00    +0.246 C 
ATOM     23  H   UNL     1      34.213 -14.075 -24.212  0.00  0.00    +0.150 HD
BRANCH  21  24
ATOM     24  C   UNL     1      34.325 -12.297 -23.115  0.00  0.00    +0.072 C 
ATOM     25  C   UNL     1      33.695 -11.404 -24.143  0.00  0.00    +0.021 C 
ATOM     26  C   UNL     1      33.012 -11.634 -22.826  0.00  0.00    +0.021 C 
ENDBRANCH  21  24
ENDBRANCH  13  22
ENDBRANCH   4  16
BRANCH   1  27
ATOM     27  C   UNL     1      35.050 -24.067 -15.830  0.00  0.00    +0.075 C 
BRANCH  27  28
ATOM     28  C   UNL     1      35.162 -23.537 -14.406  0.00  0.00    -0.055 C 
BRANCH  28  30
ATOM     29  O   UNL     1      38.936 -24.239 -12.709  0.00  0.00    -0.358 OA
ATOM     30  N   UNL     1      36.271 -24.184 -13.709  0.00  0.00    +0.391 N 
ATOM     31  C   UNL     1      36.663 -23.410 -12.522  0.00  0.00    -0.045 C 
ATOM     32  C   UNL     1      37.424 -24.351 -14.604  0.00  0.00    -0.045 C 
ATOM     33  C   UNL     1      37.829 -24.097 -11.818  0.00  0.00    +0.119 C 
ATOM     34  C   UNL     1      38.572 -25.018 -13.850  0.00  0.00    +0.119 C 
ATOM     35  H   UNL     1      35.955 -25.105 -13.406  0.00  0.00    -0.079 HD
ENDBRANCH  28  30
ENDBRANCH  27  28
ENDBRANCH   1  27
TORSDOF 6
ENDMDL
MODEL 3
REMARK VINA RESULT:     -11.5      3.326     11.531
REMARK  Name = 24963046
REMARK  6 active torsions:
REMARK  status: ('A' for Active; 'I' for Inactive)
REMARK    1  A    between atoms: N_1  and  C_27
REMARK    2  A    between atoms: C_4  and  C_16
REMARK    3  A    between atoms: C_13  and  C_22
REMARK    4  A    between atoms: N_21  and  C_24
REMARK    5  A    between atoms: C_27  and  C_28
REMARK    6  A    between atoms: C_28  and  N_30
REMARK                            x       y       z     vdW  Elec       q    Type
REMARK                         _______ _______ _______ _____ _____    ______ ____
ROOT
ATOM      1  N   UNL     1      33.554 -13.347 -25.608  0.00  0.00    -0.270 N 
ATOM      2  N   UNL     1      34.248 -14.349 -23.629  0.00  0.00    -0.338 NA
ATOM      3  N   UNL     1      33.702 -15.661 -25.576  0.00  0.00    -0.170 NA
ATOM      4  C   UNL     1      35.140 -17.811 -21.484  0.00  0.00    -0.000 C 
ATOM      5  C   UNL     1      34.722 -17.905 -22.809  0.00  0.00    +0.004 C 
ATOM      6  C   UNL     1      34.420 -16.739 -23.535  0.00  0.00    +0.050 C 
ATOM      7  C   UNL     1      33.847 -14.506 -24.908  0.00  0.00    +0.145 C 
ATOM      8  C   UNL     1      35.257 -16.559 -20.889  0.00  0.00    +0.003 C 
ATOM      9  C   UNL     1      34.534 -15.470 -22.944  0.00  0.00    +0.146 C 
ATOM     10  C   UNL     1      34.955 -15.406 -21.618  0.00  0.00    +0.033 C 
ATOM     11  C   UNL     1      33.997 -16.764 -24.860  0.00  0.00    +0.114 C 
ATOM     12  H   UNL     1      33.260 -13.432 -26.544  0.00  0.00    +0.159 HD
ENDROOT
BRANCH   4  16
ATOM     13  C   UNL     1      34.682 -20.919 -19.473  0.00  0.00    +0.053 C 
ATOM     14  C   UNL     1      34.406 -19.762 -20.201  0.00  0.00    +0.004 C 
ATOM     15  C   UNL     1      36.002 -21.322 -19.279  0.00  0.00    +0.004 C 
ATOM     16  C   UNL     1      35.451 -19.007 -20.733  0.00  0.00    -0.004 C 
ATOM     17  C   UNL     1      36.772 -19.410 -20.538  0.00  0.00    -0.022 C 
ATOM     18  C   UNL     1      37.048 -20.568 -19.811  0.00  0.00    -0.004 C 
ATOM     19  C   UNL     1      37.919 -18.627 -21.093  0.00  0.00    +0.031 C 
BRANCH  13  22
ATOM     20  O   UNL     1      32.460 -21.672 -19.431  0.00  0.00    -0.270 OA
ATOM     21  N   UNL     1      33.877 -22.478 -17.785  0.00  0.00    -0.302 N 
ATOM     22  C   UNL     1      33.593 -21.707 -18.918  0.00  0.00    +0.246 C 
ATOM     23  H   UNL     1      34.795 -22.463 -17.427  0.00  0.00    +0.150 HD
BRANCH  21  24
ATOM     24  C   UNL     1      32.898 -23.290 -17.115  0.00  0.00    +0.072 C 
ATOM     25  C   UNL     1      32.882 -23.414 -15.620  0.00  0.00    +0.021 C 
ATOM     26  C   UNL     1      31.786 -22.669 -16.324  0.00  0.00    +0.021 C 
ENDBRANCH  21  24
ENDBRANCH  13  22
ENDBRANCH   4  16
BRANCH   1  27
ATOM     27  C   UNL     1      33.657 -12.022 -25.044  0.00  0.00    +0.075 C 
BRANCH  27  28
ATOM     28  C   UNL     1      33.120 -12.029 -23.618  0.00  0.00    -0.055 C 
BRANCH  28  30
ATOM     29  O   UNL     1      33.206  -8.379 -21.548  0.00  0.00    -0.358 OA
ATOM     30  N   UNL     1      32.800 -10.669 -23.189  0.00  0.00    +0.391 N 
ATOM     31  C   UNL     1      33.950  -9.775 -23.389  0.00  0.00    -0.045 C 
ATOM     32  C   UNL     1      32.387 -10.650 -21.779  0.00  0.00    -0.045 C 
ATOM     33  C   UNL     1      33.597  -8.366 -22.923  0.00  0.00    +0.119 C 
ATOM     34  C   UNL     1      32.069  -9.220 -21.352  0.00  0.00    +0.119 C 
ATOM     35  H   UNL     1      32.025 -10.335 -23.762  0.00  0.00    -0.079 HD
ENDBRANCH  28  30
ENDBRANCH  27  28
ENDBRANCH   1  27
TORSDOF 6
ENDMDL
MODEL 4
REMARK VINA RESULT:     -11.2      1.990     11.469
REMARK  Name = 24963046
REMARK  6 active torsions:
REMARK  status: ('A' for Active; 'I' for Inactive)
REMARK    1  A    between atoms: N_1  and  C_27
REMARK    2  A    between atoms: C_4  and  C_16
REMARK    3  A    between atoms: C_13  and  C_22
REMARK    4  A    between atoms: N_21  and  C_24
REMARK    5  A    between atoms: C_27  and  C_28
REMARK    6  A    between atoms: C_28  and  N_30
REMARK                            x       y       z     vdW  Elec       q    Type
REMARK                         _______ _______ _______ _____ _____    ______ ____
ROOT
ATOM      1  N   UNL     1      35.683 -18.044 -22.954  0.00  0.00    -0.270 N 
ATOM      2  N   UNL     1      34.636 -19.429 -21.409  0.00  0.00    -0.338 NA
ATOM      3  N   UNL     1      36.971 -18.865 -21.209  0.00  0.00    -0.170 NA
ATOM      4  C   UNL     1      34.851 -21.757 -17.958  0.00  0.00    -0.000 C 
ATOM      5  C   UNL     1      35.985 -21.095 -18.419  0.00  0.00    +0.004 C 
ATOM      6  C   UNL     1      35.917 -20.310 -19.583  0.00  0.00    +0.050 C 
ATOM      7  C   UNL     1      35.769 -18.814 -21.806  0.00  0.00    +0.145 C 
ATOM      8  C   UNL     1      33.654 -21.633 -18.655  0.00  0.00    +0.003 C 
ATOM      9  C   UNL     1      34.713 -20.178 -20.296  0.00  0.00    +0.146 C 
ATOM     10  C   UNL     1      33.594 -20.850 -19.811  0.00  0.00    +0.033 C 
ATOM     11  C   UNL     1      37.013 -19.624 -20.096  0.00  0.00    +0.114 C 
ATOM     12  H   UNL     1      36.495 -17.582 -23.266  0.00  0.00    +0.159 HD
ENDROOT
BRANCH   4  16
ATOM     13  C   UNL     1      36.232 -23.499 -14.962  0.00  0.00    +0.053 C 
ATOM     14  C   UNL     1      36.144 -22.723 -16.118  0.00  0.00    +0.004 C 
ATOM     15  C   UNL     1      35.092 -24.119 -14.451  0.00  0.00    +0.004 C 
ATOM     16  C   UNL     1      34.917 -22.567 -16.762  0.00  0.00    -0.004 C 
ATOM     17  C   UNL     1      33.777 -23.188 -16.250  0.00  0.00    -0.022 C 
ATOM     18  C   UNL     1      33.864 -23.964 -15.094  0.00  0.00    -0.004 C 
ATOM     19  C   UNL     1      32.444 -23.043 -16.913  0.00  0.00    +0.031 C 
BRANCH  13  22
ATOM     20  O   UNL     1      37.743 -23.074 -13.218  0.00  0.00    -0.270 OA
ATOM     21  N   UNL     1      38.458 -24.485 -14.912  0.00  0.00    -0.302 N 
ATOM     22  C   UNL     1      37.511 -23.662 -14.290  0.00  0.00    +0.246 C 
ATOM     23  H   UNL     1      38.212 -24.922 -15.760  0.00  0.00    +0.150 HD
BRANCH  21  24
ATOM     24  C   UNL     1      39.770 -24.723 -14.377  0.00  0.00    +0.072 C 
ATOM     25  C   UNL     1      39.999 -25.748 -13.306  0.00  0.00    +0.021 C 
ATOM     26  C   UNL     1      40.520 -25.982 -14.694  0.00  0.00    +0.021 C 
ENDBRANCH  21  24
ENDBRANCH  13  22
ENDBRANCH   4  16
BRANCH   1  27
ATOM     27  C   UNL     1      34.470 -17.878 -23.719  0.00  0.00    +0.075 C 
BRANCH  27  28
ATOM     28  C   UNL     1      34.581 -16.635 -24.593  0.00  0.00    -0.055 C 
BRANCH  28  30
ATOM     29  O   UNL     1      34.008 -12.720 -23.192  0.00  0.00    -0.358 OA
ATOM     30  N   UNL     1      34.018 -15.476 -23.901  0.00  0.00    +0.391 N 
ATOM     31  C   UNL     1      33.623 -14.437 -24.863  0.00  0.00    -0.045 C 
ATOM     32  C   UNL     1      34.978 -14.929 -22.934  0.00  0.00    -0.045 C 
ATOM     33  C   UNL     1      33.050 -13.234 -24.119  0.00  0.00    +0.119 C 
ATOM     34  C   UNL     1      34.373 -13.715 -22.234  0.00  0.00    +0.119 C 
ATOM     35  H   UNL     1      33.187 -15.787 -23.398  0.00  0.00    -0.079 HD
ENDBRANCH  28  30
ENDBRANCH  27  28
ENDBRANCH   1  27
TORSDOF 6
ENDMDL
MODEL 5
REMARK VINA RESULT:     -10.9      3.210     11.227
REMARK  Name = 24963046
REMARK  6 active torsions:
REMARK  status: ('A' for Active; 'I' for Inactive)
REMARK    1  A    between atoms: N_1  and  C_27
REMARK    2  A    between atoms: C_4  and  C_16
REMARK    3  A    between atoms: C_13  and  C_22
REMARK    4  A    between atoms: N_21  and  C_24
REMARK    5  A    between atoms: C_27  and  C_28
REMARK    6  A    between atoms: C_28  and  N_30
REMARK                            x       y       z     vdW  Elec       q    Type
REMARK                         _______ _______ _______ _____ _____    ______ ____
ROOT
ATOM      1  N   UNL     1      34.239 -19.029 -22.514  0.00  0.00    -0.270 N 
ATOM      2  N   UNL     1      35.340 -20.012 -20.718  0.00  0.00    -0.338 NA
ATOM      3  N   UNL     1      32.938 -20.081 -20.906  0.00  0.00    -0.170 NA
ATOM      4  C   UNL     1      35.172 -22.145 -17.141  0.00  0.00    -0.000 C 
ATOM      5  C   UNL     1      33.996 -21.834 -17.818  0.00  0.00    +0.004 C 
ATOM      6  C   UNL     1      34.049 -21.113 -19.024  0.00  0.00    +0.050 C 
ATOM      7  C   UNL     1      34.167 -19.739 -21.326  0.00  0.00    +0.145 C 
ATOM      8  C   UNL     1      36.394 -21.742 -17.668  0.00  0.00    +0.003 C 
ATOM      9  C   UNL     1      35.278 -20.700 -19.565  0.00  0.00    +0.146 C 
ATOM     10  C   UNL     1      36.438 -21.027 -18.868  0.00  0.00    +0.033 C 
ATOM     11  C   UNL     1      32.912 -20.770 -19.749  0.00  0.00    +0.114 C 
ATOM     12  H   UNL     1      33.397 -18.817 -22.979  0.00  0.00    +0.159 HD
ENDROOT
BRANCH   4  16
ATOM     13  C   UNL     1      33.810 -23.989 -14.198  0.00  0.00    +0.053 C 
ATOM     14  C   UNL     1      33.882 -23.275 -15.394  0.00  0.00    +0.004 C 
ATOM     15  C   UNL     1      34.977 -24.314 -13.508  0.00  0.00    +0.004 C 
ATOM     16  C   UNL     1      35.122 -22.885 -15.900  0.00  0.00    -0.004 C 
ATOM     17  C   UNL     1      36.290 -23.210 -15.209  0.00  0.00    -0.022 C 
ATOM     18  C   UNL     1      36.218 -23.925 -14.013  0.00  0.00    -0.004 C 
ATOM     19  C   UNL     1      37.637 -22.809 -15.720  0.00  0.00    +0.031 C 
BRANCH  13  22
ATOM     20  O   UNL     1      32.443 -25.112 -12.656  0.00  0.00    -0.270 OA
ATOM     21  N   UNL     1      31.381 -23.964 -14.364  0.00  0.00    -0.302 N 
ATOM     22  C   UNL     1      32.517 -24.396 -13.670  0.00  0.00    +0.246 C 
ATOM     23  H   UNL     1      31.506 -23.398 -15.161  0.00  0.00    +0.150 HD
BRANCH  21  24
ATOM     24  C   UNL     1      30.040 -24.304 -13.974  0.00  0.00    +0.072 C 
ATOM     25  C   UNL     1      28.929 -24.364 -14.981  0.00  0.00    +0.021 C 
ATOM     26  C   UNL     1      29.436 -25.625 -14.344  0.00  0.00    +0.021 C 
ENDBRANCH  21  24
ENDBRANCH  13  22
ENDBRANCH   4  16
BRANCH   1  27
ATOM     27  C   UNL     1      35.476 -18.584 -23.108  0.00  0.00    +0.075 C 
BRANCH  27  28
ATOM     28  C   UNL     1      35.720 -17.123 -22.750  0.00  0.00    -0.055 C 
BRANCH  28  30
ATOM     29  O   UNL     1      33.667 -14.012 -24.678  0.00  0.00    -0.358 OA
ATOM     30  N   UNL     1      34.642 -16.285 -23.270  0.00  0.00    +0.391 N 
ATOM     31  C   UNL     1      34.705 -16.205 -24.736  0.00  0.00    -0.045 C 
ATOM     32  C   UNL     1      34.702 -14.937 -22.688  0.00  0.00    -0.045 C 
ATOM     33  C   UNL     1      33.578 -15.316 -25.254  0.00  0.00    +0.119 C 
ATOM     34  C   UNL     1      33.574 -14.079 -23.254  0.00  0.00    +0.119 C 
ATOM     35  H   UNL     1      33.756 -16.717 -23.005  0.00  0.00    -0.079 HD
ENDBRANCH  28  30
ENDBRANCH  27  28
ENDBRANCH   1  27
TORSDOF 6
ENDMDL
MODEL 6
REMARK VINA RESULT:     -10.8      2.299      2.791
REMARK  Name = 24963046
REMARK  6 active torsions:
REMARK  status: ('A' for Active; 'I' for Inactive)
REMARK    1  A    between atoms: N_1  and  C_27
REMARK    2  A    between atoms: C_4  and  C_16
REMARK    3  A    between atoms: C_13  and  C_22
REMARK    4  A    between atoms: N_21  and  C_24
REMARK    5  A    between atoms: C_27  and  C_28
REMARK    6  A    between atoms: C_28  and  N_30
REMARK                            x       y       z     vdW  Elec       q    Type
REMARK                         _______ _______ _______ _____ _____    ______ ____
ROOT
ATOM      1  N   UNL     1      33.959 -23.241 -16.828  0.00  0.00    -0.270 N 
ATOM      2  N   UNL     1      35.034 -21.738 -18.238  0.00  0.00    -0.338 NA
ATOM      3  N   UNL     1      32.652 -22.085 -18.356  0.00  0.00    -0.170 NA
ATOM      4  C   UNL     1      34.830 -18.940 -21.322  0.00  0.00    -0.000 C 
ATOM      5  C   UNL     1      33.670 -19.569 -20.879  0.00  0.00    +0.004 C 
ATOM      6  C   UNL     1      33.735 -20.513 -19.839  0.00  0.00    +0.050 C 
ATOM      7  C   UNL     1      33.876 -22.313 -17.854  0.00  0.00    +0.145 C 
ATOM      8  C   UNL     1      36.049 -19.252 -20.728  0.00  0.00    +0.003 C 
ATOM      9  C   UNL     1      34.960 -20.837 -19.233  0.00  0.00    +0.146 C 
ATOM     10  C   UNL     1      36.104 -20.192 -19.695  0.00  0.00    +0.033 C 
ATOM     11  C   UNL     1      32.614 -21.176 -19.351  0.00  0.00    +0.114 C 
ATOM     12  H   UNL     1      33.128 -23.676 -16.527  0.00  0.00    +0.159 HD
ENDROOT
BRANCH   4  16
ATOM     13  C   UNL     1      34.665 -15.658 -23.087  0.00  0.00    +0.053 C 
ATOM     14  C   UNL     1      34.725 -16.612 -22.072  0.00  0.00    +0.004 C 
ATOM     15  C   UNL     1      34.650 -16.060 -24.422  0.00  0.00    +0.004 C 
ATOM     16  C   UNL     1      34.768 -17.969 -22.391  0.00  0.00    -0.004 C 
ATOM     17  C   UNL     1      34.752 -18.371 -23.728  0.00  0.00    -0.022 C 
ATOM     18  C   UNL     1      34.693 -17.416 -24.743  0.00  0.00    -0.004 C 
ATOM     19  C   UNL     1      34.798 -19.817 -24.109  0.00  0.00    +0.031 C 
BRANCH  13  22
ATOM     20  O   UNL     1      35.126 -13.824 -21.697  0.00  0.00    -0.270 OA
ATOM     21  N   UNL     1      33.971 -13.395 -23.660  0.00  0.00    -0.302 N 
ATOM     22  C   UNL     1      34.621 -14.243 -22.754  0.00  0.00    +0.246 C 
ATOM     23  H   UNL     1      33.591 -13.789 -24.479  0.00  0.00    +0.150 HD
BRANCH  21  24
ATOM     24  C   UNL     1      33.830 -11.980 -23.455  0.00  0.00    +0.072 C 
ATOM     25  C   UNL     1      34.728 -11.001 -24.152  0.00  0.00    +0.021 C 
ATOM     26  C   UNL     1      33.279 -11.092 -24.530  0.00  0.00    +0.021 C 
ENDBRANCH  21  24
ENDBRANCH  13  22
ENDBRANCH   4  16
BRANCH   1  27
ATOM     27  C   UNL     1      35.193 -23.605 -16.175  0.00  0.00    +0.075 C 
BRANCH  27  28
ATOM     28  C   UNL     1      34.950 -23.784 -14.682  0.00  0.00    -0.055 C 
BRANCH  28  30
ATOM     29  O   UNL     1      31.240 -23.799 -12.719  0.00  0.00    -0.358 OA
ATOM     30  N   UNL     1      33.521 -23.941 -14.415  0.00  0.00    +0.391 N 
ATOM     31  C   UNL     1      32.915 -22.652 -14.049  0.00  0.00    -0.045 C 
ATOM     32  C   UNL     1      33.294 -24.926 -13.349  0.00  0.00    -0.045 C 
ATOM     33  C   UNL     1      31.428 -22.843 -13.763  0.00  0.00    +0.119 C 
ATOM     34  C   UNL     1      31.798 -25.063 -13.082  0.00  0.00    +0.119 C 
ATOM     35  H   UNL     1      33.079 -24.276 -15.271  0.00  0.00    -0.079 HD
ENDBRANCH  28  30
ENDBRANCH  27  28
ENDBRANCH   1  27
TORSDOF 6
ENDMDL
MODEL 7
REMARK VINA RESULT:     -10.4      3.317     11.163
REMARK  Name = 24963046
REMARK  6 active torsions:
REMARK  status: ('A' for Active; 'I' for Inactive)
REMARK    1  A    between atoms: N_1  and  C_27
REMARK    2  A    between atoms: C_4  and  C_16
REMARK    3  A    between atoms: C_13  and  C_22
REMARK    4  A    between atoms: N_21  and  C_24
REMARK    5  A    between atoms: C_27  and  C_28
REMARK    6  A    between atoms: C_28  and  N_30
REMARK                            x       y       z     vdW  Elec       q    Type
REMARK                         _______ _______ _______ _____ _____    ______ ____
ROOT
ATOM      1  N   UNL     1      35.475 -17.219 -23.784  0.00  0.00    -0.270 N 
ATOM      2  N   UNL     1      34.218 -18.577 -22.378  0.00  0.00    -0.338 NA
ATOM      3  N   UNL     1      36.569 -18.210 -21.995  0.00  0.00    -0.170 NA
ATOM      4  C   UNL     1      34.008 -21.051 -19.030  0.00  0.00    -0.000 C 
ATOM      5  C   UNL     1      35.219 -20.464 -19.383  0.00  0.00    +0.004 C 
ATOM      6  C   UNL     1      35.294 -19.630 -20.512  0.00  0.00    +0.050 C 
ATOM      7  C   UNL     1      35.420 -18.039 -22.669  0.00  0.00    +0.145 C 
ATOM      8  C   UNL     1      32.876 -20.804 -19.800  0.00  0.00    +0.003 C 
ATOM      9  C   UNL     1      34.158 -19.373 -21.297  0.00  0.00    +0.146 C 
ATOM     10  C   UNL     1      32.959 -19.972 -20.921  0.00  0.00    +0.033 C 
ATOM     11  C   UNL     1      36.474 -19.014 -20.918  0.00  0.00    +0.114 C 
ATOM     12  H   UNL     1      36.341 -16.811 -24.019  0.00  0.00    +0.159 HD
ENDROOT
BRANCH   4  16
ATOM     13  C   UNL     1      32.570 -23.155 -16.306  0.00  0.00    +0.053 C 
ATOM     14  C   UNL     1      32.672 -22.325 -17.422  0.00  0.00    +0.004 C 
ATOM     15  C   UNL     1      33.721 -23.572 -15.639  0.00  0.00    +0.004 C 
ATOM     16  C   UNL     1      33.926 -21.911 -17.871  0.00  0.00    -0.004 C 
ATOM     17  C   UNL     1      35.078 -22.329 -17.203  0.00  0.00    -0.022 C 
ATOM     18  C   UNL     1      34.976 -23.160 -16.087  0.00  0.00    -0.004 C 
ATOM     19  C   UNL     1      36.440 -21.907 -17.655  0.00  0.00    +0.031 C 
BRANCH  13  22
ATOM     20  O   UNL     1      31.161 -24.434 -14.932  0.00  0.00    -0.270 OA
ATOM     21  N   UNL     1      30.143 -23.022 -16.462  0.00  0.00    -0.302 N 
ATOM     22  C   UNL     1      31.262 -23.586 -15.837  0.00  0.00    +0.246 C 
ATOM     23  H   UNL     1      30.291 -22.355 -17.172  0.00  0.00    +0.150 HD
BRANCH  21  24
ATOM     24  C   UNL     1      28.790 -23.366 -16.120  0.00  0.00    +0.072 C 
ATOM     25  C   UNL     1      27.992 -22.526 -15.167  0.00  0.00    +0.021 C 
ATOM     26  C   UNL     1      27.633 -22.557 -16.624  0.00  0.00    +0.021 C 
ENDBRANCH  21  24
ENDBRANCH  13  22
ENDBRANCH   4  16
BRANCH   1  27
ATOM     27  C   UNL     1      34.336 -16.926 -24.621  0.00  0.00    +0.075 C 
BRANCH  27  28
ATOM     28  C   UNL     1      33.470 -15.864 -23.954  0.00  0.00    -0.055 C 
BRANCH  28  30
ATOM     29  O   UNL     1      33.460 -11.750 -24.782  0.00  0.00    -0.358 OA
ATOM     30  N   UNL     1      33.907 -14.528 -24.353  0.00  0.00    +0.391 N 
ATOM     31  C   UNL     1      33.793 -13.586 -23.230  0.00  0.00    -0.045 C 
ATOM     32  C   UNL     1      33.125 -14.043 -25.499  0.00  0.00    -0.045 C 
ATOM     33  C   UNL     1      34.242 -12.196 -23.673  0.00  0.00    +0.119 C 
ATOM     34  C   UNL     1      33.592 -12.643 -25.888  0.00  0.00    +0.119 C 
ATOM     35  H   UNL     1      34.887 -14.589 -24.628  0.00  0.00    -0.079 HD
ENDBRANCH  28  30
ENDBRANCH  27  28
ENDBRANCH   1  27
TORSDOF 6
ENDMDL
MODEL 8
REMARK VINA RESULT:     -10.3      5.547     10.075
REMARK  Name = 24963046
REMARK  6 active torsions:
REMARK  status: ('A' for Active; 'I' for Inactive)
REMARK    1  A    between atoms: N_1  and  C_27
REMARK    2  A    between atoms: C_4  and  C_16
REMARK    3  A    between atoms: C_13  and  C_22
REMARK    4  A    between atoms: N_21  and  C_24
REMARK    5  A    between atoms: C_27  and  C_28
REMARK    6  A    between atoms: C_28  and  N_30
REMARK                            x       y       z     vdW  Elec       q    Type
REMARK                         _______ _______ _______ _____ _____    ______ ____
ROOT
ATOM      1  N   UNL     1      33.729 -15.594 -25.498  0.00  0.00    -0.270 N 
ATOM      2  N   UNL     1      33.092 -14.223 -23.733  0.00  0.00    -0.338 NA
ATOM      3  N   UNL     1      33.931 -13.302 -25.797  0.00  0.00    -0.170 NA
ATOM      4  C   UNL     1      32.622 -10.392 -22.158  0.00  0.00    -0.000 C 
ATOM      5  C   UNL     1      33.118 -10.554 -23.448  0.00  0.00    +0.004 C 
ATOM      6  C   UNL     1      33.279 -11.845 -23.982  0.00  0.00    +0.050 C 
ATOM      7  C   UNL     1      33.578 -14.315 -24.988  0.00  0.00    +0.145 C 
ATOM      8  C   UNL     1      32.286 -11.513 -21.406  0.00  0.00    +0.003 C 
ATOM      9  C   UNL     1      32.943 -12.984 -23.232  0.00  0.00    +0.146 C 
ATOM     10  C   UNL     1      32.448 -12.792 -21.945  0.00  0.00    +0.033 C 
ATOM     11  C   UNL     1      33.769 -12.076 -25.264  0.00  0.00    +0.114 C 
ATOM     12  H   UNL     1      34.081 -15.690 -26.413  0.00  0.00    +0.159 HD
ENDROOT
BRANCH   4  16
ATOM     13  C   UNL     1      32.562  -6.671 -21.898  0.00  0.00    +0.053 C 
ATOM     14  C   UNL     1      32.715  -7.959 -22.411  0.00  0.00    +0.004 C 
ATOM     15  C   UNL     1      32.150  -6.491 -20.578  0.00  0.00    +0.004 C 
ATOM     16  C   UNL     1      32.457  -9.067 -21.604  0.00  0.00    -0.004 C 
ATOM     17  C   UNL     1      32.045  -8.886 -20.283  0.00  0.00    -0.022 C 
ATOM     18  C   UNL     1      31.891  -7.598 -19.770  0.00  0.00    -0.004 C 
ATOM     19  C   UNL     1      31.758 -10.049 -19.387  0.00  0.00    +0.031 C 
BRANCH  13  22
ATOM     20  O   UNL     1      32.245  -4.436 -22.541  0.00  0.00    -0.270 OA
ATOM     21  N   UNL     1      33.754  -5.685 -23.778  0.00  0.00    -0.302 N 
ATOM     22  C   UNL     1      32.831  -5.515 -22.739  0.00  0.00    +0.246 C 
ATOM     23  H   UNL     1      34.184  -6.565 -23.883  0.00  0.00    +0.150 HD
BRANCH  21  24
ATOM     24  C   UNL     1      34.104  -4.641 -24.702  0.00  0.00    +0.072 C 
ATOM     25  C   UNL     1      35.229  -4.813 -25.679  0.00  0.00    +0.021 C 
ATOM     26  C   UNL     1      33.811  -4.770 -26.167  0.00  0.00    +0.021 C 
ENDBRANCH  21  24
ENDBRANCH  13  22
ENDBRANCH   4  16
BRANCH   1  27
ATOM     27  C   UNL     1      33.398 -16.793 -24.766  0.00  0.00    +0.075 C 
BRANCH  27  28
ATOM     28  C   UNL     1      34.674 -17.458 -24.268  0.00  0.00    -0.055 C 
BRANCH  28  30
ATOM     29  O   UNL     1      35.824 -18.132 -20.288  0.00  0.00    -0.358 OA
ATOM     30  N   UNL     1      34.617 -17.648 -22.820  0.00  0.00    +0.391 N 
ATOM     31  C   UNL     1      35.392 -16.608 -22.127  0.00  0.00    -0.045 C 
ATOM     32  C   UNL     1      35.114 -18.979 -22.448  0.00  0.00    -0.045 C 
ATOM     33  C   UNL     1      35.328 -16.834 -20.619  0.00  0.00    +0.119 C 
ATOM     34  C   UNL     1      35.055 -19.149 -20.932  0.00  0.00    +0.119 C 
ATOM     35  H   UNL     1      33.641 -17.571 -22.534  0.00  0.00    -0.079 HD
ENDBRANCH  28  30
ENDBRANCH  27  28
ENDBRANCH   1  27
TORSDOF 6
ENDMDL
MODEL 9
REMARK VINA RESULT:     -10.3      4.550     13.678
REMARK  Name = 24963046
REMARK  6 active torsions:
REMARK  status: ('A' for Active; 'I' for Inactive)
REMARK    1  A    between atoms: N_1  and  C_27
REMARK    2  A    between atoms: C_4  and  C_16
REMARK    3  A    between atoms: C_13  and  C_22
REMARK    4  A    between atoms: N_21  and  C_24
REMARK    5  A    between atoms: C_27  and  C_28
REMARK    6  A    between atoms: C_28  and  N_30
REMARK                            x       y       z     vdW  Elec       q    Type
REMARK                         _______ _______ _______ _____ _____    ______ ____
ROOT
ATOM      1  N   UNL     1      32.963  -7.874 -22.850  0.00  0.00    -0.270 N 
ATOM      2  N   UNL     1      32.773 -10.105 -22.227  0.00  0.00    -0.338 NA
ATOM      3  N   UNL     1      34.246  -9.421 -24.007  0.00  0.00    -0.170 NA
ATOM      4  C   UNL     1      33.896 -14.083 -22.758  0.00  0.00    -0.000 C 
ATOM      5  C   UNL     1      34.452 -13.093 -23.563  0.00  0.00    +0.004 C 
ATOM      6  C   UNL     1      34.075 -11.750 -23.387  0.00  0.00    +0.050 C 
ATOM      7  C   UNL     1      33.345  -9.192 -23.038  0.00  0.00    +0.145 C 
ATOM      8  C   UNL     1      32.970 -13.734 -21.781  0.00  0.00    +0.003 C 
ATOM      9  C   UNL     1      33.140 -11.385 -22.404  0.00  0.00    +0.146 C 
ATOM     10  C   UNL     1      32.601 -12.396 -21.612  0.00  0.00    +0.033 C 
ATOM     11  C   UNL     1      34.592 -10.714 -24.158  0.00  0.00    +0.114 C 
ATOM     12  H   UNL     1      33.366  -7.186 -23.428  0.00  0.00    +0.159 HD
ENDROOT
BRANCH   4  16
ATOM     13  C   UNL     1      35.062 -17.539 -21.973  0.00  0.00    +0.053 C 
ATOM     14  C   UNL     1      34.687 -16.204 -21.825  0.00  0.00    +0.004 C 
ATOM     15  C   UNL     1      35.028 -18.137 -23.232  0.00  0.00    +0.004 C 
ATOM     16  C   UNL     1      34.280 -15.466 -22.936  0.00  0.00    -0.004 C 
ATOM     17  C   UNL     1      34.247 -16.065 -24.196  0.00  0.00    -0.022 C 
ATOM     18  C   UNL     1      34.621 -17.401 -24.344  0.00  0.00    -0.004 C 
ATOM     19  C   UNL     1      33.816 -15.306 -25.411  0.00  0.00    +0.031 C 
BRANCH  13  22
ATOM     20  O   UNL     1      36.417 -17.908 -20.092  0.00  0.00    -0.270 OA
ATOM     21  N   UNL     1      34.817 -19.515 -20.570  0.00  0.00    -0.302 N 
ATOM     22  C   UNL     1      35.486 -18.309 -20.814  0.00  0.00    +0.246 C 
ATOM     23  H   UNL     1      34.089 -19.777 -21.180  0.00  0.00    +0.150 HD
BRANCH  21  24
ATOM     24  C   UNL     1      35.141 -20.390 -19.477  0.00  0.00    +0.072 C 
ATOM     25  C   UNL     1      35.173 -21.879 -19.658  0.00  0.00    +0.021 C 
ATOM     26  C   UNL     1      36.449 -21.122 -19.430  0.00  0.00    +0.021 C 
ENDBRANCH  21  24
ENDBRANCH  13  22
ENDBRANCH   4  16
BRANCH   1  27
ATOM     27  C   UNL     1      32.007  -7.451 -21.854  0.00  0.00    +0.075 C 
BRANCH  27  28
ATOM     28  C   UNL     1      30.769  -6.886 -22.539  0.00  0.00    -0.055 C 
BRANCH  28  30
ATOM     29  O   UNL     1      32.014  -2.877 -22.555  0.00  0.00    -0.358 OA
ATOM     30  N   UNL     1      30.755  -5.427 -22.441  0.00  0.00    +0.391 N 
ATOM     31  C   UNL     1      31.134  -4.815 -23.722  0.00  0.00    -0.045 C 
ATOM     32  C   UNL     1      31.656  -4.967 -21.375  0.00  0.00    -0.045 C 
ATOM     33  C   UNL     1      31.124  -3.295 -23.592  0.00  0.00    +0.119 C 
ATOM     34  C   UNL     1      31.631  -3.443 -21.300  0.00  0.00    +0.119 C 
ATOM     35  H   UNL     1      29.803  -5.140 -22.212  0.00  0.00    -0.079 HD
ENDBRANCH  28  30
ENDBRANCH  27  28
ENDBRANCH   1  27
TORSDOF 6
ENDMDL
