MODEL 1
REMARK VINA RESULT:     -12.4      0.000      0.000
REMARK  Name = 56842109
REMARK  7 active torsions:
REMARK  status: ('A' for Active; 'I' for Inactive)
REMARK    1  A    between atoms: C_1  and  C_24
REMARK    2  A    between atoms: C_3  and  C_9
REMARK    3  A    between atoms: C_5  and  O_22
REMARK    4  A    between atoms: N_8  and  C_11
REMARK    5  A    between atoms: C_11  and  C_12
REMARK    6  A    between atoms: C_15  and  C_21
REMARK    7  A    between atoms: C_24  and  C_29
REMARK                            x       y       z     vdW  Elec       q    Type
REMARK                         _______ _______ _______ _____ _____    ______ ____
ROOT
ATOM      1  C   UNL     1      35.578 -23.544 -13.636  0.00  0.00    -0.018 C 
ATOM      2  C   UNL     1      34.897 -23.241 -14.815  0.00  0.00    +0.003 C 
ATOM      3  C   UNL     1      33.506 -23.333 -14.860  0.00  0.00    +0.087 C 
ATOM      4  C   UNL     1      34.868 -23.938 -12.502  0.00  0.00    -0.001 C 
ATOM      5  C   UNL     1      32.795 -23.727 -13.727  0.00  0.00    +0.143 C 
ATOM      6  C   UNL     1      33.477 -24.030 -12.547  0.00  0.00    +0.037 C 
ENDROOT
BRANCH   3   9
ATOM      7  O   UNL     1      31.573 -22.955 -16.133  0.00  0.00    -0.270 OA
ATOM      8  N   UNL     1      33.611 -22.751 -17.222  0.00  0.00    -0.297 N 
ATOM      9  C   UNL     1      32.814 -23.010 -16.101  0.00  0.00    +0.249 C 
ATOM     10  H   UNL     1      34.588 -22.814 -17.123  0.00  0.00    +0.150 HD
BRANCH   8  11
ATOM     11  C   UNL     1      33.074 -22.395 -18.515  0.00  0.00    +0.117 C 
BRANCH  11  12
ATOM     12  C   UNL     1      33.941 -21.399 -19.228  0.00  0.00    -0.003 C 
ATOM     13  C   UNL     1      35.329 -21.473 -19.111  0.00  0.00    -0.003 C 
ATOM     14  C   UNL     1      33.360 -20.399 -20.009  0.00  0.00    -0.003 C 
ATOM     15  C   UNL     1      35.555 -19.549 -20.554  0.00  0.00    +0.071 C 
ATOM     16  C   UNL     1      36.137 -20.548 -19.773  0.00  0.00    +0.004 C 
ATOM     17  C   UNL     1      34.166 -19.475 -20.671  0.00  0.00    +0.004 C 
BRANCH  15  21
ATOM     18  F   UNL     1      36.141 -17.272 -20.910  0.00  0.00    -0.166 F 
ATOM     19  F   UNL     1      37.752 -18.728 -21.025  0.00  0.00    -0.166 F 
ATOM     20  F   UNL     1      36.292 -18.603 -22.624  0.00  0.00    -0.166 F 
ATOM     21  C   UNL     1      36.417 -18.561 -21.264  0.00  0.00    +0.419 C 
ENDBRANCH  15  21
ENDBRANCH  11  12
ENDBRANCH   8  11
ENDBRANCH   3   9
BRANCH   5  22
ATOM     22  O   UNL     1      31.436 -23.820 -13.750  0.00  0.00    -0.471 OA
ATOM     23  C   UNL     1      30.867 -25.078 -13.391  0.00  0.00    +0.252 C 
ENDBRANCH   5  22
BRANCH   1  24
ATOM     24  C   UNL     1      37.083 -23.444 -13.587  0.00  0.00    +0.080 C 
BRANCH  24  29
ATOM     25  O   UNL     1      39.139 -24.578 -13.024  0.00  0.00    -0.428 OA
ATOM     26  O   UNL     1      36.667 -26.170 -14.907  0.00  0.00    -0.271 OA
ATOM     27  O   UNL     1      41.065 -25.381 -13.958  0.00  0.00    -0.226 OA
ATOM     28  N   UNL     1      38.975 -26.027 -14.700  0.00  0.00    -0.218 N 
ATOM     29  C   UNL     1      37.730 -24.767 -13.236  0.00  0.00    +0.250 C 
ATOM     30  C   UNL     1      37.681 -25.741 -14.380  0.00  0.00    +0.271 C 
ATOM     31  C   UNL     1      39.844 -25.343 -13.911  0.00  0.00    +0.408 C 
ATOM     32  H   UNL     1      39.245 -26.650 -15.412  0.00  0.00    +0.161 HD
ENDBRANCH  24  29
ENDBRANCH   1  24
TORSDOF 7
ENDMDL
MODEL 2
REMARK VINA RESULT:     -12.4      1.079      1.530
REMARK  Name = 56842109
REMARK  7 active torsions:
REMARK  status: ('A' for Active; 'I' for Inactive)
REMARK    1  A    between atoms: C_1  and  C_24
REMARK    2  A    between atoms: C_3  and  C_9
REMARK    3  A    between atoms: C_5  and  O_22
REMARK    4  A    between atoms: N_8  and  C_11
REMARK    5  A    between atoms: C_11  and  C_12
REMARK    6  A    between atoms: C_15  and  C_21
REMARK    7  A    between atoms: C_24  and  C_29
REMARK                            x       y       z     vdW  Elec       q    Type
REMARK                         _______ _______ _______ _____ _____    ______ ____
ROOT
ATOM      1  C   UNL     1      35.848 -23.599 -13.420  0.00  0.00    -0.018 C 
ATOM      2  C   UNL     1      35.165 -23.376 -14.616  0.00  0.00    +0.003 C 
ATOM      3  C   UNL     1      33.773 -23.458 -14.651  0.00  0.00    +0.087 C 
ATOM      4  C   UNL     1      35.138 -23.903 -12.259  0.00  0.00    -0.001 C 
ATOM      5  C   UNL     1      33.063 -23.762 -13.490  0.00  0.00    +0.143 C 
ATOM      6  C   UNL     1      33.745 -23.985 -12.294  0.00  0.00    +0.037 C 
ENDROOT
BRANCH   3   9
ATOM      7  O   UNL     1      31.839 -23.232 -15.957  0.00  0.00    -0.270 OA
ATOM      8  N   UNL     1      33.876 -22.958 -17.032  0.00  0.00    -0.297 N 
ATOM      9  C   UNL     1      33.081 -23.219 -15.910  0.00  0.00    +0.249 C 
ATOM     10  H   UNL     1      34.854 -22.965 -16.921  0.00  0.00    +0.150 HD
BRANCH   8  11
ATOM     11  C   UNL     1      33.337 -22.680 -18.343  0.00  0.00    +0.117 C 
BRANCH  11  12
ATOM     12  C   UNL     1      34.128 -21.628 -19.064  0.00  0.00    -0.003 C 
ATOM     13  C   UNL     1      35.520 -21.625 -18.983  0.00  0.00    -0.003 C 
ATOM     14  C   UNL     1      33.471 -20.653 -19.815  0.00  0.00    -0.003 C 
ATOM     15  C   UNL     1      35.600 -19.674 -20.404  0.00  0.00    +0.071 C 
ATOM     16  C   UNL     1      36.257 -20.648 -19.653  0.00  0.00    +0.004 C 
ATOM     17  C   UNL     1      34.207 -19.676 -20.485  0.00  0.00    +0.004 C 
BRANCH  15  21
ATOM     18  F   UNL     1      36.115 -17.369 -20.678  0.00  0.00    -0.166 F 
ATOM     19  F   UNL     1      37.739 -18.780 -20.995  0.00  0.00    -0.166 F 
ATOM     20  F   UNL     1      36.158 -18.602 -22.469  0.00  0.00    -0.166 F 
ATOM     21  C   UNL     1      36.387 -18.631 -21.123  0.00  0.00    +0.419 C 
ENDBRANCH  15  21
ENDBRANCH  11  12
ENDBRANCH   8  11
ENDBRANCH   3   9
BRANCH   5  22
ATOM     22  O   UNL     1      31.703 -23.843 -13.503  0.00  0.00    -0.471 OA
ATOM     23  C   UNL     1      31.124 -25.079 -13.090  0.00  0.00    +0.252 C 
ENDBRANCH   5  22
BRANCH   1  24
ATOM     24  C   UNL     1      37.353 -23.510 -13.383  0.00  0.00    +0.080 C 
BRANCH  24  29
ATOM     25  O   UNL     1      37.553 -25.378 -14.901  0.00  0.00    -0.428 OA
ATOM     26  O   UNL     1      37.742 -25.843 -11.445  0.00  0.00    -0.271 OA
ATOM     27  O   UNL     1      36.454 -27.259 -15.593  0.00  0.00    -0.226 OA
ATOM     28  N   UNL     1      36.963 -26.877 -13.372  0.00  0.00    -0.218 N 
ATOM     29  C   UNL     1      38.009 -24.850 -13.644  0.00  0.00    +0.250 C 
ATOM     30  C   UNL     1      37.575 -25.894 -12.654  0.00  0.00    +0.271 C 
ATOM     31  C   UNL     1      36.939 -26.582 -14.697  0.00  0.00    +0.408 C 
ATOM     32  H   UNL     1      36.586 -27.698 -12.980  0.00  0.00    +0.161 HD
ENDBRANCH  24  29
ENDBRANCH   1  24
TORSDOF 7
ENDMDL
MODEL 3
REMARK VINA RESULT:     -12.0      7.137     12.070
REMARK  Name = 56842109
REMARK  7 active torsions:
REMARK  status: ('A' for Active; 'I' for Inactive)
REMARK    1  A    between atoms: C_1  and  C_24
REMARK    2  A    between atoms: C_3  and  C_9
REMARK    3  A    between atoms: C_5  and  O_22
REMARK    4  A    between atoms: N_8  and  C_11
REMARK    5  A    between atoms: C_11  and  C_12
REMARK    6  A    between atoms: C_15  and  C_21
REMARK    7  A    between atoms: C_24  and  C_29
REMARK                            x       y       z     vdW  Elec       q    Type
REMARK                         _______ _______ _______ _____ _____    ______ ____
ROOT
ATOM      1  C   UNL     1      33.748 -14.059 -24.163  0.00  0.00    -0.018 C 
ATOM      2  C   UNL     1      34.449 -14.615 -23.093  0.00  0.00    +0.003 C 
ATOM      3  C   UNL     1      34.717 -15.984 -23.070  0.00  0.00    +0.087 C 
ATOM      4  C   UNL     1      33.316 -14.872 -25.210  0.00  0.00    -0.001 C 
ATOM      5  C   UNL     1      34.286 -16.796 -24.118  0.00  0.00    +0.143 C 
ATOM      6  C   UNL     1      33.584 -16.241 -25.188  0.00  0.00    +0.037 C 
ENDROOT
BRANCH   3   9
ATOM      7  O   UNL     1      35.354 -16.035 -20.815  0.00  0.00    -0.270 OA
ATOM      8  N   UNL     1      36.239 -17.672 -22.198  0.00  0.00    -0.297 N 
ATOM      9  C   UNL     1      35.453 -16.543 -21.944  0.00  0.00    +0.249 C 
ATOM     10  H   UNL     1      36.270 -18.021 -23.118  0.00  0.00    +0.150 HD
BRANCH   8  11
ATOM     11  C   UNL     1      37.007 -18.354 -21.182  0.00  0.00    +0.117 C 
BRANCH  11  12
ATOM     12  C   UNL     1      36.196 -19.395 -20.467  0.00  0.00    -0.003 C 
ATOM     13  C   UNL     1      34.815 -19.452 -20.655  0.00  0.00    -0.003 C 
ATOM     14  C   UNL     1      36.822 -20.306 -19.616  0.00  0.00    -0.003 C 
ATOM     15  C   UNL     1      34.686 -21.330 -19.142  0.00  0.00    +0.071 C 
ATOM     16  C   UNL     1      34.059 -20.419 -19.992  0.00  0.00    +0.004 C 
ATOM     17  C   UNL     1      36.067 -21.273 -18.953  0.00  0.00    +0.004 C 
BRANCH  15  21
ATOM     18  F   UNL     1      32.596 -21.964 -18.202  0.00  0.00    -0.166 F 
ATOM     19  F   UNL     1      33.775 -23.542 -19.123  0.00  0.00    -0.166 F 
ATOM     20  F   UNL     1      34.383 -22.713 -17.213  0.00  0.00    -0.166 F 
ATOM     21  C   UNL     1      33.880 -22.366 -18.435  0.00  0.00    +0.419 C 
ENDBRANCH  15  21
ENDBRANCH  11  12
ENDBRANCH   8  11
ENDBRANCH   3   9
BRANCH   5  22
ATOM     22  O   UNL     1      34.541 -18.135 -24.116  0.00  0.00    -0.471 OA
ATOM     23  C   UNL     1      33.460 -19.001 -24.458  0.00  0.00    +0.252 C 
ENDBRANCH   5  22
BRANCH   1  24
ATOM     24  C   UNL     1      33.458 -12.579 -24.187  0.00  0.00    +0.080 C 
BRANCH  24  29
ATOM     25  O   UNL     1      32.561 -12.346 -21.957  0.00  0.00    -0.428 OA
ATOM     26  O   UNL     1      34.196  -9.687 -23.522  0.00  0.00    -0.271 OA
ATOM     27  O   UNL     1      30.909 -11.288 -20.784  0.00  0.00    -0.226 OA
ATOM     28  N   UNL     1      32.435 -10.131 -22.077  0.00  0.00    -0.218 N 
ATOM     29  C   UNL     1      33.634 -11.943 -22.824  0.00  0.00    +0.250 C 
ATOM     30  C   UNL     1      33.493 -10.448 -22.876  0.00  0.00    +0.271 C 
ATOM     31  C   UNL     1      31.874 -11.242 -21.534  0.00  0.00    +0.408 C 
ATOM     32  H   UNL     1      32.117  -9.214 -21.913  0.00  0.00    +0.161 HD
ENDBRANCH  24  29
ENDBRANCH   1  24
TORSDOF 7
ENDMDL
MODEL 4
REMARK VINA RESULT:     -11.9      5.488      9.494
REMARK  Name = 56842109
REMARK  7 active torsions:
REMARK  status: ('A' for Active; 'I' for Inactive)
REMARK    1  A    between atoms: C_1  and  C_24
REMARK    2  A    between atoms: C_3  and  C_9
REMARK    3  A    between atoms: C_5  and  O_22
REMARK    4  A    between atoms: N_8  and  C_11
REMARK    5  A    between atoms: C_11  and  C_12
REMARK    6  A    between atoms: C_15  and  C_21
REMARK    7  A    between atoms: C_24  and  C_29
REMARK                            x       y       z     vdW  Elec       q    Type
REMARK                         _______ _______ _______ _____ _____    ______ ____
ROOT
ATOM      1  C   UNL     1      34.776 -19.842 -20.597  0.00  0.00    -0.018 C 
ATOM      2  C   UNL     1      34.101 -20.854 -19.912  0.00  0.00    +0.003 C 
ATOM      3  C   UNL     1      34.772 -21.614 -18.954  0.00  0.00    +0.087 C 
ATOM      4  C   UNL     1      36.119 -19.591 -20.323  0.00  0.00    -0.001 C 
ATOM      5  C   UNL     1      36.116 -21.363 -18.680  0.00  0.00    +0.143 C 
ATOM      6  C   UNL     1      36.790 -20.352 -19.365  0.00  0.00    +0.037 C 
ENDROOT
BRANCH   3   9
ATOM      7  O   UNL     1      33.717 -23.705 -18.841  0.00  0.00    -0.270 OA
ATOM      8  N   UNL     1      33.777 -22.447 -16.894  0.00  0.00    -0.297 N 
ATOM      9  C   UNL     1      34.049 -22.664 -18.249  0.00  0.00    +0.249 C 
ATOM     10  H   UNL     1      34.069 -21.597 -16.491  0.00  0.00    +0.150 HD
BRANCH   8  11
ATOM     11  C   UNL     1      33.089 -23.402 -16.056  0.00  0.00    +0.117 C 
BRANCH  11  12
ATOM     12  C   UNL     1      33.894 -23.767 -14.843  0.00  0.00    -0.003 C 
ATOM     13  C   UNL     1      35.226 -24.156 -14.981  0.00  0.00    -0.003 C 
ATOM     14  C   UNL     1      33.310 -23.717 -13.577  0.00  0.00    -0.003 C 
ATOM     15  C   UNL     1      35.391 -24.444 -12.589  0.00  0.00    +0.071 C 
ATOM     16  C   UNL     1      35.976 -24.495 -13.854  0.00  0.00    +0.004 C 
ATOM     17  C   UNL     1      34.059 -24.056 -12.450  0.00  0.00    +0.004 C 
BRANCH  15  21
ATOM     18  F   UNL     1      36.895 -25.963 -11.546  0.00  0.00    -0.166 F 
ATOM     19  F   UNL     1      37.120 -23.860 -11.041  0.00  0.00    -0.166 F 
ATOM     20  F   UNL     1      35.439 -24.986 -10.259  0.00  0.00    -0.166 F 
ATOM     21  C   UNL     1      36.193 -24.804 -11.384  0.00  0.00    +0.419 C 
ENDBRANCH  15  21
ENDBRANCH  11  12
ENDBRANCH   8  11
ENDBRANCH   3   9
BRANCH   5  22
ATOM     22  O   UNL     1      36.788 -22.093 -17.745  0.00  0.00    -0.471 OA
ATOM     23  C   UNL     1      37.150 -21.423 -16.539  0.00  0.00    +0.252 C 
ENDBRANCH   5  22
BRANCH   1  24
ATOM     24  C   UNL     1      34.049 -19.020 -21.633  0.00  0.00    +0.080 C 
BRANCH  24  29
ATOM     25  O   UNL     1      35.423 -17.087 -22.087  0.00  0.00    -0.428 OA
ATOM     26  O   UNL     1      33.802 -18.786 -24.671  0.00  0.00    -0.271 OA
ATOM     27  O   UNL     1      35.295 -14.909 -22.771  0.00  0.00    -0.226 OA
ATOM     28  N   UNL     1      34.426 -16.646 -24.022  0.00  0.00    -0.218 N 
ATOM     29  C   UNL     1      35.004 -18.360 -22.606  0.00  0.00    +0.250 C 
ATOM     30  C   UNL     1      34.331 -18.000 -23.900  0.00  0.00    +0.271 C 
ATOM     31  C   UNL     1      35.063 -16.095 -22.957  0.00  0.00    +0.408 C 
ATOM     32  H   UNL     1      34.078 -16.131 -24.786  0.00  0.00    +0.161 HD
ENDBRANCH  24  29
ENDBRANCH   1  24
TORSDOF 7
ENDMDL
MODEL 5
REMARK VINA RESULT:     -11.9      1.976      2.287
REMARK  Name = 56842109
REMARK  7 active torsions:
REMARK  status: ('A' for Active; 'I' for Inactive)
REMARK    1  A    between atoms: C_1  and  C_24
REMARK    2  A    between atoms: C_3  and  C_9
REMARK    3  A    between atoms: C_5  and  O_22
REMARK    4  A    between atoms: N_8  and  C_11
REMARK    5  A    between atoms: C_11  and  C_12
REMARK    6  A    between atoms: C_15  and  C_21
REMARK    7  A    between atoms: C_24  and  C_29
REMARK                            x       y       z     vdW  Elec       q    Type
REMARK                         _______ _______ _______ _____ _____    ______ ____
ROOT
ATOM      1  C   UNL     1      34.422 -23.943 -13.975  0.00  0.00    -0.018 C 
ATOM      2  C   UNL     1      34.350 -23.772 -15.358  0.00  0.00    +0.003 C 
ATOM      3  C   UNL     1      33.140 -23.414 -15.954  0.00  0.00    +0.087 C 
ATOM      4  C   UNL     1      33.285 -23.756 -13.190  0.00  0.00    -0.001 C 
ATOM      5  C   UNL     1      32.004 -23.227 -15.169  0.00  0.00    +0.143 C 
ATOM      6  C   UNL     1      32.076 -23.398 -13.786  0.00  0.00    +0.037 C 
ENDROOT
BRANCH   3   9
ATOM      7  O   UNL     1      33.530 -24.119 -18.156  0.00  0.00    -0.270 OA
ATOM      8  N   UNL     1      32.503 -22.059 -17.874  0.00  0.00    -0.297 N 
ATOM      9  C   UNL     1      33.088 -23.239 -17.399  0.00  0.00    +0.249 C 
ATOM     10  H   UNL     1      32.175 -21.404 -17.216  0.00  0.00    +0.150 HD
BRANCH   8  11
ATOM     11  C   UNL     1      32.357 -21.751 -19.278  0.00  0.00    +0.117 C 
BRANCH  11  12
ATOM     12  C   UNL     1      33.489 -20.908 -19.789  0.00  0.00    -0.003 C 
ATOM     13  C   UNL     1      34.795 -21.168 -19.372  0.00  0.00    -0.003 C 
ATOM     14  C   UNL     1      33.236 -19.866 -20.681  0.00  0.00    -0.003 C 
ATOM     15  C   UNL     1      35.594 -19.344 -20.739  0.00  0.00    +0.071 C 
ATOM     16  C   UNL     1      35.848 -20.386 -19.847  0.00  0.00    +0.004 C 
ATOM     17  C   UNL     1      34.288 -19.084 -21.155  0.00  0.00    +0.004 C 
BRANCH  15  21
ATOM     18  F   UNL     1      36.573 -17.187 -20.943  0.00  0.00    -0.166 F 
ATOM     19  F   UNL     1      37.939 -18.867 -20.746  0.00  0.00    -0.166 F 
ATOM     20  F   UNL     1      36.867 -18.558 -22.605  0.00  0.00    -0.166 F 
ATOM     21  C   UNL     1      36.720 -18.509 -21.249  0.00  0.00    +0.419 C 
ENDBRANCH  15  21
ENDBRANCH  11  12
ENDBRANCH   8  11
ENDBRANCH   3   9
BRANCH   5  22
ATOM     22  O   UNL     1      30.814 -22.874 -15.732  0.00  0.00    -0.471 OA
ATOM     23  C   UNL     1      29.680 -22.822 -14.869  0.00  0.00    +0.252 C 
ENDBRANCH   5  22
BRANCH   1  24
ATOM     24  C   UNL     1      35.730 -24.330 -13.331  0.00  0.00    +0.080 C 
BRANCH  24  29
ATOM     25  O   UNL     1      37.327 -22.863 -12.266  0.00  0.00    -0.428 OA
ATOM     26  O   UNL     1      35.339 -25.028 -10.380  0.00  0.00    -0.271 OA
ATOM     27  O   UNL     1      39.306 -22.886 -11.122  0.00  0.00    -0.226 OA
ATOM     28  N   UNL     1      37.469 -24.105 -10.430  0.00  0.00    -0.218 N 
ATOM     29  C   UNL     1      36.038 -23.481 -12.115  0.00  0.00    +0.250 C 
ATOM     30  C   UNL     1      36.196 -24.310 -10.872  0.00  0.00    +0.271 C 
ATOM     31  C   UNL     1      38.148 -23.258 -11.247  0.00  0.00    +0.408 C 
ATOM     32  H   UNL     1      37.849 -24.518  -9.621  0.00  0.00    +0.161 HD
ENDBRANCH  24  29
ENDBRANCH   1  24
TORSDOF 7
ENDMDL
MODEL 6
REMARK VINA RESULT:     -11.6      2.278      5.820
REMARK  Name = 56842109
REMARK  7 active torsions:
REMARK  status: ('A' for Active; 'I' for Inactive)
REMARK    1  A    between atoms: C_1  and  C_24
REMARK    2  A    between atoms: C_3  and  C_9
REMARK    3  A    between atoms: C_5  and  O_22
REMARK    4  A    between atoms: N_8  and  C_11
REMARK    5  A    between atoms: C_11  and  C_12
REMARK    6  A    between atoms: C_15  and  C_21
REMARK    7  A    between atoms: C_24  and  C_29
REMARK                            x       y       z     vdW  Elec       q    Type
REMARK                         _______ _______ _______ _____ _____    ______ ____
ROOT
ATOM      1  C   UNL     1      32.471 -23.324 -14.305  0.00  0.00    -0.018 C 
ATOM      2  C   UNL     1      33.575 -22.761 -14.945  0.00  0.00    +0.003 C 
ATOM      3  C   UNL     1      34.840 -23.325 -14.778  0.00  0.00    +0.087 C 
ATOM      4  C   UNL     1      32.631 -24.451 -13.501  0.00  0.00    -0.001 C 
ATOM      5  C   UNL     1      35.001 -24.452 -13.974  0.00  0.00    +0.143 C 
ATOM      6  C   UNL     1      33.896 -25.016 -13.334  0.00  0.00    +0.037 C 
ENDROOT
BRANCH   3   9
ATOM      7  O   UNL     1      37.077 -22.631 -14.881  0.00  0.00    -0.270 OA
ATOM      8  N   UNL     1      35.777 -22.284 -16.770  0.00  0.00    -0.297 N 
ATOM      9  C   UNL     1      35.980 -22.722 -15.457  0.00  0.00    +0.249 C 
ATOM     10  H   UNL     1      34.880 -22.388 -17.162  0.00  0.00    +0.150 HD
BRANCH   8  11
ATOM     11  C   UNL     1      36.814 -21.687 -17.580  0.00  0.00    +0.117 C 
BRANCH  11  12
ATOM     12  C   UNL     1      36.252 -20.969 -18.772  0.00  0.00    -0.003 C 
ATOM     13  C   UNL     1      37.054 -20.087 -19.496  0.00  0.00    -0.003 C 
ATOM     14  C   UNL     1      34.929 -21.184 -19.157  0.00  0.00    -0.003 C 
ATOM     15  C   UNL     1      35.211 -19.634 -20.989  0.00  0.00    +0.071 C 
ATOM     16  C   UNL     1      36.534 -19.419 -20.605  0.00  0.00    +0.004 C 
ATOM     17  C   UNL     1      34.408 -20.516 -20.265  0.00  0.00    +0.004 C 
BRANCH  15  21
ATOM     18  F   UNL     1      35.360 -19.174 -23.317  0.00  0.00    -0.166 F 
ATOM     19  F   UNL     1      33.362 -19.263 -22.462  0.00  0.00    -0.166 F 
ATOM     20  F   UNL     1      34.644 -17.563 -22.044  0.00  0.00    -0.166 F 
ATOM     21  C   UNL     1      34.655 -18.923 -22.176  0.00  0.00    +0.419 C 
ENDBRANCH  15  21
ENDBRANCH  11  12
ENDBRANCH   8  11
ENDBRANCH   3   9
BRANCH   5  22
ATOM     22  O   UNL     1      36.228 -25.020 -13.801  0.00  0.00    -0.471 OA
ATOM     23  C   UNL     1      36.520 -26.178 -14.581  0.00  0.00    +0.252 C 
ENDBRANCH   5  22
BRANCH   1  24
ATOM     24  C   UNL     1      31.103 -22.713 -14.486  0.00  0.00    +0.080 C 
BRANCH  24  29
ATOM     25  O   UNL     1      29.608 -22.288 -16.334  0.00  0.00    -0.428 OA
ATOM     26  O   UNL     1      29.514 -25.322 -14.610  0.00  0.00    -0.271 OA
ATOM     27  O   UNL     1      27.403 -21.926 -16.818  0.00  0.00    -0.226 OA
ATOM     28  N   UNL     1      28.121 -23.801 -15.676  0.00  0.00    -0.218 N 
ATOM     29  C   UNL     1      30.365 -23.310 -15.667  0.00  0.00    +0.250 C 
ATOM     30  C   UNL     1      29.314 -24.294 -15.237  0.00  0.00    +0.271 C 
ATOM     31  C   UNL     1      28.280 -22.616 -16.320  0.00  0.00    +0.408 C 
ATOM     32  H   UNL     1      27.254 -24.248 -15.544  0.00  0.00    +0.161 HD
ENDBRANCH  24  29
ENDBRANCH   1  24
TORSDOF 7
ENDMDL
MODEL 7
REMARK VINA RESULT:     -11.6      2.748      4.440
REMARK  Name = 56842109
REMARK  7 active torsions:
REMARK  status: ('A' for Active; 'I' for Inactive)
REMARK    1  A    between atoms: C_1  and  C_24
REMARK    2  A    between atoms: C_3  and  C_9
REMARK    3  A    between atoms: C_5  and  O_22
REMARK    4  A    between atoms: N_8  and  C_11
REMARK    5  A    between atoms: C_11  and  C_12
REMARK    6  A    between atoms: C_15  and  C_21
REMARK    7  A    between atoms: C_24  and  C_29
REMARK                            x       y       z     vdW  Elec       q    Type
REMARK                         _______ _______ _______ _____ _____    ______ ____
ROOT
ATOM      1  C   UNL     1      34.465 -23.088 -16.018  0.00  0.00    -0.018 C 
ATOM      2  C   UNL     1      35.440 -22.488 -16.815  0.00  0.00    +0.003 C 
ATOM      3  C   UNL     1      35.090 -21.939 -18.049  0.00  0.00    +0.087 C 
ATOM      4  C   UNL     1      33.142 -23.139 -16.454  0.00  0.00    -0.001 C 
ATOM      5  C   UNL     1      33.767 -21.990 -18.486  0.00  0.00    +0.143 C 
ATOM      6  C   UNL     1      32.792 -22.590 -17.688  0.00  0.00    +0.037 C 
ENDROOT
BRANCH   3   9
ATOM      7  O   UNL     1      37.206 -21.894 -19.059  0.00  0.00    -0.270 OA
ATOM      8  N   UNL     1      35.824 -20.067 -19.423  0.00  0.00    -0.297 N 
ATOM      9  C   UNL     1      36.124 -21.315 -18.865  0.00  0.00    +0.249 C 
ATOM     10  H   UNL     1      34.946 -19.668 -19.226  0.00  0.00    +0.150 HD
BRANCH   8  11
ATOM     11  C   UNL     1      36.735 -19.335 -20.272  0.00  0.00    +0.117 C 
BRANCH  11  12
ATOM     12  C   UNL     1      36.017 -18.608 -21.372  0.00  0.00    -0.003 C 
ATOM     13  C   UNL     1      36.101 -17.219 -21.460  0.00  0.00    -0.003 C 
ATOM     14  C   UNL     1      35.265 -19.322 -22.306  0.00  0.00    -0.003 C 
ATOM     15  C   UNL     1      34.684 -17.257 -23.416  0.00  0.00    +0.071 C 
ATOM     16  C   UNL     1      35.434 -16.542 -22.482  0.00  0.00    +0.004 C 
ATOM     17  C   UNL     1      34.599 -18.646 -23.327  0.00  0.00    +0.004 C 
BRANCH  15  21
ATOM     18  F   UNL     1      34.813 -16.140 -25.511  0.00  0.00    -0.166 F 
ATOM     19  F   UNL     1      33.004 -17.281 -25.119  0.00  0.00    -0.166 F 
ATOM     20  F   UNL     1      33.339 -15.399 -24.095  0.00  0.00    -0.166 F 
ATOM     21  C   UNL     1      33.973 -16.534 -24.510  0.00  0.00    +0.419 C 
ENDBRANCH  15  21
ENDBRANCH  11  12
ENDBRANCH   8  11
ENDBRANCH   3   9
BRANCH   5  22
ATOM     22  O   UNL     1      33.406 -21.456 -19.687  0.00  0.00    -0.471 OA
ATOM     23  C   UNL     1      32.493 -20.360 -19.660  0.00  0.00    +0.252 C 
ENDBRANCH   5  22
BRANCH   1  24
ATOM     24  C   UNL     1      34.843 -23.681 -14.683  0.00  0.00    +0.080 C 
BRANCH  24  29
ATOM     25  O   UNL     1      36.716 -25.163 -15.039  0.00  0.00    -0.428 OA
ATOM     26  O   UNL     1      36.631 -23.003 -12.297  0.00  0.00    -0.271 OA
ATOM     27  O   UNL     1      37.731 -27.020 -14.174  0.00  0.00    -0.226 OA
ATOM     28  N   UNL     1      37.344 -25.126 -12.909  0.00  0.00    -0.218 N 
ATOM     29  C   UNL     1      36.340 -23.866 -14.547  0.00  0.00    +0.250 C 
ATOM     30  C   UNL     1      36.776 -23.903 -13.110  0.00  0.00    +0.271 C 
ATOM     31  C   UNL     1      37.310 -25.880 -14.038  0.00  0.00    +0.408 C 
ATOM     32  H   UNL     1      37.730 -25.425 -12.054  0.00  0.00    +0.161 HD
ENDBRANCH  24  29
ENDBRANCH   1  24
TORSDOF 7
ENDMDL
MODEL 8
REMARK VINA RESULT:     -11.5      5.610     10.006
REMARK  Name = 56842109
REMARK  7 active torsions:
REMARK  status: ('A' for Active; 'I' for Inactive)
REMARK    1  A    between atoms: C_1  and  C_24
REMARK    2  A    between atoms: C_3  and  C_9
REMARK    3  A    between atoms: C_5  and  O_22
REMARK    4  A    between atoms: N_8  and  C_11
REMARK    5  A    between atoms: C_11  and  C_12
REMARK    6  A    between atoms: C_15  and  C_21
REMARK    7  A    between atoms: C_24  and  C_29
REMARK                            x       y       z     vdW  Elec       q    Type
REMARK                         _______ _______ _______ _____ _____    ______ ____
ROOT
ATOM      1  C   UNL     1      34.881 -18.526 -22.499  0.00  0.00    -0.018 C 
ATOM      2  C   UNL     1      33.949 -19.218 -21.725  0.00  0.00    +0.003 C 
ATOM      3  C   UNL     1      34.345 -19.826 -20.534  0.00  0.00    +0.087 C 
ATOM      4  C   UNL     1      36.209 -18.443 -22.081  0.00  0.00    -0.001 C 
ATOM      5  C   UNL     1      35.672 -19.742 -20.116  0.00  0.00    +0.143 C 
ATOM      6  C   UNL     1      36.605 -19.051 -20.889  0.00  0.00    +0.037 C 
ENDROOT
BRANCH   3   9
ATOM      7  O   UNL     1      32.153 -20.231 -19.806  0.00  0.00    -0.270 OA
ATOM      8  N   UNL     1      33.821 -21.587 -18.936  0.00  0.00    -0.297 N 
ATOM      9  C   UNL     1      33.355 -20.541 -19.740  0.00  0.00    +0.249 C 
ATOM     10  H   UNL     1      34.787 -21.777 -18.933  0.00  0.00    +0.150 HD
BRANCH   8  11
ATOM     11  C   UNL     1      32.961 -22.403 -18.111  0.00  0.00    +0.117 C 
BRANCH  11  12
ATOM     12  C   UNL     1      33.623 -22.794 -16.823  0.00  0.00    -0.003 C 
ATOM     13  C   UNL     1      35.004 -22.656 -16.679  0.00  0.00    -0.003 C 
ATOM     14  C   UNL     1      32.860 -23.296 -15.768  0.00  0.00    -0.003 C 
ATOM     15  C   UNL     1      34.857 -23.520 -14.429  0.00  0.00    +0.071 C 
ATOM     16  C   UNL     1      35.622 -23.019 -15.482  0.00  0.00    +0.004 C 
ATOM     17  C   UNL     1      33.477 -23.659 -14.572  0.00  0.00    +0.004 C 
BRANCH  15  21
ATOM     18  F   UNL     1      34.680 -24.585 -12.310  0.00  0.00    -0.166 F 
ATOM     19  F   UNL     1      36.605 -24.715 -13.313  0.00  0.00    -0.166 F 
ATOM     20  F   UNL     1      35.973 -22.840 -12.424  0.00  0.00    -0.166 F 
ATOM     21  C   UNL     1      35.516 -23.905 -13.147  0.00  0.00    +0.419 C 
ENDBRANCH  15  21
ENDBRANCH  11  12
ENDBRANCH   8  11
ENDBRANCH   3   9
BRANCH   5  22
ATOM     22  O   UNL     1      36.078 -20.327 -18.953  0.00  0.00    -0.471 OA
ATOM     23  C   UNL     1      37.038 -21.377 -19.058  0.00  0.00    +0.252 C 
ENDBRANCH   5  22
BRANCH   1  24
ATOM     24  C   UNL     1      34.452 -17.868 -23.787  0.00  0.00    +0.080 C 
BRANCH  24  29
ATOM     25  O   UNL     1      34.931 -15.816 -22.607  0.00  0.00    -0.428 OA
ATOM     26  O   UNL     1      33.780 -15.767 -25.903  0.00  0.00    -0.271 OA
ATOM     27  O   UNL     1      33.911 -13.982 -21.700  0.00  0.00    -0.226 OA
ATOM     28  N   UNL     1      33.622 -14.584 -23.912  0.00  0.00    -0.218 N 
ATOM     29  C   UNL     1      34.965 -16.448 -23.898  0.00  0.00    +0.250 C 
ATOM     30  C   UNL     1      34.060 -15.583 -24.729  0.00  0.00    +0.271 C 
ATOM     31  C   UNL     1      34.124 -14.713 -22.656  0.00  0.00    +0.408 C 
ATOM     32  H   UNL     1      33.018 -13.860 -24.195  0.00  0.00    +0.161 HD
ENDBRANCH  24  29
ENDBRANCH   1  24
TORSDOF 7
ENDMDL
MODEL 9
REMARK VINA RESULT:     -11.4      7.574     12.120
REMARK  Name = 56842109
REMARK  7 active torsions:
REMARK  status: ('A' for Active; 'I' for Inactive)
REMARK    1  A    between atoms: C_1  and  C_24
REMARK    2  A    between atoms: C_3  and  C_9
REMARK    3  A    between atoms: C_5  and  O_22
REMARK    4  A    between atoms: N_8  and  C_11
REMARK    5  A    between atoms: C_11  and  C_12
REMARK    6  A    between atoms: C_15  and  C_21
REMARK    7  A    between atoms: C_24  and  C_29
REMARK                            x       y       z     vdW  Elec       q    Type
REMARK                         _______ _______ _______ _____ _____    ______ ____
ROOT
ATOM      1  C   UNL     1      33.030 -13.315 -21.310  0.00  0.00    -0.018 C 
ATOM      2  C   UNL     1      33.831 -14.335 -20.795  0.00  0.00    +0.003 C 
ATOM      3  C   UNL     1      34.461 -15.231 -21.660  0.00  0.00    +0.087 C 
ATOM      4  C   UNL     1      32.860 -13.191 -22.688  0.00  0.00    -0.001 C 
ATOM      5  C   UNL     1      34.291 -15.106 -23.038  0.00  0.00    +0.143 C 
ATOM      6  C   UNL     1      33.490 -14.087 -23.553  0.00  0.00    +0.037 C 
ENDROOT
BRANCH   3   9
ATOM      7  O   UNL     1      35.412 -16.410 -19.871  0.00  0.00    -0.270 OA
ATOM      8  N   UNL     1      35.920 -17.148 -22.010  0.00  0.00    -0.297 N 
ATOM      9  C   UNL     1      35.294 -16.287 -21.102  0.00  0.00    +0.249 C 
ATOM     10  H   UNL     1      35.783 -16.990 -22.972  0.00  0.00    +0.150 HD
BRANCH   8  11
ATOM     11  C   UNL     1      36.758 -18.255 -21.611  0.00  0.00    +0.117 C 
BRANCH  11  12
ATOM     12  C   UNL     1      36.004 -19.266 -20.798  0.00  0.00    -0.003 C 
ATOM     13  C   UNL     1      36.676 -20.047 -19.857  0.00  0.00    -0.003 C 
ATOM     14  C   UNL     1      34.630 -19.427 -20.982  0.00  0.00    -0.003 C 
ATOM     15  C   UNL     1      34.603 -21.146 -19.285  0.00  0.00    +0.071 C 
ATOM     16  C   UNL     1      35.977 -20.987 -19.101  0.00  0.00    +0.004 C 
ATOM     17  C   UNL     1      33.931 -20.367 -20.227  0.00  0.00    +0.004 C 
BRANCH  15  21
ATOM     18  F   UNL     1      34.462 -22.422 -17.284  0.00  0.00    -0.166 F 
ATOM     19  F   UNL     1      32.584 -21.757 -18.156  0.00  0.00    -0.166 F 
ATOM     20  F   UNL     1      33.707 -23.356 -19.097  0.00  0.00    -0.166 F 
ATOM     21  C   UNL     1      33.854 -22.149 -18.475  0.00  0.00    +0.419 C 
ENDBRANCH  15  21
ENDBRANCH  11  12
ENDBRANCH   8  11
ENDBRANCH   3   9
BRANCH   5  22
ATOM     22  O   UNL     1      34.901 -15.970 -23.899  0.00  0.00    -0.471 OA
ATOM     23  C   UNL     1      34.057 -16.711 -24.778  0.00  0.00    +0.252 C 
ENDBRANCH   5  22
BRANCH   1  24
ATOM     24  C   UNL     1      32.350 -12.347 -20.375  0.00  0.00    +0.080 C 
BRANCH  24  29
ATOM     25  O   UNL     1      32.516 -10.699 -22.132  0.00  0.00    -0.428 OA
ATOM     26  O   UNL     1      30.677 -10.056 -19.234  0.00  0.00    -0.271 OA
ATOM     27  O   UNL     1      33.428  -8.656 -22.602  0.00  0.00    -0.226 OA
ATOM     28  N   UNL     1      32.041  -8.996 -20.787  0.00  0.00    -0.218 N 
ATOM     29  C   UNL     1      31.645 -11.234 -21.122  0.00  0.00    +0.250 C 
ATOM     30  C   UNL     1      31.367 -10.049 -20.242  0.00  0.00    +0.271 C 
ATOM     31  C   UNL     1      32.726  -9.368 -21.899  0.00  0.00    +0.408 C 
ATOM     32  H   UNL     1      32.031  -8.082 -20.421  0.00  0.00    +0.161 HD
ENDBRANCH  24  29
ENDBRANCH   1  24
TORSDOF 7
ENDMDL
