MODEL 1
REMARK VINA RESULT:     -12.0      0.000      0.000
REMARK  Name = 42628063
REMARK  6 active torsions:
REMARK  status: ('A' for Active; 'I' for Inactive)
REMARK    1  A    between atoms: C_1  and  N_3
REMARK    2  A    between atoms: C_1  and  C_21
REMARK    3  A    between atoms: C_4  and  N_10
REMARK    4  A    between atoms: C_11  and  C_15
REMARK    5  A    between atoms: N_20  and  C_24
REMARK    6  A    between atoms: C_27  and  N_31
REMARK                            x       y       z     vdW  Elec       q    Type
REMARK                         _______ _______ _______ _____ _____    ______ ____
ROOT
ATOM      1  C   UNL     1      35.692 -21.062 -19.942  0.00  0.00    +0.010 C 
ENDROOT
BRANCH   1   3
ATOM      2  F   UNL     1      33.360 -22.530 -16.413  0.00  0.00    -0.238 F 
ATOM      3  N   UNL     1      35.268 -21.370 -18.584  0.00  0.00    +0.396 N 
ATOM      4  C   UNL     1      35.689 -22.251 -16.482  0.00  0.00    +0.082 C 
ATOM      5  C   UNL     1      34.473 -22.969 -17.059  0.00  0.00    +0.156 C 
ATOM      6  C   UNL     1      36.396 -21.671 -17.701  0.00  0.00    -0.054 C 
ATOM      7  C   UNL     1      34.403 -22.553 -18.522  0.00  0.00    -0.039 C 
ATOM      8  H   UNL     1      34.773 -20.532 -18.284  0.00  0.00    -0.079 HD
BRANCH   4  10
ATOM      9  O   UNL     1      35.316 -23.074 -13.757  0.00  0.00    -0.270 OA
ATOM     10  N   UNL     1      36.546 -23.120 -15.724  0.00  0.00    -0.302 N 
ATOM     11  C   UNL     1      36.285 -23.465 -14.402  0.00  0.00    +0.252 C 
ATOM     12  H   UNL     1      37.350 -23.485 -16.157  0.00  0.00    +0.150 HD
BRANCH  11  15
ATOM     13 CL   UNL     1      40.827 -26.442 -13.355  0.00  0.00    -0.075 Cl
ATOM     14  S   UNL     1      38.753 -24.690 -14.555  0.00  0.00    -0.071 S 
ATOM     15  C   UNL     1      37.281 -24.354 -13.749  0.00  0.00    +0.084 C 
ATOM     16  C   UNL     1      37.204 -24.984 -12.527  0.00  0.00    +0.012 C 
ATOM     17  C   UNL     1      38.370 -25.755 -12.249  0.00  0.00    +0.019 C 
ATOM     18  C   UNL     1      39.294 -25.682 -13.269  0.00  0.00    +0.087 C 
ENDBRANCH  11  15
ENDBRANCH   4  10
ENDBRANCH   1   3
BRANCH   1  21
ATOM     19  O   UNL     1      33.681 -19.759 -20.227  0.00  0.00    -0.277 OA
ATOM     20  N   UNL     1      35.679 -19.056 -21.240  0.00  0.00    -0.284 N 
ATOM     21  C   UNL     1      34.875 -19.896 -20.474  0.00  0.00    +0.205 C 
ATOM     22  H   UNL     1      36.623 -19.318 -21.329  0.00  0.00    +0.155 HD
BRANCH  20  24
ATOM     23  F   UNL     1      34.796 -19.084 -23.884  0.00  0.00    -0.203 F 
ATOM     24  C   UNL     1      35.296 -17.867 -21.905  0.00  0.00    +0.078 C 
ATOM     25  C   UNL     1      34.858 -17.915 -23.230  0.00  0.00    +0.155 C 
ATOM     26  C   UNL     1      35.356 -16.644 -21.236  0.00  0.00    +0.018 C 
ATOM     27  C   UNL     1      34.541 -15.521 -23.213  0.00  0.00    +0.061 C 
ATOM     28  C   UNL     1      34.481 -16.743 -23.883  0.00  0.00    +0.046 C 
ATOM     29  C   UNL     1      34.978 -15.472 -21.890  0.00  0.00    +0.017 C 
BRANCH  27  31
ATOM     30  O   UNL     1      33.544 -15.364 -25.924  0.00  0.00    -0.269 OA
ATOM     31  N   UNL     1      34.148 -14.301 -23.893  0.00  0.00    -0.233 N 
ATOM     32  C   UNL     1      33.712 -14.353 -25.242  0.00  0.00    +0.257 C 
ATOM     33  C   UNL     1      34.176 -13.076 -23.223  0.00  0.00    +0.072 C 
ATOM     34  C   UNL     1      33.370 -13.044 -25.882  0.00  0.00    +0.059 C 
ATOM     35  C   UNL     1      33.834 -11.923 -23.807  0.00  0.00    +0.017 C 
ATOM     36  C   UNL     1      33.426 -11.910 -25.180  0.00  0.00    +0.006 C 
ENDBRANCH  27  31
ENDBRANCH  20  24
ENDBRANCH   1  21
TORSDOF 6
ENDMDL
MODEL 2
REMARK VINA RESULT:     -11.8      6.984     13.395
REMARK  Name = 42628063
REMARK  6 active torsions:
REMARK  status: ('A' for Active; 'I' for Inactive)
REMARK    1  A    between atoms: C_1  and  N_3
REMARK    2  A    between atoms: C_1  and  C_21
REMARK    3  A    between atoms: C_4  and  N_10
REMARK    4  A    between atoms: C_11  and  C_15
REMARK    5  A    between atoms: N_20  and  C_24
REMARK    6  A    between atoms: C_27  and  N_31
REMARK                            x       y       z     vdW  Elec       q    Type
REMARK                         _______ _______ _______ _____ _____    ______ ____
ROOT
ATOM      1  C   UNL     1      33.496 -13.112 -24.879  0.00  0.00    +0.010 C 
ENDROOT
BRANCH   1   3
ATOM      2  F   UNL     1      36.410  -9.715 -24.989  0.00  0.00    -0.238 F 
ATOM      3  N   UNL     1      34.295 -11.951 -24.515  0.00  0.00    +0.396 N 
ATOM      4  C   UNL     1      34.477  -9.804 -23.662  0.00  0.00    +0.082 C 
ATOM      5  C   UNL     1      35.056  -9.801 -25.074  0.00  0.00    +0.156 C 
ATOM      6  C   UNL     1      33.579 -11.035 -23.627  0.00  0.00    -0.054 C 
ATOM      7  C   UNL     1      34.673 -11.144 -25.680  0.00  0.00    -0.039 C 
ATOM      8  H   UNL     1      35.114 -12.350 -24.058  0.00  0.00    -0.079 HD
BRANCH   4  10
ATOM      9  O   UNL     1      32.525  -9.468 -21.584  0.00  0.00    -0.270 OA
ATOM     10  N   UNL     1      33.757  -8.601 -23.348  0.00  0.00    -0.302 N 
ATOM     11  C   UNL     1      32.825  -8.531 -22.318  0.00  0.00    +0.252 C 
ATOM     12  H   UNL     1      33.930  -7.794 -23.883  0.00  0.00    +0.150 HD
BRANCH  11  15
ATOM     13 CL   UNL     1      31.800  -3.235 -21.096  0.00  0.00    -0.075 Cl
ATOM     14  S   UNL     1      33.036  -5.904 -21.499  0.00  0.00    -0.071 S 
ATOM     15  C   UNL     1      32.147  -7.220 -22.138  0.00  0.00    +0.084 C 
ATOM     16  C   UNL     1      30.844  -6.877 -22.421  0.00  0.00    +0.012 C 
ATOM     17  C   UNL     1      30.570  -5.514 -22.108  0.00  0.00    +0.019 C 
ATOM     18  C   UNL     1      31.676  -4.868 -21.599  0.00  0.00    +0.087 C 
ENDBRANCH  11  15
ENDBRANCH   4  10
ENDBRANCH   1   3
BRANCH   1  21
ATOM     19  O   UNL     1      32.692 -13.905 -22.748  0.00  0.00    -0.277 OA
ATOM     20  N   UNL     1      34.329 -15.128 -23.903  0.00  0.00    -0.284 N 
ATOM     21  C   UNL     1      33.439 -14.075 -23.705  0.00  0.00    +0.205 C 
ATOM     22  H   UNL     1      34.849 -15.107 -24.738  0.00  0.00    +0.155 HD
BRANCH  20  24
ATOM     23  F   UNL     1      34.101 -17.758 -24.798  0.00  0.00    -0.203 F 
ATOM     24  C   UNL     1      34.571 -16.226 -23.044  0.00  0.00    +0.078 C 
ATOM     25  C   UNL     1      34.448 -17.531 -23.522  0.00  0.00    +0.155 C 
ATOM     26  C   UNL     1      34.932 -16.002 -21.715  0.00  0.00    +0.018 C 
ATOM     27  C   UNL     1      35.049 -18.387 -21.346  0.00  0.00    +0.061 C 
ATOM     28  C   UNL     1      34.687 -18.611 -22.674  0.00  0.00    +0.046 C 
ATOM     29  C   UNL     1      35.172 -17.083 -20.866  0.00  0.00    +0.017 C 
BRANCH  27  31
ATOM     30  O   UNL     1      37.630 -19.132 -20.274  0.00  0.00    -0.269 OA
ATOM     31  N   UNL     1      35.298 -19.510 -20.463  0.00  0.00    -0.233 N 
ATOM     32  C   UNL     1      36.621 -19.795 -20.036  0.00  0.00    +0.257 C 
ATOM     33  C   UNL     1      34.242 -20.303 -20.009  0.00  0.00    +0.072 C 
ATOM     34  C   UNL     1      36.795 -20.998 -19.165  0.00  0.00    +0.059 C 
ATOM     35  C   UNL     1      34.419 -21.354 -19.203  0.00  0.00    +0.017 C 
ATOM     36  C   UNL     1      35.738 -21.714 -18.775  0.00  0.00    +0.006 C 
ENDBRANCH  27  31
ENDBRANCH  20  24
ENDBRANCH   1  21
TORSDOF 6
ENDMDL
MODEL 3
REMARK VINA RESULT:     -11.4      4.994     12.170
REMARK  Name = 42628063
REMARK  6 active torsions:
REMARK  status: ('A' for Active; 'I' for Inactive)
REMARK    1  A    between atoms: C_1  and  N_3
REMARK    2  A    between atoms: C_1  and  C_21
REMARK    3  A    between atoms: C_4  and  N_10
REMARK    4  A    between atoms: C_11  and  C_15
REMARK    5  A    between atoms: N_20  and  C_24
REMARK    6  A    between atoms: C_27  and  N_31
REMARK                            x       y       z     vdW  Elec       q    Type
REMARK                         _______ _______ _______ _____ _____    ______ ____
ROOT
ATOM      1  C   UNL     1      34.926 -20.319 -20.827  0.00  0.00    +0.010 C 
ENDROOT
BRANCH   1   3
ATOM      2  F   UNL     1      35.845 -17.050 -23.744  0.00  0.00    -0.238 F 
ATOM      3  N   UNL     1      35.303 -19.040 -21.411  0.00  0.00    +0.396 N 
ATOM      4  C   UNL     1      35.105 -16.735 -21.540  0.00  0.00    +0.082 C 
ATOM      5  C   UNL     1      34.797 -17.312 -22.918  0.00  0.00    +0.156 C 
ATOM      6  C   UNL     1      34.890 -17.904 -20.587  0.00  0.00    -0.054 C 
ATOM      7  C   UNL     1      34.677 -18.817 -22.719  0.00  0.00    -0.039 C 
ATOM      8  H   UNL     1      36.318 -19.094 -21.489  0.00  0.00    -0.079 HD
BRANCH   4  10
ATOM      9  O   UNL     1      35.079 -14.182 -22.851  0.00  0.00    -0.270 OA
ATOM     10  N   UNL     1      34.279 -15.608 -21.206  0.00  0.00    -0.302 N 
ATOM     11  C   UNL     1      34.335 -14.404 -21.901  0.00  0.00    +0.252 C 
ATOM     12  H   UNL     1      33.647 -15.691 -20.457  0.00  0.00    +0.150 HD
BRANCH  11  15
ATOM     13 CL   UNL     1      31.310  -9.784 -21.594  0.00  0.00    -0.075 Cl
ATOM     14  S   UNL     1      33.099 -11.996 -22.441  0.00  0.00    -0.071 S 
ATOM     15  C   UNL     1      33.433 -13.327 -21.417  0.00  0.00    +0.084 C 
ATOM     16  C   UNL     1      32.784 -13.224 -20.206  0.00  0.00    +0.012 C 
ATOM     17  C   UNL     1      32.002 -12.035 -20.117  0.00  0.00    +0.019 C 
ATOM     18  C   UNL     1      32.084 -11.276 -21.265  0.00  0.00    +0.087 C 
ENDBRANCH  11  15
ENDBRANCH   4  10
ENDBRANCH   1   3
BRANCH   1  21
ATOM     19  O   UNL     1      36.838 -20.011 -19.388  0.00  0.00    -0.277 OA
ATOM     20  N   UNL     1      35.139 -21.507 -18.764  0.00  0.00    -0.284 N 
ATOM     21  C   UNL     1      35.768 -20.576 -19.588  0.00  0.00    +0.205 C 
ATOM     22  H   UNL     1      34.276 -21.855 -19.081  0.00  0.00    +0.155 HD
BRANCH  20  24
ATOM     23  F   UNL     1      33.470 -22.963 -17.072  0.00  0.00    -0.203 F 
ATOM     24  C   UNL     1      35.599 -22.009 -17.523  0.00  0.00    +0.078 C 
ATOM     25  C   UNL     1      34.737 -22.735 -16.699  0.00  0.00    +0.155 C 
ATOM     26  C   UNL     1      36.915 -21.778 -17.123  0.00  0.00    +0.018 C 
ATOM     27  C   UNL     1      36.509 -22.998 -15.078  0.00  0.00    +0.061 C 
ATOM     28  C   UNL     1      35.192 -23.229 -15.477  0.00  0.00    +0.046 C 
ATOM     29  C   UNL     1      37.370 -22.272 -15.901  0.00  0.00    +0.017 C 
BRANCH  27  31
ATOM     30  O   UNL     1      37.597 -25.642 -14.645  0.00  0.00    -0.269 OA
ATOM     31  N   UNL     1      36.982 -23.512 -13.808  0.00  0.00    -0.233 N 
ATOM     32  C   UNL     1      37.458 -24.846 -13.717  0.00  0.00    +0.257 C 
ATOM     33  C   UNL     1      36.994 -22.697 -12.674  0.00  0.00    +0.072 C 
ATOM     34  C   UNL     1      37.884 -25.310 -12.361  0.00  0.00    +0.059 C 
ATOM     35  C   UNL     1      37.411 -23.126 -11.478  0.00  0.00    +0.017 C 
ATOM     36  C   UNL     1      37.862 -24.475 -11.319  0.00  0.00    +0.006 C 
ENDBRANCH  27  31
ENDBRANCH  20  24
ENDBRANCH   1  21
TORSDOF 6
ENDMDL
MODEL 4
REMARK VINA RESULT:     -11.3      4.820      8.150
REMARK  Name = 42628063
REMARK  6 active torsions:
REMARK  status: ('A' for Active; 'I' for Inactive)
REMARK    1  A    between atoms: C_1  and  N_3
REMARK    2  A    between atoms: C_1  and  C_21
REMARK    3  A    between atoms: C_4  and  N_10
REMARK    4  A    between atoms: C_11  and  C_15
REMARK    5  A    between atoms: N_20  and  C_24
REMARK    6  A    between atoms: C_27  and  N_31
REMARK                            x       y       z     vdW  Elec       q    Type
REMARK                         _______ _______ _______ _____ _____    ______ ____
ROOT
ATOM      1  C   UNL     1      33.959 -14.729 -24.370  0.00  0.00    +0.010 C 
ENDROOT
BRANCH   1   3
ATOM      2  F   UNL     1      35.230 -14.152 -20.116  0.00  0.00    -0.238 F 
ATOM      3  N   UNL     1      34.641 -14.860 -23.092  0.00  0.00    +0.396 N 
ATOM      4  C   UNL     1      35.408 -16.154 -21.329  0.00  0.00    +0.082 C 
ATOM      5  C   UNL     1      34.479 -15.086 -20.760  0.00  0.00    +0.156 C 
ATOM      6  C   UNL     1      35.023 -16.242 -22.800  0.00  0.00    -0.054 C 
ATOM      7  C   UNL     1      33.801 -14.445 -21.963  0.00  0.00    -0.039 C 
ATOM      8  H   UNL     1      35.460 -14.260 -23.186  0.00  0.00    -0.079 HD
BRANCH   4  10
ATOM      9  O   UNL     1      37.205 -18.384 -21.533  0.00  0.00    -0.270 OA
ATOM     10  N   UNL     1      35.284 -17.420 -20.661  0.00  0.00    -0.302 N 
ATOM     11  C   UNL     1      36.207 -18.447 -20.820  0.00  0.00    +0.252 C 
ATOM     12  H   UNL     1      34.514 -17.565 -20.066  0.00  0.00    +0.150 HD
BRANCH  11  15
ATOM     13 CL   UNL     1      33.621 -22.806 -18.604  0.00  0.00    -0.075 Cl
ATOM     14  S   UNL     1      34.319 -20.304 -20.042  0.00  0.00    -0.071 S 
ATOM     15  C   UNL     1      35.922 -19.704 -20.079  0.00  0.00    +0.084 C 
ATOM     16  C   UNL     1      36.793 -20.509 -19.380  0.00  0.00    +0.012 C 
ATOM     17  C   UNL     1      36.135 -21.635 -18.804  0.00  0.00    +0.019 C 
ATOM     18  C   UNL     1      34.787 -21.647 -19.087  0.00  0.00    +0.087 C 
ENDBRANCH  11  15
ENDBRANCH   4  10
ENDBRANCH   1   3
BRANCH   1  21
ATOM     19  O   UNL     1      32.683 -12.981 -25.437  0.00  0.00    -0.277 OA
ATOM     20  N   UNL     1      33.834 -12.531 -23.441  0.00  0.00    -0.284 N 
ATOM     21  C   UNL     1      33.406 -13.320 -24.506  0.00  0.00    +0.205 C 
ATOM     22  H   UNL     1      34.410 -12.971 -22.776  0.00  0.00    +0.155 HD
BRANCH  20  24
ATOM     23  F   UNL     1      35.312 -10.488 -24.630  0.00  0.00    -0.203 F 
ATOM     24  C   UNL     1      33.537 -11.167 -23.204  0.00  0.00    +0.078 C 
ATOM     25  C   UNL     1      34.296 -10.168 -23.815  0.00  0.00    +0.155 C 
ATOM     26  C   UNL     1      32.484 -10.822 -22.358  0.00  0.00    +0.018 C 
ATOM     27  C   UNL     1      32.948  -8.481 -22.735  0.00  0.00    +0.061 C 
ATOM     28  C   UNL     1      34.002  -8.826 -23.580  0.00  0.00    +0.046 C 
ATOM     29  C   UNL     1      32.188  -9.479 -22.123  0.00  0.00    +0.017 C 
BRANCH  27  31
ATOM     30  O   UNL     1      33.462  -7.064 -20.267  0.00  0.00    -0.269 OA
ATOM     31  N   UNL     1      32.641  -7.085 -22.490  0.00  0.00    -0.233 N 
ATOM     32  C   UNL     1      32.907  -6.515 -21.218  0.00  0.00    +0.257 C 
ATOM     33  C   UNL     1      32.105  -6.288 -23.504  0.00  0.00    +0.072 C 
ATOM     34  C   UNL     1      32.517  -5.082 -21.036  0.00  0.00    +0.059 C 
ATOM     35  C   UNL     1      31.796  -5.000 -23.327  0.00  0.00    +0.017 C 
ATOM     36  C   UNL     1      32.003  -4.383 -22.051  0.00  0.00    +0.006 C 
ENDBRANCH  27  31
ENDBRANCH  20  24
ENDBRANCH   1  21
TORSDOF 6
ENDMDL
MODEL 5
REMARK VINA RESULT:     -11.2      7.858     14.350
REMARK  Name = 42628063
REMARK  6 active torsions:
REMARK  status: ('A' for Active; 'I' for Inactive)
REMARK    1  A    between atoms: C_1  and  N_3
REMARK    2  A    between atoms: C_1  and  C_21
REMARK    3  A    between atoms: C_4  and  N_10
REMARK    4  A    between atoms: C_11  and  C_15
REMARK    5  A    between atoms: N_20  and  C_24
REMARK    6  A    between atoms: C_27  and  N_31
REMARK                            x       y       z     vdW  Elec       q    Type
REMARK                         _______ _______ _______ _____ _____    ______ ____
ROOT
ATOM      1  C   UNL     1      34.137 -11.777 -23.778  0.00  0.00    +0.010 C 
ENDROOT
BRANCH   1   3
ATOM      2  F   UNL     1      31.117  -9.732 -21.182  0.00  0.00    -0.238 F 
ATOM      3  N   UNL     1      33.060 -10.920 -23.307  0.00  0.00    +0.396 N 
ATOM      4  C   UNL     1      32.052  -8.839 -23.140  0.00  0.00    +0.082 C 
ATOM      5  C   UNL     1      32.304  -9.354 -21.726  0.00  0.00    +0.156 C 
ATOM      6  C   UNL     1      33.017  -9.637 -24.009  0.00  0.00    -0.054 C 
ATOM      7  C   UNL     1      33.196 -10.578 -21.886  0.00  0.00    -0.039 C 
ATOM      8  H   UNL     1      32.216 -11.466 -23.478  0.00  0.00    -0.079 HD
BRANCH   4  10
ATOM      9  O   UNL     1      30.227  -6.768 -22.352  0.00  0.00    -0.270 OA
ATOM     10  N   UNL     1      32.256  -7.423 -23.266  0.00  0.00    -0.302 N 
ATOM     11  C   UNL     1      31.312  -6.488 -22.855  0.00  0.00    +0.252 C 
ATOM     12  H   UNL     1      33.099  -7.101 -23.658  0.00  0.00    +0.150 HD
BRANCH  11  15
ATOM     13 CL   UNL     1      33.144  -1.786 -25.117  0.00  0.00    -0.075 Cl
ATOM     14  S   UNL     1      32.400  -4.603 -24.552  0.00  0.00    -0.071 S 
ATOM     15  C   UNL     1      31.664  -5.062 -23.075  0.00  0.00    +0.084 C 
ATOM     16  C   UNL     1      31.479  -3.987 -22.234  0.00  0.00    +0.012 C 
ATOM     17  C   UNL     1      31.950  -2.771 -22.808  0.00  0.00    +0.019 C 
ATOM     18  C   UNL     1      32.474  -2.962 -24.068  0.00  0.00    +0.087 C 
ENDBRANCH  11  15
ENDBRANCH   4  10
ENDBRANCH   1   3
BRANCH   1  21
ATOM     19  O   UNL     1      32.813 -13.794 -23.766  0.00  0.00    -0.277 OA
ATOM     20  N   UNL     1      34.870 -13.743 -22.635  0.00  0.00    -0.284 N 
ATOM     21  C   UNL     1      33.835 -13.219 -23.406  0.00  0.00    +0.205 C 
ATOM     22  H   UNL     1      35.621 -13.137 -22.444  0.00  0.00    +0.155 HD
BRANCH  20  24
ATOM     23  F   UNL     1      35.221 -15.977 -24.265  0.00  0.00    -0.203 F 
ATOM     24  C   UNL     1      34.966 -15.047 -22.093  0.00  0.00    +0.078 C 
ATOM     25  C   UNL     1      35.142 -16.145 -22.937  0.00  0.00    +0.155 C 
ATOM     26  C   UNL     1      34.885 -15.235 -20.713  0.00  0.00    +0.018 C 
ATOM     27  C   UNL     1      35.156 -17.616 -21.022  0.00  0.00    +0.061 C 
ATOM     28  C   UNL     1      35.237 -17.428 -22.401  0.00  0.00    +0.046 C 
ATOM     29  C   UNL     1      34.980 -16.519 -20.178  0.00  0.00    +0.017 C 
BRANCH  27  31
ATOM     30  O   UNL     1      37.614 -18.922 -20.235  0.00  0.00    -0.269 OA
ATOM     31  N   UNL     1      35.255 -18.951 -20.464  0.00  0.00    -0.233 N 
ATOM     32  C   UNL     1      36.528 -19.496 -20.154  0.00  0.00    +0.257 C 
ATOM     33  C   UNL     1      34.104 -19.699 -20.208  0.00  0.00    +0.072 C 
ATOM     34  C   UNL     1      36.544 -20.896 -19.627  0.00  0.00    +0.059 C 
ATOM     35  C   UNL     1      34.142 -20.938 -19.705  0.00  0.00    +0.017 C 
ATOM     36  C   UNL     1      35.401 -21.553 -19.413  0.00  0.00    +0.006 C 
ENDBRANCH  27  31
ENDBRANCH  20  24
ENDBRANCH   1  21
TORSDOF 6
ENDMDL
MODEL 6
REMARK VINA RESULT:     -11.2      7.583     13.780
REMARK  Name = 42628063
REMARK  6 active torsions:
REMARK  status: ('A' for Active; 'I' for Inactive)
REMARK    1  A    between atoms: C_1  and  N_3
REMARK    2  A    between atoms: C_1  and  C_21
REMARK    3  A    between atoms: C_4  and  N_10
REMARK    4  A    between atoms: C_11  and  C_15
REMARK    5  A    between atoms: N_20  and  C_24
REMARK    6  A    between atoms: C_27  and  N_31
REMARK                            x       y       z     vdW  Elec       q    Type
REMARK                         _______ _______ _______ _____ _____    ______ ____
ROOT
ATOM      1  C   UNL     1      34.233 -12.184 -24.033  0.00  0.00    +0.010 C 
ENDROOT
BRANCH   1   3
ATOM      2  F   UNL     1      30.737 -11.106 -21.453  0.00  0.00    -0.238 F 
ATOM      3  N   UNL     1      33.070 -11.510 -23.476  0.00  0.00    +0.396 N 
ATOM      4  C   UNL     1      32.010  -9.594 -22.718  0.00  0.00    +0.082 C 
ATOM      5  C   UNL     1      31.999 -10.617 -21.586  0.00  0.00    +0.156 C 
ATOM      6  C   UNL     1      33.137 -10.057 -23.632  0.00  0.00    -0.054 C 
ATOM      7  C   UNL     1      32.928 -11.738 -22.034  0.00  0.00    -0.039 C 
ATOM      8  H   UNL     1      32.285 -11.904 -23.993  0.00  0.00    -0.079 HD
BRANCH   4  10
ATOM      9  O   UNL     1      30.129  -7.431 -22.882  0.00  0.00    -0.270 OA
ATOM     10  N   UNL     1      32.208  -8.248 -22.255  0.00  0.00    -0.302 N 
ATOM     11  C   UNL     1      31.236  -7.261 -22.377  0.00  0.00    +0.252 C 
ATOM     12  H   UNL     1      33.066  -8.015 -21.834  0.00  0.00    +0.150 HD
BRANCH  11  15
ATOM     13 CL   UNL     1      31.514  -1.786 -21.640  0.00  0.00    -0.075 Cl
ATOM     14  S   UNL     1      30.869  -4.532 -22.566  0.00  0.00    -0.071 S 
ATOM     15  C   UNL     1      31.604  -5.913 -21.871  0.00  0.00    +0.084 C 
ATOM     16  C   UNL     1      32.492  -5.580 -20.873  0.00  0.00    +0.012 C 
ATOM     17  C   UNL     1      32.572  -4.170 -20.676  0.00  0.00    +0.019 C 
ATOM     18  C   UNL     1      31.740  -3.481 -21.532  0.00  0.00    +0.087 C 
ENDBRANCH  11  15
ENDBRANCH   4  10
ENDBRANCH   1   3
BRANCH   1  21
ATOM     19  O   UNL     1      33.501 -14.422 -24.559  0.00  0.00    -0.277 OA
ATOM     20  N   UNL     1      34.783 -14.039 -22.631  0.00  0.00    -0.284 N 
ATOM     21  C   UNL     1      34.111 -13.680 -23.796  0.00  0.00    +0.205 C 
ATOM     22  H   UNL     1      35.226 -13.310 -22.141  0.00  0.00    +0.155 HD
BRANCH  20  24
ATOM     23  F   UNL     1      34.851 -14.430 -19.871  0.00  0.00    -0.203 F 
ATOM     24  C   UNL     1      34.905 -15.333 -22.068  0.00  0.00    +0.078 C 
ATOM     25  C   UNL     1      34.936 -15.494 -20.682  0.00  0.00    +0.155 C 
ATOM     26  C   UNL     1      34.995 -16.448 -22.902  0.00  0.00    +0.018 C 
ATOM     27  C   UNL     1      35.144 -17.884 -20.965  0.00  0.00    +0.061 C 
ATOM     28  C   UNL     1      35.055 -16.769 -20.131  0.00  0.00    +0.046 C 
ATOM     29  C   UNL     1      35.114 -17.723 -22.350  0.00  0.00    +0.017 C 
BRANCH  27  31
ATOM     30  O   UNL     1      37.620 -19.110 -20.111  0.00  0.00    -0.269 OA
ATOM     31  N   UNL     1      35.268 -19.210 -20.391  0.00  0.00    -0.233 N 
ATOM     32  C   UNL     1      36.550 -19.715 -20.049  0.00  0.00    +0.257 C 
ATOM     33  C   UNL     1      34.134 -19.988 -20.152  0.00  0.00    +0.072 C 
ATOM     34  C   UNL     1      36.593 -21.108 -19.507  0.00  0.00    +0.059 C 
ATOM     35  C   UNL     1      34.196 -21.220 -19.635  0.00  0.00    +0.017 C 
ATOM     36  C   UNL     1      35.466 -21.796 -19.310  0.00  0.00    +0.006 C 
ENDBRANCH  27  31
ENDBRANCH  20  24
ENDBRANCH   1  21
TORSDOF 6
ENDMDL
MODEL 7
REMARK VINA RESULT:     -11.1      5.536     11.955
REMARK  Name = 42628063
REMARK  6 active torsions:
REMARK  status: ('A' for Active; 'I' for Inactive)
REMARK    1  A    between atoms: C_1  and  N_3
REMARK    2  A    between atoms: C_1  and  C_21
REMARK    3  A    between atoms: C_4  and  N_10
REMARK    4  A    between atoms: C_11  and  C_15
REMARK    5  A    between atoms: N_20  and  C_24
REMARK    6  A    between atoms: C_27  and  N_31
REMARK                            x       y       z     vdW  Elec       q    Type
REMARK                         _______ _______ _______ _____ _____    ______ ____
ROOT
ATOM      1  C   UNL     1      34.176 -17.667 -24.134  0.00  0.00    +0.010 C 
ENDROOT
BRANCH   1   3
ATOM      2  F   UNL     1      34.061 -13.567 -25.928  0.00  0.00    -0.238 F 
ATOM      3  N   UNL     1      34.333 -16.236 -24.347  0.00  0.00    +0.396 N 
ATOM      4  C   UNL     1      34.095 -14.044 -23.631  0.00  0.00    +0.082 C 
ATOM      5  C   UNL     1      33.348 -14.191 -24.953  0.00  0.00    +0.156 C 
ATOM      6  C   UNL     1      34.214 -15.469 -23.105  0.00  0.00    -0.054 C 
ATOM      7  C   UNL     1      33.307 -15.687 -25.239  0.00  0.00    -0.039 C 
ATOM      8  H   UNL     1      35.264 -16.147 -24.752  0.00  0.00    -0.079 HD
BRANCH   4  10
ATOM      9  O   UNL     1      33.779 -11.200 -23.856  0.00  0.00    -0.270 OA
ATOM     10  N   UNL     1      33.424 -13.180 -22.701  0.00  0.00    -0.302 N 
ATOM     11  C   UNL     1      33.319 -11.806 -22.893  0.00  0.00    +0.252 C 
ATOM     12  H   UNL     1      33.021 -13.575 -21.895  0.00  0.00    +0.150 HD
BRANCH  11  15
ATOM     13 CL   UNL     1      31.345  -7.709 -19.744  0.00  0.00    -0.075 Cl
ATOM     14  S   UNL     1      32.712  -9.339 -21.816  0.00  0.00    -0.071 S 
ATOM     15  C   UNL     1      32.615 -11.048 -21.826  0.00  0.00    +0.084 C 
ATOM     16  C   UNL     1      31.851 -11.529 -20.787  0.00  0.00    +0.012 C 
ATOM     17  C   UNL     1      31.338 -10.481 -19.969  0.00  0.00    +0.019 C 
ATOM     18  C   UNL     1      31.730  -9.238 -20.416  0.00  0.00    +0.087 C 
ENDBRANCH  11  15
ENDBRANCH   4  10
ENDBRANCH   1   3
BRANCH   1  21
ATOM     19  O   UNL     1      35.863 -17.467 -22.421  0.00  0.00    -0.277 OA
ATOM     20  N   UNL     1      34.254 -19.171 -22.279  0.00  0.00    -0.284 N 
ATOM     21  C   UNL     1      34.884 -18.068 -22.851  0.00  0.00    +0.205 C 
ATOM     22  H   UNL     1      33.473 -19.524 -22.761  0.00  0.00    +0.155 HD
BRANCH  20  24
ATOM     23  F   UNL     1      32.321 -20.267 -20.596  0.00  0.00    -0.203 F 
ATOM     24  C   UNL     1      34.608 -19.842 -21.084  0.00  0.00    +0.078 C 
ATOM     25  C   UNL     1      33.616 -20.380 -20.263  0.00  0.00    +0.155 C 
ATOM     26  C   UNL     1      35.950 -19.965 -20.727  0.00  0.00    +0.018 C 
ATOM     27  C   UNL     1      35.309 -21.165 -18.730  0.00  0.00    +0.061 C 
ATOM     28  C   UNL     1      33.966 -21.041 -19.087  0.00  0.00    +0.046 C 
ATOM     29  C   UNL     1      36.301 -20.627 -19.550  0.00  0.00    +0.017 C 
BRANCH  27  31
ATOM     30  O   UNL     1      33.713 -23.180 -17.405  0.00  0.00    -0.269 OA
ATOM     31  N   UNL     1      35.674 -21.852 -17.506  0.00  0.00    -0.233 N 
ATOM     32  C   UNL     1      34.782 -22.796 -16.932  0.00  0.00    +0.257 C 
ATOM     33  C   UNL     1      36.907 -21.610 -16.898  0.00  0.00    +0.072 C 
ATOM     34  C   UNL     1      35.215 -23.424 -15.646  0.00  0.00    +0.059 C 
ATOM     35  C   UNL     1      37.286 -22.210 -15.765  0.00  0.00    +0.017 C 
ATOM     36  C   UNL     1      36.409 -23.139 -15.119  0.00  0.00    +0.006 C 
ENDBRANCH  27  31
ENDBRANCH  20  24
ENDBRANCH   1  21
TORSDOF 6
ENDMDL
MODEL 8
REMARK VINA RESULT:     -11.0      5.547     11.704
REMARK  Name = 42628063
REMARK  6 active torsions:
REMARK  status: ('A' for Active; 'I' for Inactive)
REMARK    1  A    between atoms: C_1  and  N_3
REMARK    2  A    between atoms: C_1  and  C_21
REMARK    3  A    between atoms: C_4  and  N_10
REMARK    4  A    between atoms: C_11  and  C_15
REMARK    5  A    between atoms: N_20  and  C_24
REMARK    6  A    between atoms: C_27  and  N_31
REMARK                            x       y       z     vdW  Elec       q    Type
REMARK                         _______ _______ _______ _____ _____    ______ ____
ROOT
ATOM      1  C   UNL     1      36.512 -18.435 -22.314  0.00  0.00    +0.010 C 
ENDROOT
BRANCH   1   3
ATOM      2  F   UNL     1      33.767 -16.362 -25.180  0.00  0.00    -0.238 F 
ATOM      3  N   UNL     1      35.831 -17.416 -23.099  0.00  0.00    +0.396 N 
ATOM      4  C   UNL     1      34.704 -15.397 -23.256  0.00  0.00    +0.082 C 
ATOM      5  C   UNL     1      33.800 -16.487 -23.826  0.00  0.00    +0.156 C 
ATOM      6  C   UNL     1      35.692 -16.152 -22.376  0.00  0.00    -0.054 C 
ATOM      7  C   UNL     1      34.463 -17.807 -23.458  0.00  0.00    -0.039 C 
ATOM      8  H   UNL     1      36.416 -17.310 -23.926  0.00  0.00    -0.079 HD
BRANCH   4  10
ATOM      9  O   UNL     1      33.477 -13.035 -24.330  0.00  0.00    -0.270 OA
ATOM     10  N   UNL     1      33.981 -14.397 -22.521  0.00  0.00    -0.302 N 
ATOM     11  C   UNL     1      33.417 -13.279 -23.128  0.00  0.00    +0.252 C 
ATOM     12  H   UNL     1      33.879 -14.507 -21.549  0.00  0.00    +0.150 HD
BRANCH  11  15
ATOM     13 CL   UNL     1      31.517  -8.636 -20.801  0.00  0.00    -0.075 Cl
ATOM     14  S   UNL     1      32.861 -10.644 -22.524  0.00  0.00    -0.071 S 
ATOM     15  C   UNL     1      32.723 -12.325 -22.226  0.00  0.00    +0.084 C 
ATOM     16  C   UNL     1      31.938 -12.592 -21.127  0.00  0.00    +0.012 C 
ATOM     17  C   UNL     1      31.444 -11.401 -20.519  0.00  0.00    +0.019 C 
ATOM     18  C   UNL     1      31.870 -10.269 -21.179  0.00  0.00    +0.087 C 
ENDBRANCH  11  15
ENDBRANCH   4  10
ENDBRANCH   1   3
BRANCH   1  21
ATOM     19  O   UNL     1      35.366 -17.818 -20.282  0.00  0.00    -0.277 OA
ATOM     20  N   UNL     1      35.474 -20.075 -20.919  0.00  0.00    -0.284 N 
ATOM     21  C   UNL     1      35.719 -18.710 -21.046  0.00  0.00    +0.205 C 
ATOM     22  H   UNL     1      35.829 -20.650 -21.634  0.00  0.00    +0.155 HD
BRANCH  20  24
ATOM     23  F   UNL     1      36.802 -21.578 -18.983  0.00  0.00    -0.203 F 
ATOM     24  C   UNL     1      34.771 -20.731 -19.881  0.00  0.00    +0.078 C 
ATOM     25  C   UNL     1      35.465 -21.477 -18.927  0.00  0.00    +0.155 C 
ATOM     26  C   UNL     1      33.381 -20.634 -19.812  0.00  0.00    +0.018 C 
ATOM     27  C   UNL     1      33.382 -22.024 -17.836  0.00  0.00    +0.061 C 
ATOM     28  C   UNL     1      34.771 -22.122 -17.905  0.00  0.00    +0.046 C 
ATOM     29  C   UNL     1      32.687 -21.280 -18.789  0.00  0.00    +0.017 C 
BRANCH  27  31
ATOM     30  O   UNL     1      34.587 -23.599 -15.731  0.00  0.00    -0.269 OA
ATOM     31  N   UNL     1      32.659 -22.696 -16.773  0.00  0.00    -0.233 N 
ATOM     32  C   UNL     1      33.365 -23.474 -15.819  0.00  0.00    +0.257 C 
ATOM     33  C   UNL     1      31.273 -22.566 -16.666  0.00  0.00    +0.072 C 
ATOM     34  C   UNL     1      32.540 -24.171 -14.785  0.00  0.00    +0.059 C 
ATOM     35  C   UNL     1      30.559 -23.173 -15.712  0.00  0.00    +0.017 C 
ATOM     36  C   UNL     1      31.215 -24.004 -14.748  0.00  0.00    +0.006 C 
ENDBRANCH  27  31
ENDBRANCH  20  24
ENDBRANCH   1  21
TORSDOF 6
ENDMDL
MODEL 9
REMARK VINA RESULT:     -10.6      4.063      7.208
REMARK  Name = 42628063
REMARK  6 active torsions:
REMARK  status: ('A' for Active; 'I' for Inactive)
REMARK    1  A    between atoms: C_1  and  N_3
REMARK    2  A    between atoms: C_1  and  C_21
REMARK    3  A    between atoms: C_4  and  N_10
REMARK    4  A    between atoms: C_11  and  C_15
REMARK    5  A    between atoms: N_20  and  C_24
REMARK    6  A    between atoms: C_27  and  N_31
REMARK                            x       y       z     vdW  Elec       q    Type
REMARK                         _______ _______ _______ _____ _____    ______ ____
ROOT
ATOM      1  C   UNL     1      35.124 -15.366 -23.830  0.00  0.00    +0.010 C 
ENDROOT
BRANCH   1   3
ATOM      2  F   UNL     1      33.351 -19.442 -24.366  0.00  0.00    -0.238 F 
ATOM      3  N   UNL     1      34.423 -16.620 -23.599  0.00  0.00    +0.396 N 
ATOM      4  C   UNL     1      34.022 -18.510 -22.319  0.00  0.00    +0.082 C 
ATOM      5  C   UNL     1      34.444 -18.966 -23.713  0.00  0.00    +0.156 C 
ATOM      6  C   UNL     1      34.544 -17.083 -22.216  0.00  0.00    -0.054 C 
ATOM      7  C   UNL     1      34.949 -17.716 -24.421  0.00  0.00    -0.039 C 
ATOM      8  H   UNL     1      33.454 -16.409 -23.837  0.00  0.00    -0.079 HD
BRANCH   4  10
ATOM      9  O   UNL     1      32.492 -20.160 -20.536  0.00  0.00    -0.270 OA
ATOM     10  N   UNL     1      34.537 -19.351 -21.275  0.00  0.00    -0.302 N 
ATOM     11  C   UNL     1      33.716 -20.120 -20.456  0.00  0.00    +0.252 C 
ATOM     12  H   UNL     1      35.510 -19.386 -21.133  0.00  0.00    +0.150 HD
BRANCH  11  15
ATOM     13 CL   UNL     1      34.712 -23.518 -16.207  0.00  0.00    -0.075 Cl
ATOM     14  S   UNL     1      33.463 -21.875 -18.341  0.00  0.00    -0.071 S 
ATOM     15  C   UNL     1      34.402 -20.917 -19.405  0.00  0.00    +0.084 C 
ATOM     16  C   UNL     1      35.749 -21.015 -19.139  0.00  0.00    +0.012 C 
ATOM     17  C   UNL     1      36.016 -21.888 -18.044  0.00  0.00    +0.019 C 
ATOM     18  C   UNL     1      34.861 -22.424 -17.517  0.00  0.00    +0.087 C 
ENDBRANCH  11  15
ENDBRANCH   4  10
ENDBRANCH   1   3
BRANCH   1  21
ATOM     19  O   UNL     1      33.073 -14.301 -24.521  0.00  0.00    -0.277 OA
ATOM     20  N   UNL     1      34.568 -13.153 -23.122  0.00  0.00    -0.284 N 
ATOM     21  C   UNL     1      34.119 -14.228 -23.885  0.00  0.00    +0.205 C 
ATOM     22  H   UNL     1      35.434 -13.270 -22.671  0.00  0.00    +0.155 HD
BRANCH  20  24
ATOM     23  F   UNL     1      32.407 -12.900 -21.378  0.00  0.00    -0.203 F 
ATOM     24  C   UNL     1      33.921 -11.910 -22.919  0.00  0.00    +0.078 C 
ATOM     25  C   UNL     1      32.842 -11.817 -22.038  0.00  0.00    +0.155 C 
ATOM     26  C   UNL     1      34.364 -10.776 -23.600  0.00  0.00    +0.018 C 
ATOM     27  C   UNL     1      32.651  -9.458 -22.520  0.00  0.00    +0.061 C 
ATOM     28  C   UNL     1      32.207 -10.592 -21.840  0.00  0.00    +0.046 C 
ATOM     29  C   UNL     1      33.729  -9.551 -23.401  0.00  0.00    +0.017 C 
BRANCH  27  31
ATOM     30  O   UNL     1      32.837  -7.847 -20.126  0.00  0.00    -0.269 OA
ATOM     31  N   UNL     1      31.990  -8.184 -22.314  0.00  0.00    -0.233 N 
ATOM     32  C   UNL     1      32.130  -7.508 -21.074  0.00  0.00    +0.257 C 
ATOM     33  C   UNL     1      31.234  -7.604 -23.335  0.00  0.00    +0.072 C 
ATOM     34  C   UNL     1      31.379  -6.223 -20.928  0.00  0.00    +0.059 C 
ATOM     35  C   UNL     1      30.598  -6.436 -23.191  0.00  0.00    +0.017 C 
ATOM     36  C   UNL     1      30.669  -5.731 -21.947  0.00  0.00    +0.006 C 
ENDBRANCH  27  31
ENDBRANCH  20  24
ENDBRANCH   1  21
TORSDOF 6
ENDMDL
