MODEL 1
REMARK VINA RESULT:     -12.0      0.000      0.000
REMARK  Name = 12136798
REMARK  7 active torsions:
REMARK  status: ('A' for Active; 'I' for Inactive)
REMARK    1  A    between atoms: C_1  and  C_21
REMARK    2  A    between atoms: C_2  and  C_9
REMARK    3  A    between atoms: N_8  and  C_12
REMARK    4  A    between atoms: C_13  and  N_18
REMARK    5  A    between atoms: C_21  and  N_23
REMARK    6  A    between atoms: C_24  and  C_26
REMARK    7  A    between atoms: C_27  and  C_29
REMARK                            x       y       z     vdW  Elec       q    Type
REMARK                         _______ _______ _______ _____ _____    ______ ____
ROOT
ATOM      1  C   UNL     1      35.438 -19.790 -20.367  0.00  0.00    -0.003 C 
ATOM      2  C   UNL     1      34.311 -21.768 -18.772  0.00  0.00    +0.054 C 
ATOM      3  C   UNL     1      34.057 -19.935 -20.325  0.00  0.00    -0.002 C 
ATOM      4  C   UNL     1      36.262 -20.624 -19.621  0.00  0.00    -0.002 C 
ATOM      5  C   UNL     1      33.491 -20.927 -19.524  0.00  0.00    +0.004 C 
ATOM      6  C   UNL     1      35.697 -21.616 -18.820  0.00  0.00    +0.004 C 
ENDROOT
BRANCH   2   9
ATOM      7  O   UNL     1      33.680 -23.969 -18.363  0.00  0.00    -0.270 OA
ATOM      8  N   UNL     1      33.261 -22.388 -16.681  0.00  0.00    -0.279 N 
ATOM      9  C   UNL     1      33.721 -22.804 -17.938  0.00  0.00    +0.250 C 
ATOM     10  H   UNL     1      33.363 -21.428 -16.484  0.00  0.00    +0.155 HD
BRANCH   8  12
ATOM     11  F   UNL     1      31.023 -25.443 -12.655  0.00  0.00    -0.204 F 
ATOM     12  C   UNL     1      32.670 -23.167 -15.656  0.00  0.00    +0.064 C 
ATOM     13  C   UNL     1      31.293 -23.301 -15.585  0.00  0.00    +0.057 C 
ATOM     14  C   UNL     1      33.503 -23.783 -14.736  0.00  0.00    +0.018 C 
ATOM     15  C   UNL     1      30.734 -24.074 -14.567  0.00  0.00    +0.045 C 
ATOM     16  C   UNL     1      32.944 -24.555 -13.718  0.00  0.00    +0.031 C 
ATOM     17  C   UNL     1      31.559 -24.700 -13.633  0.00  0.00    +0.141 C 
BRANCH  13  18
ATOM     18  N   UNL     1      30.438 -22.677 -16.520  0.00  0.00    -0.356 N 
ATOM     19  H   UNL     1      29.531 -22.405 -16.251  0.00  0.00    +0.142 HD
ATOM     20  H   UNL     1      30.749 -22.511 -17.439  0.00  0.00    +0.142 HD
ENDBRANCH  13  18
ENDBRANCH   8  12
ENDBRANCH   2   9
BRANCH   1  21
ATOM     21  C   UNL     1      36.048 -18.722 -21.228  0.00  0.00    +0.117 C 
BRANCH  21  23
ATOM     22  O   UNL     1      35.664 -16.594 -23.156  0.00  0.00    -0.270 OA
ATOM     23  N   UNL     1      35.443 -17.429 -20.998  0.00  0.00    -0.297 N 
ATOM     24  C   UNL     1      35.303 -16.473 -21.989  0.00  0.00    +0.246 C 
ATOM     25  H   UNL     1      35.116 -17.219 -20.093  0.00  0.00    +0.150 HD
BRANCH  24  26
ATOM     26  C   UNL     1      34.648 -15.236 -21.477  0.00  0.00    +0.058 C 
ATOM     27  C   UNL     1      33.975 -14.438 -22.319  0.00  0.00    +0.006 C 
BRANCH  27  29
ATOM     28  N   UNL     1      32.704 -10.927 -22.430  0.00  0.00    -0.242 NA
ATOM     29  C   UNL     1      33.282 -13.199 -21.921  0.00  0.00    +0.019 C 
ATOM     30  C   UNL     1      32.590 -13.143 -20.730  0.00  0.00    +0.003 C 
ATOM     31  C   UNL     1      33.319 -12.093 -22.735  0.00  0.00    +0.099 C 
ATOM     32  C   UNL     1      31.945 -11.961 -20.381  0.00  0.00    +0.021 C 
ATOM     33  C   UNL     1      32.032 -10.892 -21.257  0.00  0.00    +0.099 C 
ENDBRANCH  27  29
ENDBRANCH  24  26
ENDBRANCH  21  23
ENDBRANCH   1  21
TORSDOF 7
ENDMDL
MODEL 2
REMARK VINA RESULT:     -11.7      4.076     11.062
REMARK  Name = 12136798
REMARK  7 active torsions:
REMARK  status: ('A' for Active; 'I' for Inactive)
REMARK    1  A    between atoms: C_1  and  C_21
REMARK    2  A    between atoms: C_2  and  C_9
REMARK    3  A    between atoms: N_8  and  C_12
REMARK    4  A    between atoms: C_13  and  N_18
REMARK    5  A    between atoms: C_21  and  N_23
REMARK    6  A    between atoms: C_24  and  C_26
REMARK    7  A    between atoms: C_27  and  C_29
REMARK                            x       y       z     vdW  Elec       q    Type
REMARK                         _______ _______ _______ _____ _____    ______ ____
ROOT
ATOM      1  C   UNL     1      36.047 -20.323 -19.782  0.00  0.00    -0.003 C 
ATOM      2  C   UNL     1      35.188 -18.614 -21.800  0.00  0.00    +0.054 C 
ATOM      3  C   UNL     1      34.746 -20.423 -20.262  0.00  0.00    -0.002 C 
ATOM      4  C   UNL     1      36.922 -19.376 -20.300  0.00  0.00    -0.002 C 
ATOM      5  C   UNL     1      34.315 -19.567 -21.275  0.00  0.00    +0.004 C 
ATOM      6  C   UNL     1      36.492 -18.519 -21.313  0.00  0.00    +0.004 C 
ENDROOT
BRANCH   2   9
ATOM      7  O   UNL     1      34.359 -18.201 -23.934  0.00  0.00    -0.270 OA
ATOM      8  N   UNL     1      34.751 -16.353 -22.543  0.00  0.00    -0.279 N 
ATOM      9  C   UNL     1      34.739 -17.719 -22.855  0.00  0.00    +0.250 C 
ATOM     10  H   UNL     1      35.080 -16.122 -21.644  0.00  0.00    +0.155 HD
BRANCH   8  12
ATOM     11  F   UNL     1      33.187 -12.136 -25.756  0.00  0.00    -0.204 F 
ATOM     12  C   UNL     1      34.351 -15.260 -23.351  0.00  0.00    +0.064 C 
ATOM     13  C   UNL     1      34.229 -13.993 -22.805  0.00  0.00    +0.057 C 
ATOM     14  C   UNL     1      34.088 -15.496 -24.691  0.00  0.00    +0.018 C 
ATOM     15  C   UNL     1      33.834 -12.933 -23.621  0.00  0.00    +0.045 C 
ATOM     16  C   UNL     1      33.694 -14.436 -25.507  0.00  0.00    +0.031 C 
ATOM     17  C   UNL     1      33.565 -13.154 -24.972  0.00  0.00    +0.141 C 
BRANCH  13  18
ATOM     18  N   UNL     1      34.495 -13.745 -21.440  0.00  0.00    -0.356 N 
ATOM     19  H   UNL     1      35.406 -13.506 -21.153  0.00  0.00    +0.142 HD
ATOM     20  H   UNL     1      33.770 -13.810 -20.777  0.00  0.00    +0.142 HD
ENDBRANCH  13  18
ENDBRANCH   8  12
ENDBRANCH   2   9
BRANCH   1  21
ATOM     21  C   UNL     1      36.511 -21.245 -18.693  0.00  0.00    +0.117 C 
BRANCH  21  23
ATOM     22  O   UNL     1      36.600 -22.644 -16.157  0.00  0.00    -0.270 OA
ATOM     23  N   UNL     1      35.404 -21.848 -17.984  0.00  0.00    -0.297 N 
ATOM     24  C   UNL     1      35.548 -22.498 -16.770  0.00  0.00    +0.246 C 
ATOM     25  H   UNL     1      34.506 -21.793 -18.384  0.00  0.00    +0.150 HD
BRANCH  24  26
ATOM     26  C   UNL     1      34.247 -23.024 -16.266  0.00  0.00    +0.058 C 
ATOM     27  C   UNL     1      34.019 -23.091 -14.946  0.00  0.00    +0.006 C 
BRANCH  27  29
ATOM     28  N   UNL     1      31.702 -24.970 -12.699  0.00  0.00    -0.242 NA
ATOM     29  C   UNL     1      32.769 -23.582 -14.338  0.00  0.00    +0.019 C 
ATOM     30  C   UNL     1      31.549 -23.141 -14.807  0.00  0.00    +0.003 C 
ATOM     31  C   UNL     1      32.811 -24.481 -13.301  0.00  0.00    +0.099 C 
ATOM     32  C   UNL     1      30.387 -23.622 -14.214  0.00  0.00    +0.021 C 
ATOM     33  C   UNL     1      30.516 -24.526 -13.172  0.00  0.00    +0.099 C 
ENDBRANCH  27  29
ENDBRANCH  24  26
ENDBRANCH  21  23
ENDBRANCH   1  21
TORSDOF 7
ENDMDL
MODEL 3
REMARK VINA RESULT:     -11.7      1.929      2.775
REMARK  Name = 12136798
REMARK  7 active torsions:
REMARK  status: ('A' for Active; 'I' for Inactive)
REMARK    1  A    between atoms: C_1  and  C_21
REMARK    2  A    between atoms: C_2  and  C_9
REMARK    3  A    between atoms: N_8  and  C_12
REMARK    4  A    between atoms: C_13  and  N_18
REMARK    5  A    between atoms: C_21  and  N_23
REMARK    6  A    between atoms: C_24  and  C_26
REMARK    7  A    between atoms: C_27  and  C_29
REMARK                            x       y       z     vdW  Elec       q    Type
REMARK                         _______ _______ _______ _____ _____    ______ ____
ROOT
ATOM      1  C   UNL     1      35.714 -19.142 -21.079  0.00  0.00    -0.003 C 
ATOM      2  C   UNL     1      35.272 -21.096 -19.152  0.00  0.00    +0.054 C 
ATOM      3  C   UNL     1      36.781 -19.621 -20.327  0.00  0.00    -0.002 C 
ATOM      4  C   UNL     1      34.429 -19.630 -20.877  0.00  0.00    -0.002 C 
ATOM      5  C   UNL     1      36.560 -20.602 -19.361  0.00  0.00    +0.004 C 
ATOM      6  C   UNL     1      34.207 -20.611 -19.910  0.00  0.00    +0.004 C 
ENDROOT
BRANCH   2   9
ATOM      7  O   UNL     1      34.341 -23.102 -18.430  0.00  0.00    -0.270 OA
ATOM      8  N   UNL     1      35.667 -21.908 -16.907  0.00  0.00    -0.279 N 
ATOM      9  C   UNL     1      35.041 -22.118 -18.143  0.00  0.00    +0.250 C 
ATOM     10  H   UNL     1      36.192 -21.079 -16.828  0.00  0.00    +0.155 HD
BRANCH   8  12
ATOM     11  F   UNL     1      35.499 -25.124 -12.414  0.00  0.00    -0.204 F 
ATOM     12  C   UNL     1      35.644 -22.733 -15.755  0.00  0.00    +0.064 C 
ATOM     13  C   UNL     1      36.825 -23.200 -15.204  0.00  0.00    +0.057 C 
ATOM     14  C   UNL     1      34.414 -23.058 -15.204  0.00  0.00    +0.018 C 
ATOM     15  C   UNL     1      36.777 -24.011 -14.069  0.00  0.00    +0.045 C 
ATOM     16  C   UNL     1      34.366 -23.868 -14.071  0.00  0.00    +0.031 C 
ATOM     17  C   UNL     1      35.547 -24.346 -13.503  0.00  0.00    +0.141 C 
BRANCH  13  18
ATOM     18  N   UNL     1      38.082 -22.874 -15.760  0.00  0.00    -0.356 N 
ATOM     19  H   UNL     1      38.445 -23.410 -16.502  0.00  0.00    +0.142 HD
ATOM     20  H   UNL     1      38.595 -22.111 -15.407  0.00  0.00    +0.142 HD
ENDBRANCH  13  18
ENDBRANCH   8  12
ENDBRANCH   2   9
BRANCH   1  21
ATOM     21  C   UNL     1      35.952 -18.087 -22.120  0.00  0.00    +0.117 C 
BRANCH  21  23
ATOM     22  O   UNL     1      35.292 -15.869 -23.863  0.00  0.00    -0.270 OA
ATOM     23  N   UNL     1      35.379 -16.814 -21.742  0.00  0.00    -0.297 N 
ATOM     24  C   UNL     1      35.098 -15.811 -22.654  0.00  0.00    +0.246 C 
ATOM     25  H   UNL     1      35.180 -16.654 -20.790  0.00  0.00    +0.150 HD
BRANCH  24  26
ATOM     26  C   UNL     1      34.515 -14.609 -21.992  0.00  0.00    +0.058 C 
ATOM     27  C   UNL     1      33.662 -13.823 -22.665  0.00  0.00    +0.006 C 
BRANCH  27  29
ATOM     28  N   UNL     1      32.612 -10.260 -22.269  0.00  0.00    -0.242 NA
ATOM     29  C   UNL     1      33.019 -12.619 -22.109  0.00  0.00    +0.019 C 
ATOM     30  C   UNL     1      32.255 -12.706 -20.964  0.00  0.00    +0.003 C 
ATOM     31  C   UNL     1      33.175 -11.402 -22.727  0.00  0.00    +0.099 C 
ATOM     32  C   UNL     1      31.660 -11.553 -20.462  0.00  0.00    +0.021 C 
ATOM     33  C   UNL     1      31.867 -10.367 -21.146  0.00  0.00    +0.099 C 
ENDBRANCH  27  29
ENDBRANCH  24  26
ENDBRANCH  21  23
ENDBRANCH   1  21
TORSDOF 7
ENDMDL
MODEL 4
REMARK VINA RESULT:     -11.7      5.011     11.993
REMARK  Name = 12136798
REMARK  7 active torsions:
REMARK  status: ('A' for Active; 'I' for Inactive)
REMARK    1  A    between atoms: C_1  and  C_21
REMARK    2  A    between atoms: C_2  and  C_9
REMARK    3  A    between atoms: N_8  and  C_12
REMARK    4  A    between atoms: C_13  and  N_18
REMARK    5  A    between atoms: C_21  and  N_23
REMARK    6  A    between atoms: C_24  and  C_26
REMARK    7  A    between atoms: C_27  and  C_29
REMARK                            x       y       z     vdW  Elec       q    Type
REMARK                         _______ _______ _______ _____ _____    ______ ____
ROOT
ATOM      1  C   UNL     1      34.550 -14.598 -22.809  0.00  0.00    -0.003 C 
ATOM      2  C   UNL     1      33.001 -12.439 -21.993  0.00  0.00    +0.054 C 
ATOM      3  C   UNL     1      34.183 -14.481 -21.474  0.00  0.00    -0.002 C 
ATOM      4  C   UNL     1      34.152 -13.647 -23.740  0.00  0.00    -0.002 C 
ATOM      5  C   UNL     1      33.405 -13.398 -21.064  0.00  0.00    +0.004 C 
ATOM      6  C   UNL     1      33.374 -12.564 -23.332  0.00  0.00    +0.004 C 
ENDROOT
BRANCH   2   9
ATOM      7  O   UNL     1      31.247 -11.504 -20.785  0.00  0.00    -0.270 OA
ATOM      8  N   UNL     1      32.575 -10.058 -22.069  0.00  0.00    -0.279 N 
ATOM      9  C   UNL     1      32.191 -11.308 -21.567  0.00  0.00    +0.250 C 
ATOM     10  H   UNL     1      33.347 -10.061 -22.681  0.00  0.00    +0.155 HD
BRANCH   8  12
ATOM     11  F   UNL     1      30.300  -5.107 -21.145  0.00  0.00    -0.204 F 
ATOM     12  C   UNL     1      31.998  -8.789 -21.814  0.00  0.00    +0.064 C 
ATOM     13  C   UNL     1      32.090  -8.219 -20.555  0.00  0.00    +0.057 C 
ATOM     14  C   UNL     1      31.344  -8.144 -22.852  0.00  0.00    +0.018 C 
ATOM     15  C   UNL     1      31.514  -6.969 -20.328  0.00  0.00    +0.045 C 
ATOM     16  C   UNL     1      30.769  -6.895 -22.624  0.00  0.00    +0.031 C 
ATOM     17  C   UNL     1      30.853  -6.307 -21.362  0.00  0.00    +0.141 C 
BRANCH  13  18
ATOM     18  N   UNL     1      32.754  -8.871 -19.493  0.00  0.00    -0.356 N 
ATOM     19  H   UNL     1      33.738  -8.920 -19.484  0.00  0.00    +0.142 HD
ATOM     20  H   UNL     1      32.235  -9.275 -18.760  0.00  0.00    +0.142 HD
ENDBRANCH  13  18
ENDBRANCH   8  12
ENDBRANCH   2   9
BRANCH   1  21
ATOM     21  C   UNL     1      35.387 -15.764 -23.250  0.00  0.00    +0.117 C 
BRANCH  21  23
ATOM     22  O   UNL     1      34.216 -18.100 -24.502  0.00  0.00    -0.270 OA
ATOM     23  N   UNL     1      34.984 -16.995 -22.607  0.00  0.00    -0.297 N 
ATOM     24  C   UNL     1      34.431 -18.061 -23.295  0.00  0.00    +0.246 C 
ATOM     25  H   UNL     1      35.109 -17.078 -21.633  0.00  0.00    +0.150 HD
BRANCH  24  26
ATOM     26  C   UNL     1      34.109 -19.199 -22.387  0.00  0.00    +0.058 C 
ATOM     27  C   UNL     1      34.551 -19.190 -21.121  0.00  0.00    +0.006 C 
BRANCH  27  29
ATOM     28  N   UNL     1      32.680 -21.526 -18.886  0.00  0.00    -0.242 NA
ATOM     29  C   UNL     1      34.284 -20.253 -20.135  0.00  0.00    +0.019 C 
ATOM     30  C   UNL     1      35.329 -20.947 -19.561  0.00  0.00    +0.003 C 
ATOM     31  C   UNL     1      32.993 -20.562 -19.782  0.00  0.00    +0.099 C 
ATOM     32  C   UNL     1      35.047 -21.945 -18.635  0.00  0.00    +0.021 C 
ATOM     33  C   UNL     1      33.718 -22.193 -18.335  0.00  0.00    +0.099 C 
ENDBRANCH  27  29
ENDBRANCH  24  26
ENDBRANCH  21  23
ENDBRANCH   1  21
TORSDOF 7
ENDMDL
MODEL 5
REMARK VINA RESULT:     -11.6      6.051     12.376
REMARK  Name = 12136798
REMARK  7 active torsions:
REMARK  status: ('A' for Active; 'I' for Inactive)
REMARK    1  A    between atoms: C_1  and  C_21
REMARK    2  A    between atoms: C_2  and  C_9
REMARK    3  A    between atoms: N_8  and  C_12
REMARK    4  A    between atoms: C_13  and  N_18
REMARK    5  A    between atoms: C_21  and  N_23
REMARK    6  A    between atoms: C_24  and  C_26
REMARK    7  A    between atoms: C_27  and  C_29
REMARK                            x       y       z     vdW  Elec       q    Type
REMARK                         _______ _______ _______ _____ _____    ______ ____
ROOT
ATOM      1  C   UNL     1      33.594 -14.214 -24.925  0.00  0.00    -0.003 C 
ATOM      2  C   UNL     1      33.927 -11.632 -23.951  0.00  0.00    +0.054 C 
ATOM      3  C   UNL     1      33.419 -13.130 -25.777  0.00  0.00    -0.002 C 
ATOM      4  C   UNL     1      33.932 -14.021 -23.591  0.00  0.00    -0.002 C 
ATOM      5  C   UNL     1      33.587 -11.834 -25.289  0.00  0.00    +0.004 C 
ATOM      6  C   UNL     1      34.100 -12.726 -23.102  0.00  0.00    +0.004 C 
ENDROOT
BRANCH   2   9
ATOM      7  O   UNL     1      35.200  -9.723 -23.573  0.00  0.00    -0.270 OA
ATOM      8  N   UNL     1      32.968  -9.702 -22.850  0.00  0.00    -0.279 N 
ATOM      9  C   UNL     1      34.100 -10.281 -23.441  0.00  0.00    +0.250 C 
ATOM     10  H   UNL     1      32.164 -10.270 -22.817  0.00  0.00    +0.155 HD
BRANCH   8  12
ATOM     11  F   UNL     1      32.450  -4.619 -20.743  0.00  0.00    -0.204 F 
ATOM     12  C   UNL     1      32.830  -8.407 -22.292  0.00  0.00    +0.064 C 
ATOM     13  C   UNL     1      32.398  -8.249 -20.986  0.00  0.00    +0.057 C 
ATOM     14  C   UNL     1      33.134  -7.314 -23.088  0.00  0.00    +0.018 C 
ATOM     15  C   UNL     1      32.270  -6.964 -20.459  0.00  0.00    +0.045 C 
ATOM     16  C   UNL     1      33.006  -6.029 -22.562  0.00  0.00    +0.031 C 
ATOM     17  C   UNL     1      32.573  -5.853 -21.248  0.00  0.00    +0.141 C 
BRANCH  13  18
ATOM     18  N   UNL     1      32.086  -9.358 -20.169  0.00  0.00    -0.356 N 
ATOM     19  H   UNL     1      32.779 -10.026 -19.961  0.00  0.00    +0.142 HD
ATOM     20  H   UNL     1      31.176  -9.463 -19.807  0.00  0.00    +0.142 HD
ENDBRANCH  13  18
ENDBRANCH   8  12
ENDBRANCH   2   9
BRANCH   1  21
ATOM     21  C   UNL     1      33.414 -15.609 -25.451  0.00  0.00    +0.117 C 
BRANCH  21  23
ATOM     22  O   UNL     1      32.643 -18.380 -25.106  0.00  0.00    -0.270 OA
ATOM     23  N   UNL     1      34.040 -16.594 -24.598  0.00  0.00    -0.297 N 
ATOM     24  C   UNL     1      33.596 -17.902 -24.501  0.00  0.00    +0.246 C 
ATOM     25  H   UNL     1      34.820 -16.322 -24.061  0.00  0.00    +0.150 HD
BRANCH  24  26
ATOM     26  C   UNL     1      34.423 -18.699 -23.550  0.00  0.00    +0.058 C 
ATOM     27  C   UNL     1      34.488 -18.342 -22.259  0.00  0.00    +0.006 C 
BRANCH  27  29
ATOM     28  N   UNL     1      37.291 -19.254 -19.965  0.00  0.00    -0.242 NA
ATOM     29  C   UNL     1      35.263 -19.061 -21.232  0.00  0.00    +0.019 C 
ATOM     30  C   UNL     1      34.723 -20.160 -20.597  0.00  0.00    +0.003 C 
ATOM     31  C   UNL     1      36.528 -18.641 -20.898  0.00  0.00    +0.099 C 
ATOM     32  C   UNL     1      35.478 -20.818 -19.632  0.00  0.00    +0.021 C 
ATOM     33  C   UNL     1      36.744 -20.330 -19.355  0.00  0.00    +0.099 C 
ENDBRANCH  27  29
ENDBRANCH  24  26
ENDBRANCH  21  23
ENDBRANCH   1  21
TORSDOF 7
ENDMDL
MODEL 6
REMARK VINA RESULT:     -11.5      4.702     11.551
REMARK  Name = 12136798
REMARK  7 active torsions:
REMARK  status: ('A' for Active; 'I' for Inactive)
REMARK    1  A    between atoms: C_1  and  C_21
REMARK    2  A    between atoms: C_2  and  C_9
REMARK    3  A    between atoms: N_8  and  C_12
REMARK    4  A    between atoms: C_13  and  N_18
REMARK    5  A    between atoms: C_21  and  N_23
REMARK    6  A    between atoms: C_24  and  C_26
REMARK    7  A    between atoms: C_27  and  C_29
REMARK                            x       y       z     vdW  Elec       q    Type
REMARK                         _______ _______ _______ _____ _____    ______ ____
ROOT
ATOM      1  C   UNL     1      34.272 -15.852 -24.145  0.00  0.00    -0.003 C 
ATOM      2  C   UNL     1      33.923 -13.154 -23.577  0.00  0.00    +0.054 C 
ATOM      3  C   UNL     1      33.608 -15.038 -25.054  0.00  0.00    -0.002 C 
ATOM      4  C   UNL     1      34.763 -15.332 -22.953  0.00  0.00    -0.002 C 
ATOM      5  C   UNL     1      33.434 -13.684 -24.770  0.00  0.00    +0.004 C 
ATOM      6  C   UNL     1      34.588 -13.977 -22.668  0.00  0.00    +0.004 C 
ENDROOT
BRANCH   2   9
ATOM      7  O   UNL     1      34.441 -10.905 -23.869  0.00  0.00    -0.270 OA
ATOM      8  N   UNL     1      32.740 -11.440 -22.344  0.00  0.00    -0.279 N 
ATOM      9  C   UNL     1      33.739 -11.742 -23.279  0.00  0.00    +0.250 C 
ATOM     10  H   UNL     1      32.266 -12.213 -21.960  0.00  0.00    +0.155 HD
BRANCH   8  12
ATOM     11  F   UNL     1      31.121  -6.452 -20.599  0.00  0.00    -0.204 F 
ATOM     12  C   UNL     1      32.323 -10.168 -21.878  0.00  0.00    +0.064 C 
ATOM     13  C   UNL     1      31.966  -9.991 -20.552  0.00  0.00    +0.057 C 
ATOM     14  C   UNL     1      32.281  -9.119 -22.783  0.00  0.00    +0.018 C 
ATOM     15  C   UNL     1      31.558  -8.729 -20.117  0.00  0.00    +0.045 C 
ATOM     16  C   UNL     1      31.874  -7.859 -22.348  0.00  0.00    +0.031 C 
ATOM     17  C   UNL     1      31.512  -7.663 -21.016  0.00  0.00    +0.141 C 
BRANCH  13  18
ATOM     18  N   UNL     1      32.006 -11.055 -19.625  0.00  0.00    -0.356 N 
ATOM     19  H   UNL     1      32.816 -11.210 -19.088  0.00  0.00    +0.142 HD
ATOM     20  H   UNL     1      31.223 -11.642 -19.514  0.00  0.00    +0.142 HD
ENDBRANCH  13  18
ENDBRANCH   8  12
ENDBRANCH   2   9
BRANCH   1  21
ATOM     21  C   UNL     1      34.461 -17.310 -24.450  0.00  0.00    +0.117 C 
BRANCH  21  23
ATOM     22  O   UNL     1      36.318 -18.399 -22.511  0.00  0.00    -0.270 OA
ATOM     23  N   UNL     1      34.151 -18.147 -23.313  0.00  0.00    -0.297 N 
ATOM     24  C   UNL     1      35.114 -18.620 -22.438  0.00  0.00    +0.246 C 
ATOM     25  H   UNL     1      33.210 -18.391 -23.154  0.00  0.00    +0.150 HD
BRANCH  24  26
ATOM     26  C   UNL     1      34.517 -19.458 -21.359  0.00  0.00    +0.058 C 
ATOM     27  C   UNL     1      35.312 -20.179 -20.555  0.00  0.00    +0.006 C 
BRANCH  27  29
ATOM     28  N   UNL     1      35.356 -22.420 -17.567  0.00  0.00    -0.242 NA
ATOM     29  C   UNL     1      34.833 -21.032 -19.452  0.00  0.00    +0.019 C 
ATOM     30  C   UNL     1      33.482 -21.236 -19.268  0.00  0.00    +0.003 C 
ATOM     31  C   UNL     1      35.729 -21.627 -18.598  0.00  0.00    +0.099 C 
ATOM     32  C   UNL     1      33.059 -22.045 -18.219  0.00  0.00    +0.021 C 
ATOM     33  C   UNL     1      34.028 -22.608 -17.405  0.00  0.00    +0.099 C 
ENDBRANCH  27  29
ENDBRANCH  24  26
ENDBRANCH  21  23
ENDBRANCH   1  21
TORSDOF 7
ENDMDL
MODEL 7
REMARK VINA RESULT:     -11.5      3.158      5.182
REMARK  Name = 12136798
REMARK  7 active torsions:
REMARK  status: ('A' for Active; 'I' for Inactive)
REMARK    1  A    between atoms: C_1  and  C_21
REMARK    2  A    between atoms: C_2  and  C_9
REMARK    3  A    between atoms: N_8  and  C_12
REMARK    4  A    between atoms: C_13  and  N_18
REMARK    5  A    between atoms: C_21  and  N_23
REMARK    6  A    between atoms: C_24  and  C_26
REMARK    7  A    between atoms: C_27  and  C_29
REMARK                            x       y       z     vdW  Elec       q    Type
REMARK                         _______ _______ _______ _____ _____    ______ ____
ROOT
ATOM      1  C   UNL     1      34.327 -16.087 -24.277  0.00  0.00    -0.003 C 
ATOM      2  C   UNL     1      35.117 -17.690 -22.147  0.00  0.00    +0.054 C 
ATOM      3  C   UNL     1      34.856 -15.501 -23.134  0.00  0.00    -0.002 C 
ATOM      4  C   UNL     1      34.187 -17.467 -24.366  0.00  0.00    -0.002 C 
ATOM      5  C   UNL     1      35.253 -16.304 -22.065  0.00  0.00    +0.004 C 
ATOM      6  C   UNL     1      34.584 -18.271 -23.298  0.00  0.00    +0.004 C 
ENDROOT
BRANCH   2   9
ATOM      7  O   UNL     1      36.580 -18.258 -20.430  0.00  0.00    -0.270 OA
ATOM      8  N   UNL     1      34.664 -19.584 -20.710  0.00  0.00    -0.279 N 
ATOM      9  C   UNL     1      35.528 -18.529 -21.032  0.00  0.00    +0.250 C 
ATOM     10  H   UNL     1      33.866 -19.672 -21.279  0.00  0.00    +0.155 HD
BRANCH   8  12
ATOM     11  F   UNL     1      35.225 -23.302 -16.659  0.00  0.00    -0.204 F 
ATOM     12  C   UNL     1      34.788 -20.540 -19.672  0.00  0.00    +0.064 C 
ATOM     13  C   UNL     1      33.666 -21.173 -19.165  0.00  0.00    +0.057 C 
ATOM     14  C   UNL     1      36.055 -20.816 -19.182  0.00  0.00    +0.018 C 
ATOM     15  C   UNL     1      33.814 -22.111 -18.143  0.00  0.00    +0.045 C 
ATOM     16  C   UNL     1      36.203 -21.754 -18.161  0.00  0.00    +0.031 C 
ATOM     17  C   UNL     1      35.083 -22.401 -17.640  0.00  0.00    +0.141 C 
BRANCH  13  18
ATOM     18  N   UNL     1      32.372 -20.896 -19.659  0.00  0.00    -0.356 N 
ATOM     19  H   UNL     1      31.690 -21.606 -19.677  0.00  0.00    +0.142 HD
ATOM     20  H   UNL     1      32.151 -19.993 -19.983  0.00  0.00    +0.142 HD
ENDBRANCH  13  18
ENDBRANCH   8  12
ENDBRANCH   2   9
BRANCH   1  21
ATOM     21  C   UNL     1      33.900 -15.223 -25.428  0.00  0.00    +0.117 C 
BRANCH  21  23
ATOM     22  O   UNL     1      34.081 -12.835 -27.058  0.00  0.00    -0.270 OA
ATOM     23  N   UNL     1      33.649 -13.859 -25.017  0.00  0.00    -0.297 N 
ATOM     24  C   UNL     1      33.762 -12.779 -25.875  0.00  0.00    +0.246 C 
ATOM     25  H   UNL     1      33.385 -13.692 -24.083  0.00  0.00    +0.150 HD
BRANCH  24  26
ATOM     26  C   UNL     1      33.448 -11.492 -25.190  0.00  0.00    +0.058 C 
ATOM     27  C   UNL     1      33.549 -11.403 -23.856  0.00  0.00    +0.006 C 
BRANCH  27  29
ATOM     28  N   UNL     1      32.025  -9.108 -21.333  0.00  0.00    -0.242 NA
ATOM     29  C   UNL     1      33.274 -10.182 -23.077  0.00  0.00    +0.019 C 
ATOM     30  C   UNL     1      33.969  -9.020 -23.339  0.00  0.00    +0.003 C 
ATOM     31  C   UNL     1      32.325 -10.193 -22.084  0.00  0.00    +0.099 C 
ATOM     32  C   UNL     1      33.688  -7.883 -22.589  0.00  0.00    +0.021 C 
ATOM     33  C   UNL     1      32.717  -7.979 -21.606  0.00  0.00    +0.099 C 
ENDBRANCH  27  29
ENDBRANCH  24  26
ENDBRANCH  21  23
ENDBRANCH   1  21
TORSDOF 7
ENDMDL
MODEL 8
REMARK VINA RESULT:     -11.5      1.703      2.397
REMARK  Name = 12136798
REMARK  7 active torsions:
REMARK  status: ('A' for Active; 'I' for Inactive)
REMARK    1  A    between atoms: C_1  and  C_21
REMARK    2  A    between atoms: C_2  and  C_9
REMARK    3  A    between atoms: N_8  and  C_12
REMARK    4  A    between atoms: C_13  and  N_18
REMARK    5  A    between atoms: C_21  and  N_23
REMARK    6  A    between atoms: C_24  and  C_26
REMARK    7  A    between atoms: C_27  and  C_29
REMARK                            x       y       z     vdW  Elec       q    Type
REMARK                         _______ _______ _______ _____ _____    ______ ____
ROOT
ATOM      1  C   UNL     1      35.976 -20.146 -19.839  0.00  0.00    -0.003 C 
ATOM      2  C   UNL     1      34.310 -21.945 -18.528  0.00  0.00    +0.054 C 
ATOM      3  C   UNL     1      34.616 -20.158 -20.124  0.00  0.00    -0.002 C 
ATOM      4  C   UNL     1      36.512 -21.026 -18.906  0.00  0.00    -0.002 C 
ATOM      5  C   UNL     1      33.779 -21.059 -19.466  0.00  0.00    +0.004 C 
ATOM      6  C   UNL     1      35.676 -21.928 -18.248  0.00  0.00    +0.004 C 
ENDROOT
BRANCH   2   9
ATOM      7  O   UNL     1      33.559 -24.100 -18.078  0.00  0.00    -0.270 OA
ATOM      8  N   UNL     1      32.531 -22.329 -16.933  0.00  0.00    -0.279 N 
ATOM      9  C   UNL     1      33.438 -22.887 -17.843  0.00  0.00    +0.250 C 
ATOM     10  H   UNL     1      32.552 -21.348 -16.854  0.00  0.00    +0.155 HD
BRANCH   8  12
ATOM     11  F   UNL     1      28.784 -24.887 -13.775  0.00  0.00    -0.204 F 
ATOM     12  C   UNL     1      31.585 -22.992 -16.112  0.00  0.00    +0.064 C 
ATOM     13  C   UNL     1      32.004 -23.747 -15.030  0.00  0.00    +0.057 C 
ATOM     14  C   UNL     1      30.240 -22.863 -16.424  0.00  0.00    +0.018 C 
ATOM     15  C   UNL     1      31.054 -24.391 -14.237  0.00  0.00    +0.045 C 
ATOM     16  C   UNL     1      29.291 -23.505 -15.630  0.00  0.00    +0.031 C 
ATOM     17  C   UNL     1      29.697 -24.270 -14.537  0.00  0.00    +0.141 C 
BRANCH  13  18
ATOM     18  N   UNL     1      33.372 -23.884 -14.707  0.00  0.00    -0.356 N 
ATOM     19  H   UNL     1      33.822 -23.193 -14.169  0.00  0.00    +0.142 HD
ATOM     20  H   UNL     1      33.877 -24.670 -15.019  0.00  0.00    +0.142 HD
ENDBRANCH  13  18
ENDBRANCH   8  12
ENDBRANCH   2   9
BRANCH   1  21
ATOM     21  C   UNL     1      36.876 -19.175 -20.546  0.00  0.00    +0.117 C 
BRANCH  21  23
ATOM     22  O   UNL     1      35.455 -16.736 -19.895  0.00  0.00    -0.270 OA
ATOM     23  N   UNL     1      36.144 -18.318 -21.452  0.00  0.00    -0.297 N 
ATOM     24  C   UNL     1      35.494 -17.166 -21.043  0.00  0.00    +0.246 C 
ATOM     25  H   UNL     1      36.106 -18.567 -22.404  0.00  0.00    +0.150 HD
BRANCH  24  26
ATOM     26  C   UNL     1      34.821 -16.477 -22.181  0.00  0.00    +0.058 C 
ATOM     27  C   UNL     1      34.877 -15.141 -22.282  0.00  0.00    +0.006 C 
BRANCH  27  29
ATOM     28  N   UNL     1      33.593 -12.217 -24.219  0.00  0.00    -0.242 NA
ATOM     29  C   UNL     1      34.259 -14.358 -23.367  0.00  0.00    +0.019 C 
ATOM     30  C   UNL     1      33.789 -14.991 -24.499  0.00  0.00    +0.003 C 
ATOM     31  C   UNL     1      34.148 -12.993 -23.260  0.00  0.00    +0.099 C 
ATOM     32  C   UNL     1      33.211 -14.227 -25.507  0.00  0.00    +0.021 C 
ATOM     33  C   UNL     1      33.138 -12.856 -25.319  0.00  0.00    +0.099 C 
ENDBRANCH  27  29
ENDBRANCH  24  26
ENDBRANCH  21  23
ENDBRANCH   1  21
TORSDOF 7
ENDMDL
MODEL 9
REMARK VINA RESULT:     -11.2      4.584     11.323
REMARK  Name = 12136798
REMARK  7 active torsions:
REMARK  status: ('A' for Active; 'I' for Inactive)
REMARK    1  A    between atoms: C_1  and  C_21
REMARK    2  A    between atoms: C_2  and  C_9
REMARK    3  A    between atoms: N_8  and  C_12
REMARK    4  A    between atoms: C_13  and  N_18
REMARK    5  A    between atoms: C_21  and  N_23
REMARK    6  A    between atoms: C_24  and  C_26
REMARK    7  A    between atoms: C_27  and  C_29
REMARK                            x       y       z     vdW  Elec       q    Type
REMARK                         _______ _______ _______ _____ _____    ______ ____
ROOT
ATOM      1  C   UNL     1      35.183 -17.207 -23.218  0.00  0.00    -0.003 C 
ATOM      2  C   UNL     1      33.941 -14.729 -23.430  0.00  0.00    +0.054 C 
ATOM      3  C   UNL     1      35.290 -16.293 -22.178  0.00  0.00    -0.002 C 
ATOM      4  C   UNL     1      34.462 -16.895 -24.365  0.00  0.00    -0.002 C 
ATOM      5  C   UNL     1      34.666 -15.049 -22.283  0.00  0.00    +0.004 C 
ATOM      6  C   UNL     1      33.838 -15.652 -24.471  0.00  0.00    +0.004 C 
ENDROOT
BRANCH   2   9
ATOM      7  O   UNL     1      32.730 -13.128 -24.606  0.00  0.00    -0.270 OA
ATOM      8  N   UNL     1      33.339 -12.625 -22.397  0.00  0.00    -0.279 N 
ATOM      9  C   UNL     1      33.292 -13.431 -23.542  0.00  0.00    +0.250 C 
ATOM     10  H   UNL     1      33.822 -13.002 -21.627  0.00  0.00    +0.155 HD
BRANCH   8  12
ATOM     11  F   UNL     1      31.118  -7.630 -21.582  0.00  0.00    -0.204 F 
ATOM     12  C   UNL     1      32.781 -11.337 -22.202  0.00  0.00    +0.064 C 
ATOM     13  C   UNL     1      33.227 -10.260 -22.950  0.00  0.00    +0.057 C 
ATOM     14  C   UNL     1      31.786 -11.190 -21.248  0.00  0.00    +0.018 C 
ATOM     15  C   UNL     1      32.662  -9.002 -22.740  0.00  0.00    +0.045 C 
ATOM     16  C   UNL     1      31.222  -9.932 -21.038  0.00  0.00    +0.031 C 
ATOM     17  C   UNL     1      31.660  -8.838 -21.783  0.00  0.00    +0.141 C 
BRANCH  13  18
ATOM     18  N   UNL     1      34.240 -10.403 -23.923  0.00  0.00    -0.356 N 
ATOM     19  H   UNL     1      34.004 -10.652 -24.846  0.00  0.00    +0.142 HD
ATOM     20  H   UNL     1      35.182 -10.253 -23.680  0.00  0.00    +0.142 HD
ENDBRANCH  13  18
ENDBRANCH   8  12
ENDBRANCH   2   9
BRANCH   1  21
ATOM     21  C   UNL     1      35.853 -18.545 -23.105  0.00  0.00    +0.117 C 
BRANCH  21  23
ATOM     22  O   UNL     1      38.045 -18.605 -21.212  0.00  0.00    -0.270 OA
ATOM     23  N   UNL     1      35.828 -19.051 -21.750  0.00  0.00    -0.297 N 
ATOM     24  C   UNL     1      36.935 -19.035 -20.918  0.00  0.00    +0.246 C 
ATOM     25  H   UNL     1      34.985 -19.423 -21.404  0.00  0.00    +0.150 HD
BRANCH  24  26
ATOM     26  C   UNL     1      36.629 -19.617 -19.580  0.00  0.00    +0.058 C 
ATOM     27  C   UNL     1      36.264 -20.903 -19.477  0.00  0.00    +0.006 C 
BRANCH  27  29
ATOM     28  N   UNL     1      34.415 -22.906 -16.923  0.00  0.00    -0.242 NA
ATOM     29  C   UNL     1      35.950 -21.584 -18.208  0.00  0.00    +0.019 C 
ATOM     30  C   UNL     1      36.846 -21.547 -17.160  0.00  0.00    +0.003 C 
ATOM     31  C   UNL     1      34.764 -22.260 -18.060  0.00  0.00    +0.099 C 
ATOM     32  C   UNL     1      36.522 -22.198 -15.974  0.00  0.00    +0.021 C 
ATOM     33  C   UNL     1      35.306 -22.857 -15.908  0.00  0.00    +0.099 C 
ENDBRANCH  27  29
ENDBRANCH  24  26
ENDBRANCH  21  23
ENDBRANCH   1  21
TORSDOF 7
ENDMDL
