MODEL 1
REMARK VINA RESULT:     -11.6      0.000      0.000
REMARK  Name = 10274777
REMARK  10 active torsions:
REMARK  status: ('A' for Active; 'I' for Inactive)
REMARK    1  A    between atoms: C_2  and  C_25
REMARK    2  A    between atoms: C_5  and  O_10
REMARK    3  A    between atoms: O_10  and  C_11
REMARK    4  A    between atoms: C_11  and  C_12
REMARK    5  A    between atoms: C_12  and  C_15
REMARK    6  A    between atoms: C_17  and  C_19
REMARK    7  A    between atoms: C_25  and  C_26
REMARK    8  A    between atoms: C_26  and  O_27
REMARK    9  A    between atoms: C_26  and  C_30
REMARK   10  A    between atoms: C_30  and  O_31
REMARK                            x       y       z     vdW  Elec       q    Type
REMARK                         _______ _______ _______ _____ _____    ______ ____
ROOT
ATOM      1  S   UNL     1      32.168 -24.024 -13.787  0.00  0.00    -0.087 S 
ATOM      2  C   UNL     1      34.950 -23.811 -13.475  0.00  0.00    -0.013 C 
ATOM      3  C   UNL     1      33.789 -23.676 -14.260  0.00  0.00    +0.029 C 
ATOM      4  C   UNL     1      33.846 -23.217 -15.579  0.00  0.00    +0.040 C 
ATOM      5  C   UNL     1      35.113 -22.887 -16.118  0.00  0.00    +0.139 C 
ATOM      6  C   UNL     1      36.185 -23.477 -14.036  0.00  0.00    -0.001 C 
ATOM      7  C   UNL     1      36.268 -23.019 -15.343  0.00  0.00    +0.037 C 
ATOM      8  C   UNL     1      32.539 -23.166 -16.169  0.00  0.00    +0.010 C 
ATOM      9  C   UNL     1      31.547 -23.575 -15.309  0.00  0.00    +0.036 C 
ENDROOT
BRANCH   5  10
ATOM     10  O   UNL     1      35.236 -22.431 -17.407  0.00  0.00    -0.475 OA
BRANCH  10  11
ATOM     11  C   UNL     1      36.340 -21.577 -17.678  0.00  0.00    +0.213 C 
BRANCH  11  12
ATOM     12  C   UNL     1      36.528 -21.443 -19.187  0.00  0.00    +0.105 C 
BRANCH  12  15
ATOM     13  O   UNL     1      33.962 -19.209 -20.510  0.00  0.00    -0.449 OA
ATOM     14  N   UNL     1      36.216 -19.267 -20.318  0.00  0.00    -0.373 NA
ATOM     15  C   UNL     1      35.654 -20.382 -19.791  0.00  0.00    +0.134 C 
ATOM     16  C   UNL     1      34.305 -20.373 -19.892  0.00  0.00    +0.216 C 
ATOM     17  C   UNL     1      35.161 -18.601 -20.733  0.00  0.00    +0.277 C 
ATOM     18  C   UNL     1      33.212 -21.274 -19.513  0.00  0.00    +0.055 C 
BRANCH  17  19
ATOM     19  C   UNL     1      35.087 -17.325 -21.388  0.00  0.00    +0.066 C 
ATOM     20  C   UNL     1      34.951 -16.155 -20.635  0.00  0.00    +0.006 C 
ATOM     21  C   UNL     1      35.150 -17.245 -22.782  0.00  0.00    +0.006 C 
ATOM     22  C   UNL     1      34.879 -14.916 -21.269  0.00  0.00    +0.000 C 
ATOM     23  C   UNL     1      35.078 -16.004 -23.417  0.00  0.00    +0.000 C 
ATOM     24  C   UNL     1      34.942 -14.840 -22.661  0.00  0.00    +0.000 C 
ENDBRANCH  17  19
ENDBRANCH  12  15
ENDBRANCH  11  12
ENDBRANCH  10  11
ENDBRANCH   5  10
BRANCH   2  25
ATOM     25  C   UNL     1      34.919 -24.297 -12.061  0.00  0.00    +0.068 C 
BRANCH  25  26
ATOM     26  C   UNL     1      36.324 -24.442 -11.459  0.00  0.00    +0.218 C 
BRANCH  26  27
ATOM     27  O   UNL     1      36.558 -25.818 -11.180  0.00  0.00    -0.342 OA
ATOM     28  C   UNL     1      37.237 -26.458 -12.252  0.00  0.00    +0.175 C 
ENDBRANCH  26  27
BRANCH  26  30
ATOM     29  O   UNL     1      37.107 -22.673  -9.985  0.00  0.00    -0.248 OA
ATOM     30  C   UNL     1      36.441 -23.686 -10.151  0.00  0.00    +0.342 C 
BRANCH  30  31
ATOM     31  O   UNL     1      35.699 -24.252  -9.164  0.00  0.00    -0.479 OA
ATOM     32  H   UNL     1      35.089 -24.934  -9.369  0.00  0.00    +0.295 HD
ENDBRANCH  30  31
ENDBRANCH  26  30
ENDBRANCH  25  26
ENDBRANCH   2  25
TORSDOF 10
ENDMDL
MODEL 2
REMARK VINA RESULT:     -11.2      1.211      1.770
REMARK  Name = 10274777
REMARK  10 active torsions:
REMARK  status: ('A' for Active; 'I' for Inactive)
REMARK    1  A    between atoms: C_2  and  C_25
REMARK    2  A    between atoms: C_5  and  O_10
REMARK    3  A    between atoms: O_10  and  C_11
REMARK    4  A    between atoms: C_11  and  C_12
REMARK    5  A    between atoms: C_12  and  C_15
REMARK    6  A    between atoms: C_17  and  C_19
REMARK    7  A    between atoms: C_25  and  C_26
REMARK    8  A    between atoms: C_26  and  O_27
REMARK    9  A    between atoms: C_26  and  C_30
REMARK   10  A    between atoms: C_30  and  O_31
REMARK                            x       y       z     vdW  Elec       q    Type
REMARK                         _______ _______ _______ _____ _____    ______ ____
ROOT
ATOM      1  S   UNL     1      31.316 -23.811 -12.849  0.00  0.00    -0.087 S 
ATOM      2  C   UNL     1      34.062 -23.887 -13.430  0.00  0.00    -0.013 C 
ATOM      3  C   UNL     1      32.723 -23.747 -13.843  0.00  0.00    +0.029 C 
ATOM      4  C   UNL     1      32.390 -23.531 -15.183  0.00  0.00    +0.040 C 
ATOM      5  C   UNL     1      33.440 -23.453 -16.130  0.00  0.00    +0.139 C 
ATOM      6  C   UNL     1      35.075 -23.805 -14.388  0.00  0.00    -0.001 C 
ATOM      7  C   UNL     1      34.769 -23.591 -15.724  0.00  0.00    +0.037 C 
ATOM      8  C   UNL     1      30.968 -23.423 -15.354  0.00  0.00    +0.010 C 
ATOM      9  C   UNL     1      30.276 -23.555 -14.174  0.00  0.00    +0.036 C 
ENDROOT
BRANCH   5  10
ATOM     10  O   UNL     1      33.177 -23.242 -17.461  0.00  0.00    -0.475 OA
BRANCH  10  11
ATOM     11  C   UNL     1      34.059 -22.368 -18.153  0.00  0.00    +0.213 C 
BRANCH  11  12
ATOM     12  C   UNL     1      33.252 -21.381 -18.992  0.00  0.00    +0.105 C 
BRANCH  12  15
ATOM     13  O   UNL     1      35.788 -19.594 -20.916  0.00  0.00    -0.449 OA
ATOM     14  N   UNL     1      33.532 -19.739 -20.819  0.00  0.00    -0.373 NA
ATOM     15  C   UNL     1      34.111 -20.547 -19.898  0.00  0.00    +0.134 C 
ATOM     16  C   UNL     1      35.462 -20.481 -19.935  0.00  0.00    +0.216 C 
ATOM     17  C   UNL     1      34.578 -19.194 -21.399  0.00  0.00    +0.277 C 
ATOM     18  C   UNL     1      36.570 -21.104 -19.204  0.00  0.00    +0.055 C 
BRANCH  17  19
ATOM     19  C   UNL     1      34.633 -18.236 -22.468  0.00  0.00    +0.066 C 
ATOM     20  C   UNL     1      35.270 -17.006 -22.277  0.00  0.00    +0.006 C 
ATOM     21  C   UNL     1      34.050 -18.527 -23.704  0.00  0.00    +0.006 C 
ATOM     22  C   UNL     1      35.323 -16.075 -23.314  0.00  0.00    +0.000 C 
ATOM     23  C   UNL     1      34.103 -17.596 -24.742  0.00  0.00    +0.000 C 
ATOM     24  C   UNL     1      34.739 -16.370 -24.547  0.00  0.00    +0.000 C 
ENDBRANCH  17  19
ENDBRANCH  12  15
ENDBRANCH  11  12
ENDBRANCH  10  11
ENDBRANCH   5  10
BRANCH   2  25
ATOM     25  C   UNL     1      34.449 -24.117 -12.004  0.00  0.00    +0.068 C 
BRANCH  25  26
ATOM     26  C   UNL     1      35.967 -24.261 -11.823  0.00  0.00    +0.218 C 
BRANCH  26  27
ATOM     27  O   UNL     1      36.286 -25.646 -11.750  0.00  0.00    -0.342 OA
ATOM     28  C   UNL     1      37.591 -25.906 -12.247  0.00  0.00    +0.175 C 
ENDBRANCH  26  27
BRANCH  26  30
ATOM     29  O   UNL     1      37.234 -22.700 -10.453  0.00  0.00    -0.248 OA
ATOM     30  C   UNL     1      36.429 -23.618 -10.530  0.00  0.00    +0.342 C 
BRANCH  30  31
ATOM     31  O   UNL     1      35.829 -24.168  -9.442  0.00  0.00    -0.479 OA
ATOM     32  H   UNL     1      36.195 -24.932  -9.041  0.00  0.00    +0.295 HD
ENDBRANCH  30  31
ENDBRANCH  26  30
ENDBRANCH  25  26
ENDBRANCH   2  25
TORSDOF 10
ENDMDL
MODEL 3
REMARK VINA RESULT:     -11.0      3.023      4.737
REMARK  Name = 10274777
REMARK  10 active torsions:
REMARK  status: ('A' for Active; 'I' for Inactive)
REMARK    1  A    between atoms: C_2  and  C_25
REMARK    2  A    between atoms: C_5  and  O_10
REMARK    3  A    between atoms: O_10  and  C_11
REMARK    4  A    between atoms: C_11  and  C_12
REMARK    5  A    between atoms: C_12  and  C_15
REMARK    6  A    between atoms: C_17  and  C_19
REMARK    7  A    between atoms: C_25  and  C_26
REMARK    8  A    between atoms: C_26  and  O_27
REMARK    9  A    between atoms: C_26  and  C_30
REMARK   10  A    between atoms: C_30  and  O_31
REMARK                            x       y       z     vdW  Elec       q    Type
REMARK                         _______ _______ _______ _____ _____    ______ ____
ROOT
ATOM      1  S   UNL     1      35.789 -23.096 -14.924  0.00  0.00    -0.087 S 
ATOM      2  C   UNL     1      33.589 -22.951 -16.663  0.00  0.00    -0.013 C 
ATOM      3  C   UNL     1      34.935 -22.671 -16.360  0.00  0.00    +0.029 C 
ATOM      4  C   UNL     1      35.757 -21.978 -17.253  0.00  0.00    +0.040 C 
ATOM      5  C   UNL     1      35.200 -21.557 -18.486  0.00  0.00    +0.139 C 
ATOM      6  C   UNL     1      33.069 -22.523 -17.886  0.00  0.00    -0.001 C 
ATOM      7  C   UNL     1      33.865 -21.833 -18.790  0.00  0.00    +0.037 C 
ATOM      8  C   UNL     1      37.080 -21.814 -16.723  0.00  0.00    +0.010 C 
ATOM      9  C   UNL     1      37.229 -22.372 -15.475  0.00  0.00    +0.036 C 
ENDROOT
BRANCH   5  10
ATOM     10  O   UNL     1      35.955 -20.872 -19.405  0.00  0.00    -0.475 OA
BRANCH  10  11
ATOM     11  C   UNL     1      35.247 -20.067 -20.338  0.00  0.00    +0.213 C 
BRANCH  11  12
ATOM     12  C   UNL     1      36.162 -18.966 -20.867  0.00  0.00    +0.105 C 
BRANCH  12  15
ATOM     13  O   UNL     1      34.499 -17.397 -23.713  0.00  0.00    -0.449 OA
ATOM     14  N   UNL     1      35.388 -16.781 -21.726  0.00  0.00    -0.373 NA
ATOM     15  C   UNL     1      35.506 -18.117 -21.918  0.00  0.00    +0.134 C 
ATOM     16  C   UNL     1      34.981 -18.514 -23.100  0.00  0.00    +0.216 C 
ATOM     17  C   UNL     1      34.780 -16.401 -22.828  0.00  0.00    +0.277 C 
ATOM     18  C   UNL     1      34.830 -19.786 -23.814  0.00  0.00    +0.055 C 
BRANCH  17  19
ATOM     19  C   UNL     1      34.369 -15.087 -23.236  0.00  0.00    +0.066 C 
ATOM     20  C   UNL     1      34.595 -13.989 -22.400  0.00  0.00    +0.006 C 
ATOM     21  C   UNL     1      33.738 -14.897 -24.468  0.00  0.00    +0.006 C 
ATOM     22  C   UNL     1      34.196 -12.712 -22.795  0.00  0.00    +0.000 C 
ATOM     23  C   UNL     1      33.338 -13.620 -24.863  0.00  0.00    +0.000 C 
ATOM     24  C   UNL     1      33.567 -12.528 -24.027  0.00  0.00    +0.000 C 
ENDBRANCH  17  19
ENDBRANCH  12  15
ENDBRANCH  11  12
ENDBRANCH  10  11
ENDBRANCH   5  10
BRANCH   2  25
ATOM     25  C   UNL     1      32.686 -23.692 -15.728  0.00  0.00    +0.068 C 
BRANCH  25  26
ATOM     26  C   UNL     1      31.539 -22.818 -15.202  0.00  0.00    +0.218 C 
BRANCH  26  27
ATOM     27  O   UNL     1      31.499 -22.927 -13.783  0.00  0.00    -0.342 OA
ATOM     28  C   UNL     1      32.365 -23.952 -13.316  0.00  0.00    +0.175 C 
ENDBRANCH  26  27
BRANCH  26  30
ATOM     29  O   UNL     1      29.633 -24.318 -15.385  0.00  0.00    -0.248 OA
ATOM     30  C   UNL     1      30.201 -23.291 -15.733  0.00  0.00    +0.342 C 
BRANCH  30  31
ATOM     31  O   UNL     1      29.678 -22.430 -16.643  0.00  0.00    -0.479 OA
ATOM     32  H   UNL     1      28.751 -22.406 -16.787  0.00  0.00    +0.295 HD
ENDBRANCH  30  31
ENDBRANCH  26  30
ENDBRANCH  25  26
ENDBRANCH   2  25
TORSDOF 10
ENDMDL
MODEL 4
REMARK VINA RESULT:     -11.0      6.746     13.383
REMARK  Name = 10274777
REMARK  10 active torsions:
REMARK  status: ('A' for Active; 'I' for Inactive)
REMARK    1  A    between atoms: C_2  and  C_25
REMARK    2  A    between atoms: C_5  and  O_10
REMARK    3  A    between atoms: O_10  and  C_11
REMARK    4  A    between atoms: C_11  and  C_12
REMARK    5  A    between atoms: C_12  and  C_15
REMARK    6  A    between atoms: C_17  and  C_19
REMARK    7  A    between atoms: C_25  and  C_26
REMARK    8  A    between atoms: C_26  and  O_27
REMARK    9  A    between atoms: C_26  and  C_30
REMARK   10  A    between atoms: C_30  and  O_31
REMARK                            x       y       z     vdW  Elec       q    Type
REMARK                         _______ _______ _______ _____ _____    ______ ____
ROOT
ATOM      1  S   UNL     1      33.755  -9.432 -23.992  0.00  0.00    -0.087 S 
ATOM      2  C   UNL     1      31.909  -9.667 -21.888  0.00  0.00    -0.013 C 
ATOM      3  C   UNL     1      32.861 -10.237 -22.756  0.00  0.00    +0.029 C 
ATOM      4  C   UNL     1      33.190 -11.593 -22.691  0.00  0.00    +0.040 C 
ATOM      5  C   UNL     1      32.539 -12.394 -21.723  0.00  0.00    +0.139 C 
ATOM      6  C   UNL     1      31.284 -10.484 -20.944  0.00  0.00    -0.001 C 
ATOM      7  C   UNL     1      31.594 -11.834 -20.860  0.00  0.00    +0.037 C 
ATOM      8  C   UNL     1      34.180 -11.935 -23.673  0.00  0.00    +0.010 C 
ATOM      9  C   UNL     1      34.568 -10.861 -24.438  0.00  0.00    +0.036 C 
ENDROOT
BRANCH   5  10
ATOM     10  O   UNL     1      32.818 -13.734 -21.609  0.00  0.00    -0.475 OA
BRANCH  10  11
ATOM     11  C   UNL     1      33.769 -14.105 -20.619  0.00  0.00    +0.213 C 
BRANCH  11  12
ATOM     12  C   UNL     1      35.043 -14.607 -21.291  0.00  0.00    +0.105 C 
BRANCH  12  15
ATOM     13  O   UNL     1      35.052 -18.118 -22.290  0.00  0.00    -0.449 OA
ATOM     14  N   UNL     1      35.129 -16.905 -20.382  0.00  0.00    -0.373 NA
ATOM     15  C   UNL     1      35.059 -16.098 -21.469  0.00  0.00    +0.134 C 
ATOM     16  C   UNL     1      35.013 -16.799 -22.625  0.00  0.00    +0.216 C 
ATOM     17  C   UNL     1      35.122 -18.100 -20.930  0.00  0.00    +0.277 C 
ATOM     18  C   UNL     1      34.933 -16.475 -24.054  0.00  0.00    +0.055 C 
BRANCH  17  19
ATOM     19  C   UNL     1      35.177 -19.391 -20.302  0.00  0.00    +0.066 C 
ATOM     20  C   UNL     1      33.998 -20.101 -20.053  0.00  0.00    +0.006 C 
ATOM     21  C   UNL     1      36.407 -19.944 -19.937  0.00  0.00    +0.006 C 
ATOM     22  C   UNL     1      34.050 -21.354 -19.444  0.00  0.00    +0.000 C 
ATOM     23  C   UNL     1      36.458 -21.198 -19.327  0.00  0.00    +0.000 C 
ATOM     24  C   UNL     1      35.280 -21.903 -19.080  0.00  0.00    +0.000 C 
ENDBRANCH  17  19
ENDBRANCH  12  15
ENDBRANCH  11  12
ENDBRANCH  10  11
ENDBRANCH   5  10
BRANCH   2  25
ATOM     25  C   UNL     1      31.538  -8.219 -21.933  0.00  0.00    +0.068 C 
BRANCH  25  26
ATOM     26  C   UNL     1      31.835  -7.495 -20.612  0.00  0.00    +0.218 C 
BRANCH  26  27
ATOM     27  O   UNL     1      31.144  -6.251 -20.610  0.00  0.00    -0.342 OA
ATOM     28  C   UNL     1      30.747  -5.875 -21.921  0.00  0.00    +0.175 C 
ENDBRANCH  26  27
BRANCH  26  30
ATOM     29  O   UNL     1      34.085  -7.023 -21.407  0.00  0.00    -0.248 OA
ATOM     30  C   UNL     1      33.314  -7.194 -20.472  0.00  0.00    +0.342 C 
BRANCH  30  31
ATOM     31  O   UNL     1      33.701  -7.116 -19.173  0.00  0.00    -0.479 OA
ATOM     32  H   UNL     1      33.238  -6.556 -18.579  0.00  0.00    +0.295 HD
ENDBRANCH  30  31
ENDBRANCH  26  30
ENDBRANCH  25  26
ENDBRANCH   2  25
TORSDOF 10
ENDMDL
MODEL 5
REMARK VINA RESULT:     -10.7      6.241     13.301
REMARK  Name = 10274777
REMARK  10 active torsions:
REMARK  status: ('A' for Active; 'I' for Inactive)
REMARK    1  A    between atoms: C_2  and  C_25
REMARK    2  A    between atoms: C_5  and  O_10
REMARK    3  A    between atoms: O_10  and  C_11
REMARK    4  A    between atoms: C_11  and  C_12
REMARK    5  A    between atoms: C_12  and  C_15
REMARK    6  A    between atoms: C_17  and  C_19
REMARK    7  A    between atoms: C_25  and  C_26
REMARK    8  A    between atoms: C_26  and  O_27
REMARK    9  A    between atoms: C_26  and  C_30
REMARK   10  A    between atoms: C_30  and  O_31
REMARK                            x       y       z     vdW  Elec       q    Type
REMARK                         _______ _______ _______ _____ _____    ______ ____
ROOT
ATOM      1  S   UNL     1      31.713 -11.105 -20.351  0.00  0.00    -0.087 S 
ATOM      2  C   UNL     1      32.880 -10.187 -22.735  0.00  0.00    -0.013 C 
ATOM      3  C   UNL     1      32.591 -11.227 -21.830  0.00  0.00    +0.029 C 
ATOM      4  C   UNL     1      33.016 -12.538 -22.062  0.00  0.00    +0.040 C 
ATOM      5  C   UNL     1      33.754 -12.804 -23.241  0.00  0.00    +0.139 C 
ATOM      6  C   UNL     1      33.609 -10.482 -23.889  0.00  0.00    -0.001 C 
ATOM      7  C   UNL     1      34.043 -11.775 -24.141  0.00  0.00    +0.037 C 
ATOM      8  C   UNL     1      32.603 -13.414 -21.002  0.00  0.00    +0.010 C 
ATOM      9  C   UNL     1      31.893 -12.766 -20.019  0.00  0.00    +0.036 C 
ENDROOT
BRANCH   5  10
ATOM     10  O   UNL     1      34.200 -14.070 -23.526  0.00  0.00    -0.475 OA
BRANCH  10  11
ATOM     11  C   UNL     1      34.660 -14.846 -22.427  0.00  0.00    +0.213 C 
BRANCH  11  12
ATOM     12  C   UNL     1      35.568 -15.965 -22.931  0.00  0.00    +0.105 C 
BRANCH  12  15
ATOM     13  O   UNL     1      34.135 -19.301 -22.555  0.00  0.00    -0.449 OA
ATOM     14  N   UNL     1      35.338 -17.832 -21.326  0.00  0.00    -0.373 NA
ATOM     15  C   UNL     1      35.071 -17.332 -22.557  0.00  0.00    +0.134 C 
ATOM     16  C   UNL     1      34.351 -18.191 -23.315  0.00  0.00    +0.216 C 
ATOM     17  C   UNL     1      34.757 -19.009 -21.379  0.00  0.00    +0.277 C 
ATOM     18  C   UNL     1      33.794 -18.191 -24.671  0.00  0.00    +0.055 C 
BRANCH  17  19
ATOM     19  C   UNL     1      34.681 -20.035 -20.376  0.00  0.00    +0.066 C 
ATOM     20  C   UNL     1      35.851 -20.590 -19.849  0.00  0.00    +0.006 C 
ATOM     21  C   UNL     1      33.438 -20.486 -19.923  0.00  0.00    +0.006 C 
ATOM     22  C   UNL     1      35.778 -21.585 -18.875  0.00  0.00    +0.000 C 
ATOM     23  C   UNL     1      33.366 -21.482 -18.949  0.00  0.00    +0.000 C 
ATOM     24  C   UNL     1      34.535 -22.032 -18.426  0.00  0.00    +0.000 C 
ENDBRANCH  17  19
ENDBRANCH  12  15
ENDBRANCH  11  12
ENDBRANCH  10  11
ENDBRANCH   5  10
BRANCH   2  25
ATOM     25  C   UNL     1      32.437  -8.776 -22.514  0.00  0.00    +0.068 C 
BRANCH  25  26
ATOM     26  C   UNL     1      33.565  -7.762 -22.750  0.00  0.00    +0.218 C 
BRANCH  26  27
ATOM     27  O   UNL     1      34.067  -7.340 -21.487  0.00  0.00    -0.342 OA
ATOM     28  C   UNL     1      33.031  -7.257 -20.517  0.00  0.00    +0.175 C 
ENDBRANCH  26  27
BRANCH  26  30
ATOM     29  O   UNL     1      31.904  -6.372 -23.856  0.00  0.00    -0.248 OA
ATOM     30  C   UNL     1      33.055  -6.531 -23.472  0.00  0.00    +0.342 C 
BRANCH  30  31
ATOM     31  O   UNL     1      34.025  -5.595 -23.637  0.00  0.00    -0.479 OA
ATOM     32  H   UNL     1      34.466  -5.518 -24.461  0.00  0.00    +0.295 HD
ENDBRANCH  30  31
ENDBRANCH  26  30
ENDBRANCH  25  26
ENDBRANCH   2  25
TORSDOF 10
ENDMDL
MODEL 6
REMARK VINA RESULT:     -10.6      5.731      9.976
REMARK  Name = 10274777
REMARK  10 active torsions:
REMARK  status: ('A' for Active; 'I' for Inactive)
REMARK    1  A    between atoms: C_2  and  C_25
REMARK    2  A    between atoms: C_5  and  O_10
REMARK    3  A    between atoms: O_10  and  C_11
REMARK    4  A    between atoms: C_11  and  C_12
REMARK    5  A    between atoms: C_12  and  C_15
REMARK    6  A    between atoms: C_17  and  C_19
REMARK    7  A    between atoms: C_25  and  C_26
REMARK    8  A    between atoms: C_26  and  O_27
REMARK    9  A    between atoms: C_26  and  C_30
REMARK   10  A    between atoms: C_30  and  O_31
REMARK                            x       y       z     vdW  Elec       q    Type
REMARK                         _______ _______ _______ _____ _____    ______ ____
ROOT
ATOM      1  S   UNL     1      34.106 -18.628 -24.300  0.00  0.00    -0.087 S 
ATOM      2  C   UNL     1      34.932 -18.461 -21.622  0.00  0.00    -0.013 C 
ATOM      3  C   UNL     1      34.590 -17.846 -22.842  0.00  0.00    +0.029 C 
ATOM      4  C   UNL     1      34.613 -16.457 -22.992  0.00  0.00    +0.040 C 
ATOM      5  C   UNL     1      34.992 -15.669 -21.878  0.00  0.00    +0.139 C 
ATOM      6  C   UNL     1      35.302 -17.657 -20.542  0.00  0.00    -0.001 C 
ATOM      7  C   UNL     1      35.332 -16.275 -20.667  0.00  0.00    +0.037 C 
ATOM      8  C   UNL     1      34.226 -16.072 -24.320  0.00  0.00    +0.010 C 
ATOM      9  C   UNL     1      33.928 -17.146 -25.124  0.00  0.00    +0.036 C 
ENDROOT
BRANCH   5  10
ATOM     10  O   UNL     1      35.034 -14.300 -21.962  0.00  0.00    -0.475 OA
BRANCH  10  11
ATOM     11  C   UNL     1      34.017 -13.587 -21.270  0.00  0.00    +0.213 C 
BRANCH  11  12
ATOM     12  C   UNL     1      32.927 -13.162 -22.251  0.00  0.00    +0.105 C 
BRANCH  12  15
ATOM     13  O   UNL     1      33.362  -9.766 -23.519  0.00  0.00    -0.449 OA
ATOM     14  N   UNL     1      32.377 -10.801 -21.765  0.00  0.00    -0.373 NA
ATOM     15  C   UNL     1      32.981 -11.698 -22.582  0.00  0.00    +0.134 C 
ATOM     16  C   UNL     1      33.578 -11.106 -23.641  0.00  0.00    +0.216 C 
ATOM     17  C   UNL     1      32.635  -9.664 -22.371  0.00  0.00    +0.277 C 
ATOM     18  C   UNL     1      34.352 -11.553 -24.804  0.00  0.00    +0.055 C 
BRANCH  17  19
ATOM     19  C   UNL     1      32.264  -8.327 -22.000  0.00  0.00    +0.066 C 
ATOM     20  C   UNL     1      33.073  -7.588 -21.132  0.00  0.00    +0.006 C 
ATOM     21  C   UNL     1      31.090  -7.758 -22.502  0.00  0.00    +0.006 C 
ATOM     22  C   UNL     1      32.713  -6.290 -20.771  0.00  0.00    +0.000 C 
ATOM     23  C   UNL     1      30.730  -6.459 -22.140  0.00  0.00    +0.000 C 
ATOM     24  C   UNL     1      31.541  -5.725 -21.275  0.00  0.00    +0.000 C 
ENDBRANCH  17  19
ENDBRANCH  12  15
ENDBRANCH  11  12
ENDBRANCH  10  11
ENDBRANCH   5  10
BRANCH   2  25
ATOM     25  C   UNL     1      34.916 -19.945 -21.431  0.00  0.00    +0.068 C 
BRANCH  25  26
ATOM     26  C   UNL     1      34.581 -20.347 -19.988  0.00  0.00    +0.218 C 
BRANCH  26  27
ATOM     27  O   UNL     1      35.371 -21.478 -19.637  0.00  0.00    -0.342 OA
ATOM     28  C   UNL     1      36.384 -21.135 -18.703  0.00  0.00    +0.175 C 
ENDBRANCH  26  27
BRANCH  26  30
ATOM     29  O   UNL     1      32.178 -20.098 -20.274  0.00  0.00    -0.248 OA
ATOM     30  C   UNL     1      33.125 -20.749 -19.854  0.00  0.00    +0.342 C 
BRANCH  30  31
ATOM     31  O   UNL     1      32.979 -21.942 -19.222  0.00  0.00    -0.479 OA
ATOM     32  H   UNL     1      33.496 -22.679 -19.486  0.00  0.00    +0.295 HD
ENDBRANCH  30  31
ENDBRANCH  26  30
ENDBRANCH  25  26
ENDBRANCH   2  25
TORSDOF 10
ENDMDL
MODEL 7
REMARK VINA RESULT:     -10.6      2.358      3.888
REMARK  Name = 10274777
REMARK  10 active torsions:
REMARK  status: ('A' for Active; 'I' for Inactive)
REMARK    1  A    between atoms: C_2  and  C_25
REMARK    2  A    between atoms: C_5  and  O_10
REMARK    3  A    between atoms: O_10  and  C_11
REMARK    4  A    between atoms: C_11  and  C_12
REMARK    5  A    between atoms: C_12  and  C_15
REMARK    6  A    between atoms: C_17  and  C_19
REMARK    7  A    between atoms: C_25  and  C_26
REMARK    8  A    between atoms: C_26  and  O_27
REMARK    9  A    between atoms: C_26  and  C_30
REMARK   10  A    between atoms: C_30  and  O_31
REMARK                            x       y       z     vdW  Elec       q    Type
REMARK                         _______ _______ _______ _____ _____    ______ ____
ROOT
ATOM      1  S   UNL     1      35.658 -23.903 -11.850  0.00  0.00    -0.087 S 
ATOM      2  C   UNL     1      33.925 -23.641 -14.044  0.00  0.00    -0.013 C 
ATOM      3  C   UNL     1      35.206 -23.527 -13.471  0.00  0.00    +0.029 C 
ATOM      4  C   UNL     1      36.300 -23.068 -14.210  0.00  0.00    +0.040 C 
ATOM      5  C   UNL     1      36.091 -22.716 -15.566  0.00  0.00    +0.139 C 
ATOM      6  C   UNL     1      33.751 -23.286 -15.384  0.00  0.00    -0.001 C 
ATOM      7  C   UNL     1      34.822 -22.828 -16.139  0.00  0.00    +0.037 C 
ATOM      8  C   UNL     1      37.492 -23.039 -13.411  0.00  0.00    +0.010 C 
ATOM      9  C   UNL     1      37.282 -23.464 -12.121  0.00  0.00    +0.036 C 
ENDROOT
BRANCH   5  10
ATOM     10  O   UNL     1      37.125 -22.259 -16.345  0.00  0.00    -0.475 OA
BRANCH  10  11
ATOM     11  C   UNL     1      36.823 -21.203 -17.248  0.00  0.00    +0.213 C 
BRANCH  11  12
ATOM     12  C   UNL     1      36.473 -21.781 -18.617  0.00  0.00    +0.105 C 
BRANCH  12  15
ATOM     13  O   UNL     1      33.903 -19.869 -20.366  0.00  0.00    -0.449 OA
ATOM     14  N   UNL     1      36.158 -19.899 -20.188  0.00  0.00    -0.373 NA
ATOM     15  C   UNL     1      35.597 -20.870 -19.427  0.00  0.00    +0.134 C 
ATOM     16  C   UNL     1      34.247 -20.875 -19.514  0.00  0.00    +0.216 C 
ATOM     17  C   UNL     1      35.101 -19.332 -20.727  0.00  0.00    +0.277 C 
ATOM     18  C   UNL     1      33.154 -21.665 -18.939  0.00  0.00    +0.055 C 
BRANCH  17  19
ATOM     19  C   UNL     1      35.026 -18.227 -21.642  0.00  0.00    +0.066 C 
ATOM     20  C   UNL     1      35.297 -16.928 -21.199  0.00  0.00    +0.006 C 
ATOM     21  C   UNL     1      34.680 -18.442 -22.978  0.00  0.00    +0.006 C 
ATOM     22  C   UNL     1      35.224 -15.855 -22.086  0.00  0.00    +0.000 C 
ATOM     23  C   UNL     1      34.607 -17.368 -23.866  0.00  0.00    +0.000 C 
ATOM     24  C   UNL     1      34.879 -16.074 -23.420  0.00  0.00    +0.000 C 
ENDBRANCH  17  19
ENDBRANCH  12  15
ENDBRANCH  11  12
ENDBRANCH  10  11
ENDBRANCH   5  10
BRANCH   2  25
ATOM     25  C   UNL     1      32.736 -24.130 -13.279  0.00  0.00    +0.068 C 
BRANCH  25  26
ATOM     26  C   UNL     1      31.439 -24.057 -14.097  0.00  0.00    +0.218 C 
BRANCH  26  27
ATOM     27  O   UNL     1      30.899 -22.746 -13.972  0.00  0.00    -0.342 OA
ATOM     28  C   UNL     1      29.682 -22.615 -14.693  0.00  0.00    +0.175 C 
ENDBRANCH  26  27
BRANCH  26  30
ATOM     29  O   UNL     1      29.713 -25.762 -14.267  0.00  0.00    -0.248 OA
ATOM     30  C   UNL     1      30.403 -25.029 -13.571  0.00  0.00    +0.342 C 
BRANCH  30  31
ATOM     31  O   UNL     1      30.330 -25.016 -12.215  0.00  0.00    -0.479 OA
ATOM     32  H   UNL     1      29.509 -24.853 -11.791  0.00  0.00    +0.295 HD
ENDBRANCH  30  31
ENDBRANCH  26  30
ENDBRANCH  25  26
ENDBRANCH   2  25
TORSDOF 10
ENDMDL
MODEL 8
REMARK VINA RESULT:     -10.5      1.488      2.246
REMARK  Name = 10274777
REMARK  10 active torsions:
REMARK  status: ('A' for Active; 'I' for Inactive)
REMARK    1  A    between atoms: C_2  and  C_25
REMARK    2  A    between atoms: C_5  and  O_10
REMARK    3  A    between atoms: O_10  and  C_11
REMARK    4  A    between atoms: C_11  and  C_12
REMARK    5  A    between atoms: C_12  and  C_15
REMARK    6  A    between atoms: C_17  and  C_19
REMARK    7  A    between atoms: C_25  and  C_26
REMARK    8  A    between atoms: C_26  and  O_27
REMARK    9  A    between atoms: C_26  and  C_30
REMARK   10  A    between atoms: C_30  and  O_31
REMARK                            x       y       z     vdW  Elec       q    Type
REMARK                         _______ _______ _______ _____ _____    ______ ____
ROOT
ATOM      1  S   UNL     1      34.241 -24.154 -12.873  0.00  0.00    -0.087 S 
ATOM      2  C   UNL     1      36.844 -23.363 -13.570  0.00  0.00    -0.013 C 
ATOM      3  C   UNL     1      35.480 -23.511 -13.886  0.00  0.00    +0.029 C 
ATOM      4  C   UNL     1      34.971 -23.128 -15.131  0.00  0.00    +0.040 C 
ATOM      5  C   UNL     1      35.868 -22.579 -16.079  0.00  0.00    +0.139 C 
ATOM      6  C   UNL     1      37.702 -22.818 -14.527  0.00  0.00    -0.001 C 
ATOM      7  C   UNL     1      37.222 -22.430 -15.769  0.00  0.00    +0.037 C 
ATOM      8  C   UNL     1      33.560 -23.378 -15.215  0.00  0.00    +0.010 C 
ATOM      9  C   UNL     1      33.044 -23.929 -14.066  0.00  0.00    +0.036 C 
ENDROOT
BRANCH   5  10
ATOM     10  O   UNL     1      35.430 -22.183 -17.319  0.00  0.00    -0.475 OA
BRANCH  10  11
ATOM     11  C   UNL     1      36.273 -21.291 -18.037  0.00  0.00    +0.213 C 
BRANCH  11  12
ATOM     12  C   UNL     1      36.164 -21.573 -19.533  0.00  0.00    +0.105 C 
BRANCH  12  15
ATOM     13  O   UNL     1      33.637 -19.374 -20.984  0.00  0.00    -0.449 OA
ATOM     14  N   UNL     1      35.867 -19.718 -21.141  0.00  0.00    -0.373 NA
ATOM     15  C   UNL     1      35.305 -20.574 -20.253  0.00  0.00    +0.134 C 
ATOM     16  C   UNL     1      33.969 -20.390 -20.139  0.00  0.00    +0.216 C 
ATOM     17  C   UNL     1      34.827 -19.025 -21.547  0.00  0.00    +0.277 C 
ATOM     18  C   UNL     1      32.882 -20.997 -19.365  0.00  0.00    +0.055 C 
BRANCH  17  19
ATOM     19  C   UNL     1      34.761 -17.952 -22.499  0.00  0.00    +0.066 C 
ATOM     20  C   UNL     1      34.165 -18.156 -23.747  0.00  0.00    +0.006 C 
ATOM     21  C   UNL     1      35.294 -16.699 -22.185  0.00  0.00    +0.006 C 
ATOM     22  C   UNL     1      34.101 -17.115 -24.673  0.00  0.00    +0.000 C 
ATOM     23  C   UNL     1      35.230 -15.657 -23.111  0.00  0.00    +0.000 C 
ATOM     24  C   UNL     1      34.634 -15.865 -24.355  0.00  0.00    +0.000 C 
ENDBRANCH  17  19
ENDBRANCH  12  15
ENDBRANCH  11  12
ENDBRANCH  10  11
ENDBRANCH   5  10
BRANCH   2  25
ATOM     25  C   UNL     1      37.416 -23.762 -12.247  0.00  0.00    +0.068 C 
BRANCH  25  26
ATOM     26  C   UNL     1      38.320 -24.999 -12.347  0.00  0.00    +0.218 C 
BRANCH  26  27
ATOM     27  O   UNL     1      39.086 -24.905 -13.542  0.00  0.00    -0.342 OA
ATOM     28  C   UNL     1      40.267 -25.691 -13.467  0.00  0.00    +0.175 C 
ENDBRANCH  26  27
BRANCH  26  30
ATOM     29  O   UNL     1      37.410 -26.982 -13.422  0.00  0.00    -0.248 OA
ATOM     30  C   UNL     1      37.501 -26.272 -12.429  0.00  0.00    +0.342 C 
BRANCH  30  31
ATOM     31  O   UNL     1      36.881 -26.559 -11.256  0.00  0.00    -0.479 OA
ATOM     32  H   UNL     1      36.590 -25.864 -10.698  0.00  0.00    +0.295 HD
ENDBRANCH  30  31
ENDBRANCH  26  30
ENDBRANCH  25  26
ENDBRANCH   2  25
TORSDOF 10
ENDMDL
MODEL 9
REMARK VINA RESULT:     -10.5      7.531     11.672
REMARK  Name = 10274777
REMARK  10 active torsions:
REMARK  status: ('A' for Active; 'I' for Inactive)
REMARK    1  A    between atoms: C_2  and  C_25
REMARK    2  A    between atoms: C_5  and  O_10
REMARK    3  A    between atoms: O_10  and  C_11
REMARK    4  A    between atoms: C_11  and  C_12
REMARK    5  A    between atoms: C_12  and  C_15
REMARK    6  A    between atoms: C_17  and  C_19
REMARK    7  A    between atoms: C_25  and  C_26
REMARK    8  A    between atoms: C_26  and  O_27
REMARK    9  A    between atoms: C_26  and  C_30
REMARK   10  A    between atoms: C_30  and  O_31
REMARK                            x       y       z     vdW  Elec       q    Type
REMARK                         _______ _______ _______ _____ _____    ______ ____
ROOT
ATOM      1  S   UNL     1      34.367 -15.998 -24.749  0.00  0.00    -0.087 S 
ATOM      2  C   UNL     1      34.935 -15.868 -22.002  0.00  0.00    -0.013 C 
ATOM      3  C   UNL     1      34.340 -15.330 -23.160  0.00  0.00    +0.029 C 
ATOM      4  C   UNL     1      33.629 -14.128 -23.125  0.00  0.00    +0.040 C 
ATOM      5  C   UNL     1      33.515 -13.453 -21.886  0.00  0.00    +0.139 C 
ATOM      6  C   UNL     1      34.805 -15.178 -20.795  0.00  0.00    -0.001 C 
ATOM      7  C   UNL     1      34.104 -13.983 -20.735  0.00  0.00    +0.037 C 
ATOM      8  C   UNL     1      33.120 -13.787 -24.424  0.00  0.00    +0.010 C 
ATOM      9  C   UNL     1      33.448 -14.712 -25.387  0.00  0.00    +0.036 C 
ENDROOT
BRANCH   5  10
ATOM     10  O   UNL     1      32.829 -12.268 -21.786  0.00  0.00    -0.475 OA
BRANCH  10  11
ATOM     11  C   UNL     1      31.906 -12.154 -20.712  0.00  0.00    +0.213 C 
BRANCH  11  12
ATOM     12  C   UNL     1      30.893 -11.054 -21.016  0.00  0.00    +0.105 C 
BRANCH  12  15
ATOM     13  O   UNL     1      32.574  -7.817 -20.859  0.00  0.00    -0.449 OA
ATOM     14  N   UNL     1      31.519  -9.099 -22.396  0.00  0.00    -0.373 NA
ATOM     15  C   UNL     1      31.532  -9.705 -21.183  0.00  0.00    +0.134 C 
ATOM     16  C   UNL     1      32.158  -8.959 -20.244  0.00  0.00    +0.216 C 
ATOM     17  C   UNL     1      32.154  -7.976 -22.145  0.00  0.00    +0.277 C 
ATOM     18  C   UNL     1      32.463  -9.097 -18.816  0.00  0.00    +0.055 C 
BRANCH  17  19
ATOM     19  C   UNL     1      32.471  -6.890 -23.031  0.00  0.00    +0.066 C 
ATOM     20  C   UNL     1      33.800  -6.494 -23.209  0.00  0.00    +0.006 C 
ATOM     21  C   UNL     1      31.453  -6.223 -23.718  0.00  0.00    +0.006 C 
ATOM     22  C   UNL     1      34.108  -5.440 -24.068  0.00  0.00    +0.000 C 
ATOM     23  C   UNL     1      31.762  -5.168 -24.578  0.00  0.00    +0.000 C 
ATOM     24  C   UNL     1      33.089  -4.776 -24.753  0.00  0.00    +0.000 C 
ENDBRANCH  17  19
ENDBRANCH  12  15
ENDBRANCH  11  12
ENDBRANCH  10  11
ENDBRANCH   5  10
BRANCH   2  25
ATOM     25  C   UNL     1      35.701 -17.153 -22.008  0.00  0.00    +0.068 C 
BRANCH  25  26
ATOM     26  C   UNL     1      35.425 -18.007 -20.763  0.00  0.00    +0.218 C 
BRANCH  26  27
ATOM     27  O   UNL     1      36.661 -18.529 -20.288  0.00  0.00    -0.342 OA
ATOM     28  C   UNL     1      37.620 -18.627 -21.332  0.00  0.00    +0.175 C 
ENDBRANCH  26  27
BRANCH  26  30
ATOM     29  O   UNL     1      33.949 -19.875 -20.265  0.00  0.00    -0.248 OA
ATOM     30  C   UNL     1      34.529 -19.184 -21.092  0.00  0.00    +0.342 C 
BRANCH  30  31
ATOM     31  O   UNL     1      34.421 -19.387 -22.430  0.00  0.00    -0.479 OA
ATOM     32  H   UNL     1      35.172 -19.646 -22.928  0.00  0.00    +0.295 HD
ENDBRANCH  30  31
ENDBRANCH  26  30
ENDBRANCH  25  26
ENDBRANCH   2  25
TORSDOF 10
ENDMDL
