MODEL 1
REMARK VINA RESULT:     -11.3      0.000      0.000
REMARK  Name = 25113614
REMARK  7 active torsions:
REMARK  status: ('A' for Active; 'I' for Inactive)
REMARK    1  A    between atoms: C_3  and  C_10
REMARK    2  A    between atoms: C_7  and  C_25
REMARK    3  A    between atoms: N_9  and  C_12
REMARK    4  A    between atoms: C_12  and  C_13
REMARK    5  A    between atoms: C_18  and  C_21
REMARK    6  A    between atoms: C_25  and  N_26
REMARK    7  A    between atoms: N_26  and  C_29
REMARK                            x       y       z     vdW  Elec       q    Type
REMARK                         _______ _______ _______ _____ _____    ______ ____
ROOT
ATOM      1  O   UNL     1      34.950 -25.045 -11.385  0.00  0.00    -0.277 OA
ATOM      2  N   UNL     1      35.829 -23.918 -13.200  0.00  0.00    -0.275 N 
ATOM      3  C   UNL     1      35.786 -22.910 -14.255  0.00  0.00    +0.152 C 
ATOM      4  C   UNL     1      37.251 -22.587 -14.535  0.00  0.00    +0.031 C 
ATOM      5  C   UNL     1      37.181 -24.430 -13.019  0.00  0.00    +0.094 C 
ATOM      6  C   UNL     1      37.971 -23.892 -14.201  0.00  0.00    +0.024 C 
ATOM      7  C   UNL     1      34.804 -24.282 -12.341  0.00  0.00    +0.204 C 
ENDROOT
BRANCH   3  10
ATOM      8  O   UNL     1      35.024 -24.742 -15.582  0.00  0.00    -0.273 OA
ATOM      9  N   UNL     1      34.734 -22.575 -16.380  0.00  0.00    -0.299 N 
ATOM     10  C   UNL     1      35.140 -23.526 -15.460  0.00  0.00    +0.241 C 
ATOM     11  H   UNL     1      34.881 -21.625 -16.168  0.00  0.00    +0.150 HD
BRANCH   9  12
ATOM     12  C   UNL     1      34.103 -22.909 -17.637  0.00  0.00    +0.116 C 
BRANCH  12  13
ATOM     13  C   UNL     1      34.307 -21.840 -18.670  0.00  0.00    -0.003 C 
ATOM     14  C   UNL     1      35.598 -21.488 -19.064  0.00  0.00    -0.003 C 
ATOM     15  C   UNL     1      33.206 -21.196 -19.234  0.00  0.00    -0.003 C 
ATOM     16  C   UNL     1      35.788 -20.493 -20.022  0.00  0.00    +0.002 C 
ATOM     17  C   UNL     1      33.396 -20.201 -20.192  0.00  0.00    +0.002 C 
ATOM     18  C   UNL     1      34.687 -19.849 -20.588  0.00  0.00    +0.031 C 
BRANCH  18  21
ATOM     19  N   UNL     1      35.290 -17.528 -21.230  0.00  0.00    -0.343 N 
ATOM     20  N   UNL     1      34.676 -19.081 -22.865  0.00  0.00    -0.285 NA
ATOM     21  C   UNL     1      34.885 -18.812 -21.587  0.00  0.00    +0.117 C 
ATOM     22  H   UNL     1      35.419 -16.841 -21.924  0.00  0.00    +0.144 HD
ATOM     23  H   UNL     1      35.448 -17.307 -20.284  0.00  0.00    +0.144 HD
ATOM     24  H   UNL     1      34.811 -18.381 -23.543  0.00  0.00    +0.188 HD
ENDBRANCH  18  21
ENDBRANCH  12  13
ENDBRANCH   9  12
ENDBRANCH   3  10
BRANCH   7  25
ATOM     25  C   UNL     1      33.451 -23.683 -12.633  0.00  0.00    +0.006 C 
BRANCH  25  26
ATOM     26  N   UNL     1      32.510 -24.786 -12.733  0.00  0.00    +0.391 N 
ATOM     27  H   UNL     1      33.027 -25.664 -12.779  0.00  0.00    -0.084 HD
ATOM     28  H   UNL     1      31.904 -24.777 -11.913  0.00  0.00    -0.084 HD
BRANCH  26  29
ATOM     29  C   UNL     1      31.683 -24.648 -13.937  0.00  0.00    -0.061 C 
ATOM     30  C   UNL     1      31.791 -23.198 -14.422  0.00  0.00    -0.021 C 
ATOM     31  C   UNL     1      30.256 -25.109 -13.608  0.00  0.00    -0.021 C 
ATOM     32  C   UNL     1      30.933 -22.849 -15.638  0.00  0.00    -0.002 C 
ATOM     33  C   UNL     1      29.391 -25.296 -14.854  0.00  0.00    -0.002 C 
ATOM     34  C   UNL     1      29.452 -22.733 -15.297  0.00  0.00    -0.000 C 
ATOM     35  C   UNL     1      28.673 -24.043 -15.343  0.00  0.00    -0.000 C 
ENDBRANCH  26  29
ENDBRANCH  25  26
ENDBRANCH   7  25
TORSDOF 7
ENDMDL
MODEL 2
REMARK VINA RESULT:     -11.1      2.328      6.354
REMARK  Name = 25113614
REMARK  7 active torsions:
REMARK  status: ('A' for Active; 'I' for Inactive)
REMARK    1  A    between atoms: C_3  and  C_10
REMARK    2  A    between atoms: C_7  and  C_25
REMARK    3  A    between atoms: N_9  and  C_12
REMARK    4  A    between atoms: C_12  and  C_13
REMARK    5  A    between atoms: C_18  and  C_21
REMARK    6  A    between atoms: C_25  and  N_26
REMARK    7  A    between atoms: N_26  and  C_29
REMARK                            x       y       z     vdW  Elec       q    Type
REMARK                         _______ _______ _______ _____ _____    ______ ____
ROOT
ATOM      1  O   UNL     1      38.692 -22.657 -15.379  0.00  0.00    -0.277 OA
ATOM      2  N   UNL     1      37.271 -24.354 -14.716  0.00  0.00    -0.275 N 
ATOM      3  C   UNL     1      36.005 -25.083 -14.748  0.00  0.00    +0.152 C 
ATOM      4  C   UNL     1      36.375 -26.506 -14.338  0.00  0.00    +0.031 C 
ATOM      5  C   UNL     1      38.310 -25.135 -14.059  0.00  0.00    +0.094 C 
ATOM      6  C   UNL     1      37.582 -26.309 -13.424  0.00  0.00    +0.024 C 
ATOM      7  C   UNL     1      37.563 -23.149 -15.336  0.00  0.00    +0.204 C 
ENDROOT
BRANCH   3  10
ATOM      8  O   UNL     1      35.504 -23.721 -12.852  0.00  0.00    -0.273 OA
ATOM      9  N   UNL     1      33.769 -24.845 -13.924  0.00  0.00    -0.299 N 
ATOM     10  C   UNL     1      35.087 -24.463 -13.738  0.00  0.00    +0.241 C 
ATOM     11  H   UNL     1      33.558 -25.446 -14.675  0.00  0.00    +0.150 HD
BRANCH   9  12
ATOM     12  C   UNL     1      32.690 -24.403 -13.071  0.00  0.00    +0.116 C 
BRANCH  12  13
ATOM     13  C   UNL     1      31.455 -24.068 -13.856  0.00  0.00    -0.003 C 
ATOM     14  C   UNL     1      31.484 -23.038 -14.797  0.00  0.00    -0.003 C 
ATOM     15  C   UNL     1      30.277 -24.784 -13.643  0.00  0.00    -0.003 C 
ATOM     16  C   UNL     1      30.337 -22.725 -15.524  0.00  0.00    +0.002 C 
ATOM     17  C   UNL     1      29.129 -24.471 -14.370  0.00  0.00    +0.002 C 
ATOM     18  C   UNL     1      29.159 -23.442 -15.312  0.00  0.00    +0.031 C 
BRANCH  18  21
ATOM     19  N   UNL     1      26.943 -22.343 -15.522  0.00  0.00    -0.343 N 
ATOM     20  N   UNL     1      27.828 -23.560 -17.309  0.00  0.00    -0.285 NA
ATOM     21  C   UNL     1      27.963 -23.115 -16.071  0.00  0.00    +0.117 C 
ATOM     22  H   UNL     1      26.141 -22.133 -16.054  0.00  0.00    +0.144 HD
ATOM     23  H   UNL     1      27.023 -22.005 -14.601  0.00  0.00    +0.144 HD
ATOM     24  H   UNL     1      27.020 -23.339 -17.826  0.00  0.00    +0.188 HD
ENDBRANCH  18  21
ENDBRANCH  12  13
ENDBRANCH   9  12
ENDBRANCH   3  10
BRANCH   7  25
ATOM     25  C   UNL     1      36.402 -22.437 -15.982  0.00  0.00    +0.006 C 
BRANCH  25  26
ATOM     26  N   UNL     1      36.926 -21.733 -17.140  0.00  0.00    +0.391 N 
ATOM     27  H   UNL     1      37.062 -20.750 -16.902  0.00  0.00    -0.084 HD
ATOM     28  H   UNL     1      37.814 -22.156 -17.409  0.00  0.00    -0.084 HD
BRANCH  26  29
ATOM     29  C   UNL     1      35.992 -21.831 -18.268  0.00  0.00    -0.061 C 
ATOM     30  C   UNL     1      36.211 -20.612 -19.171  0.00  0.00    -0.021 C 
ATOM     31  C   UNL     1      34.566 -21.972 -17.715  0.00  0.00    -0.021 C 
ATOM     32  C   UNL     1      35.269 -20.510 -20.371  0.00  0.00    -0.002 C 
ATOM     33  C   UNL     1      33.554 -22.384 -18.782  0.00  0.00    -0.002 C 
ATOM     34  C   UNL     1      33.857 -20.092 -19.976  0.00  0.00    -0.000 C 
ATOM     35  C   UNL     1      32.934 -21.236 -19.571  0.00  0.00    -0.000 C 
ENDBRANCH  26  29
ENDBRANCH  25  26
ENDBRANCH   7  25
TORSDOF 7
ENDMDL
MODEL 3
REMARK VINA RESULT:     -10.2      6.845     11.291
REMARK  Name = 25113614
REMARK  7 active torsions:
REMARK  status: ('A' for Active; 'I' for Inactive)
REMARK    1  A    between atoms: C_3  and  C_10
REMARK    2  A    between atoms: C_7  and  C_25
REMARK    3  A    between atoms: N_9  and  C_12
REMARK    4  A    between atoms: C_12  and  C_13
REMARK    5  A    between atoms: C_18  and  C_21
REMARK    6  A    between atoms: C_25  and  N_26
REMARK    7  A    between atoms: N_26  and  C_29
REMARK                            x       y       z     vdW  Elec       q    Type
REMARK                         _______ _______ _______ _____ _____    ______ ____
ROOT
ATOM      1  O   UNL     1      34.219 -18.140 -23.808  0.00  0.00    -0.277 OA
ATOM      2  N   UNL     1      34.274 -15.838 -23.617  0.00  0.00    -0.275 N 
ATOM      3  C   UNL     1      34.797 -14.585 -23.079  0.00  0.00    +0.152 C 
ATOM      4  C   UNL     1      34.496 -13.550 -24.159  0.00  0.00    +0.031 C 
ATOM      5  C   UNL     1      33.443 -15.598 -24.790  0.00  0.00    +0.094 C 
ATOM      6  C   UNL     1      33.235 -14.093 -24.827  0.00  0.00    +0.024 C 
ATOM      7  C   UNL     1      34.597 -17.126 -23.219  0.00  0.00    +0.204 C 
ENDROOT
BRANCH   3  10
ATOM      8  O   UNL     1      34.416 -14.682 -20.724  0.00  0.00    -0.273 OA
ATOM      9  N   UNL     1      32.917 -13.506 -22.061  0.00  0.00    -0.299 N 
ATOM     10  C   UNL     1      34.046 -14.271 -21.820  0.00  0.00    +0.241 C 
ATOM     11  H   UNL     1      32.725 -13.235 -22.988  0.00  0.00    +0.150 HD
BRANCH   9  12
ATOM     12  C   UNL     1      32.009 -13.085 -21.019  0.00  0.00    +0.116 C 
BRANCH  12  13
ATOM     13  C   UNL     1      32.101 -11.611 -20.754  0.00  0.00    -0.003 C 
ATOM     14  C   UNL     1      32.008 -11.129 -19.448  0.00  0.00    -0.003 C 
ATOM     15  C   UNL     1      32.278 -10.721 -21.814  0.00  0.00    -0.003 C 
ATOM     16  C   UNL     1      32.091  -9.759 -19.202  0.00  0.00    +0.002 C 
ATOM     17  C   UNL     1      32.362  -9.351 -21.568  0.00  0.00    +0.002 C 
ATOM     18  C   UNL     1      32.269  -8.869 -20.262  0.00  0.00    +0.031 C 
BRANCH  18  21
ATOM     19  N   UNL     1      31.455  -6.545 -20.574  0.00  0.00    -0.343 N 
ATOM     20  N   UNL     1      33.311  -6.972 -19.220  0.00  0.00    -0.285 NA
ATOM     21  C   UNL     1      32.356  -7.441 -20.005  0.00  0.00    +0.117 C 
ATOM     22  H   UNL     1      31.532  -5.581 -20.386  0.00  0.00    +0.144 HD
ATOM     23  H   UNL     1      30.740  -6.874 -21.164  0.00  0.00    +0.144 HD
ATOM     24  H   UNL     1      33.371  -6.006 -19.043  0.00  0.00    +0.188 HD
ENDBRANCH  18  21
ENDBRANCH  12  13
ENDBRANCH   9  12
ENDBRANCH   3  10
BRANCH   7  25
ATOM     25  C   UNL     1      35.465 -17.241 -21.992  0.00  0.00    +0.006 C 
BRANCH  25  26
ATOM     26  N   UNL     1      35.877 -18.631 -21.891  0.00  0.00    +0.391 N 
ATOM     27  H   UNL     1      35.504 -19.150 -22.687  0.00  0.00    -0.084 HD
ATOM     28  H   UNL     1      36.896 -18.674 -21.890  0.00  0.00    -0.084 HD
BRANCH  26  29
ATOM     29  C   UNL     1      35.375 -19.228 -20.648  0.00  0.00    -0.061 C 
ATOM     30  C   UNL     1      36.470 -20.142 -20.087  0.00  0.00    -0.021 C 
ATOM     31  C   UNL     1      34.042 -19.929 -20.942  0.00  0.00    -0.021 C 
ATOM     32  C   UNL     1      36.095 -20.909 -18.818  0.00  0.00    -0.002 C 
ATOM     33  C   UNL     1      33.284 -20.319 -19.674  0.00  0.00    -0.002 C 
ATOM     34  C   UNL     1      35.130 -22.057 -19.089  0.00  0.00    -0.000 C 
ATOM     35  C   UNL     1      33.654 -21.677 -19.085  0.00  0.00    -0.000 C 
ENDBRANCH  26  29
ENDBRANCH  25  26
ENDBRANCH   7  25
TORSDOF 7
ENDMDL
MODEL 4
REMARK VINA RESULT:      -9.9      8.844     13.680
REMARK  Name = 25113614
REMARK  7 active torsions:
REMARK  status: ('A' for Active; 'I' for Inactive)
REMARK    1  A    between atoms: C_3  and  C_10
REMARK    2  A    between atoms: C_7  and  C_25
REMARK    3  A    between atoms: N_9  and  C_12
REMARK    4  A    between atoms: C_12  and  C_13
REMARK    5  A    between atoms: C_18  and  C_21
REMARK    6  A    between atoms: C_25  and  N_26
REMARK    7  A    between atoms: N_26  and  C_29
REMARK                            x       y       z     vdW  Elec       q    Type
REMARK                         _______ _______ _______ _____ _____    ______ ____
ROOT
ATOM      1  O   UNL     1      33.433 -15.656 -25.498  0.00  0.00    -0.277 OA
ATOM      2  N   UNL     1      33.714 -13.530 -24.639  0.00  0.00    -0.275 N 
ATOM      3  C   UNL     1      34.186 -12.580 -23.634  0.00  0.00    +0.152 C 
ATOM      4  C   UNL     1      34.394 -11.280 -24.405  0.00  0.00    +0.031 C 
ATOM      5  C   UNL     1      33.356 -12.848 -25.876  0.00  0.00    +0.094 C 
ATOM      6  C   UNL     1      33.366 -11.368 -25.531  0.00  0.00    +0.024 C 
ATOM      7  C   UNL     1      33.721 -14.913 -24.558  0.00  0.00    +0.204 C 
ENDROOT
BRANCH   3  10
ATOM      8  O   UNL     1      32.504 -13.383 -22.142  0.00  0.00    -0.273 OA
ATOM      9  N   UNL     1      32.884 -11.091 -22.284  0.00  0.00    -0.299 N 
ATOM     10  C   UNL     1      33.107 -12.418 -22.605  0.00  0.00    +0.241 C 
ATOM     11  H   UNL     1      33.436 -10.403 -22.724  0.00  0.00    +0.150 HD
BRANCH   9  12
ATOM     12  C   UNL     1      31.881 -10.664 -21.335  0.00  0.00    +0.116 C 
BRANCH  12  13
ATOM     13  C   UNL     1      31.694  -9.175 -21.347  0.00  0.00    -0.003 C 
ATOM     14  C   UNL     1      31.162  -8.548 -22.475  0.00  0.00    -0.003 C 
ATOM     15  C   UNL     1      32.053  -8.417 -20.233  0.00  0.00    -0.003 C 
ATOM     16  C   UNL     1      30.989  -7.165 -22.487  0.00  0.00    +0.002 C 
ATOM     17  C   UNL     1      31.880  -7.034 -20.245  0.00  0.00    +0.002 C 
ATOM     18  C   UNL     1      31.348  -6.406 -21.372  0.00  0.00    +0.031 C 
BRANCH  18  21
ATOM     19  N   UNL     1      32.199  -4.099 -21.028  0.00  0.00    -0.343 N 
ATOM     20  N   UNL     1      30.000  -4.451 -21.737  0.00  0.00    -0.285 NA
ATOM     21  C   UNL     1      31.167  -4.964 -21.385  0.00  0.00    +0.117 C 
ATOM     22  H   UNL     1      32.055  -3.126 -21.045  0.00  0.00    +0.144 HD
ATOM     23  H   UNL     1      33.074  -4.462 -20.760  0.00  0.00    +0.144 HD
ATOM     24  H   UNL     1      29.876  -3.475 -21.748  0.00  0.00    +0.188 HD
ENDBRANCH  18  21
ENDBRANCH  12  13
ENDBRANCH   9  12
ENDBRANCH   3  10
BRANCH   7  25
ATOM     25  C   UNL     1      34.112 -15.497 -23.224  0.00  0.00    +0.006 C 
BRANCH  25  26
ATOM     26  N   UNL     1      35.519 -15.848 -23.310  0.00  0.00    +0.391 N 
ATOM     27  H   UNL     1      35.819 -15.796 -24.283  0.00  0.00    -0.084 HD
ATOM     28  H   UNL     1      36.058 -15.195 -22.741  0.00  0.00    -0.084 HD
BRANCH  26  29
ATOM     29  C   UNL     1      35.741 -17.210 -22.808  0.00  0.00    -0.061 C 
ATOM     30  C   UNL     1      34.634 -18.107 -23.373  0.00  0.00    -0.021 C 
ATOM     31  C   UNL     1      35.809 -17.163 -21.275  0.00  0.00    -0.021 C 
ATOM     32  C   UNL     1      34.664 -19.560 -22.897  0.00  0.00    -0.002 C 
ATOM     33  C   UNL     1      36.336 -18.462 -20.665  0.00  0.00    -0.002 C 
ATOM     34  C   UNL     1      34.196 -19.716 -21.455  0.00  0.00    -0.000 C 
ATOM     35  C   UNL     1      35.281 -19.531 -20.400  0.00  0.00    -0.000 C 
ENDBRANCH  26  29
ENDBRANCH  25  26
ENDBRANCH   7  25
TORSDOF 7
ENDMDL
MODEL 5
REMARK VINA RESULT:      -9.7      6.785     12.108
REMARK  Name = 25113614
REMARK  7 active torsions:
REMARK  status: ('A' for Active; 'I' for Inactive)
REMARK    1  A    between atoms: C_3  and  C_10
REMARK    2  A    between atoms: C_7  and  C_25
REMARK    3  A    between atoms: N_9  and  C_12
REMARK    4  A    between atoms: C_12  and  C_13
REMARK    5  A    between atoms: C_18  and  C_21
REMARK    6  A    between atoms: C_25  and  N_26
REMARK    7  A    between atoms: N_26  and  C_29
REMARK                            x       y       z     vdW  Elec       q    Type
REMARK                         _______ _______ _______ _____ _____    ______ ____
ROOT
ATOM      1  O   UNL     1      33.437 -11.497 -23.952  0.00  0.00    -0.277 OA
ATOM      2  N   UNL     1      33.637 -13.794 -24.110  0.00  0.00    -0.275 N 
ATOM      3  C   UNL     1      33.464 -15.156 -23.612  0.00  0.00    +0.152 C 
ATOM      4  C   UNL     1      33.394 -16.016 -24.871  0.00  0.00    +0.031 C 
ATOM      5  C   UNL     1      33.956 -13.792 -25.532  0.00  0.00    +0.094 C 
ATOM      6  C   UNL     1      34.247 -15.244 -25.875  0.00  0.00    +0.024 C 
ATOM      7  C   UNL     1      33.399 -12.612 -23.427  0.00  0.00    +0.204 C 
ENDROOT
BRANCH   3  10
ATOM      8  O   UNL     1      35.355 -14.650 -22.246  0.00  0.00    -0.273 OA
ATOM      9  N   UNL     1      34.907 -16.873 -22.771  0.00  0.00    -0.299 N 
ATOM     10  C   UNL     1      34.671 -15.509 -22.796  0.00  0.00    +0.241 C 
ATOM     11  H   UNL     1      34.283 -17.465 -23.253  0.00  0.00    +0.150 HD
BRANCH   9  12
ATOM     12  C   UNL     1      36.021 -17.471 -22.073  0.00  0.00    +0.116 C 
BRANCH  12  13
ATOM     13  C   UNL     1      35.591 -18.620 -21.208  0.00  0.00    -0.003 C 
ATOM     14  C   UNL     1      36.535 -19.318 -20.455  0.00  0.00    -0.003 C 
ATOM     15  C   UNL     1      34.247 -18.991 -21.158  0.00  0.00    -0.003 C 
ATOM     16  C   UNL     1      36.136 -20.387 -19.653  0.00  0.00    +0.002 C 
ATOM     17  C   UNL     1      33.848 -20.059 -20.356  0.00  0.00    +0.002 C 
ATOM     18  C   UNL     1      34.792 -20.758 -19.602  0.00  0.00    +0.031 C 
BRANCH  18  21
ATOM     19  N   UNL     1      33.092 -22.404 -18.850  0.00  0.00    -0.343 N 
ATOM     20  N   UNL     1      35.226 -22.395 -17.897  0.00  0.00    -0.285 NA
ATOM     21  C   UNL     1      34.376 -21.871 -18.765  0.00  0.00    +0.117 C 
ATOM     22  H   UNL     1      32.832 -23.158 -18.274  0.00  0.00    +0.144 HD
ATOM     23  H   UNL     1      32.444 -22.026 -19.487  0.00  0.00    +0.144 HD
ATOM     24  H   UNL     1      34.947 -23.149 -17.331  0.00  0.00    +0.188 HD
ENDBRANCH  18  21
ENDBRANCH  12  13
ENDBRANCH   9  12
ENDBRANCH   3  10
BRANCH   7  25
ATOM     25  C   UNL     1      33.077 -12.748 -21.960  0.00  0.00    +0.006 C 
BRANCH  25  26
ATOM     26  N   UNL     1      31.646 -12.539 -21.818  0.00  0.00    +0.391 N 
ATOM     27  H   UNL     1      31.234 -12.398 -22.741  0.00  0.00    -0.084 HD
ATOM     28  H   UNL     1      31.236 -13.360 -21.372  0.00  0.00    -0.084 HD
BRANCH  26  29
ATOM     29  C   UNL     1      31.378 -11.362 -20.984  0.00  0.00    -0.061 C 
ATOM     30  C   UNL     1      31.582 -10.113 -21.849  0.00  0.00    -0.021 C 
ATOM     31  C   UNL     1      32.270 -11.430 -19.736  0.00  0.00    -0.021 C 
ATOM     32  C   UNL     1      31.413  -8.779 -21.123  0.00  0.00    -0.002 C 
ATOM     33  C   UNL     1      31.861 -10.426 -18.659  0.00  0.00    -0.002 C 
ATOM     34  C   UNL     1      32.584  -8.458 -20.201  0.00  0.00    -0.000 C 
ATOM     35  C   UNL     1      32.479  -9.038 -18.795  0.00  0.00    -0.000 C 
ENDBRANCH  26  29
ENDBRANCH  25  26
ENDBRANCH   7  25
TORSDOF 7
ENDMDL
MODEL 6
REMARK VINA RESULT:      -9.4      9.872     14.351
REMARK  Name = 25113614
REMARK  7 active torsions:
REMARK  status: ('A' for Active; 'I' for Inactive)
REMARK    1  A    between atoms: C_3  and  C_10
REMARK    2  A    between atoms: C_7  and  C_25
REMARK    3  A    between atoms: N_9  and  C_12
REMARK    4  A    between atoms: C_12  and  C_13
REMARK    5  A    between atoms: C_18  and  C_21
REMARK    6  A    between atoms: C_25  and  N_26
REMARK    7  A    between atoms: N_26  and  C_29
REMARK                            x       y       z     vdW  Elec       q    Type
REMARK                         _______ _______ _______ _____ _____    ______ ____
ROOT
ATOM      1  O   UNL     1      33.787 -14.443 -20.161  0.00  0.00    -0.277 OA
ATOM      2  N   UNL     1      32.591 -12.589 -20.846  0.00  0.00    -0.275 N 
ATOM      3  C   UNL     1      31.875 -11.791 -21.838  0.00  0.00    +0.152 C 
ATOM      4  C   UNL     1      30.889 -10.960 -21.021  0.00  0.00    +0.031 C 
ATOM      5  C   UNL     1      32.321 -12.111 -19.496  0.00  0.00    +0.094 C 
ATOM      6  C   UNL     1      31.600 -10.786 -19.681  0.00  0.00    +0.024 C 
ATOM      7  C   UNL     1      33.321 -13.746 -21.064  0.00  0.00    +0.204 C 
ENDROOT
BRANCH   3  10
ATOM      8  O   UNL     1      33.772 -11.364 -23.224  0.00  0.00    -0.273 OA
ATOM      9  N   UNL     1      32.649  -9.565 -22.264  0.00  0.00    -0.299 N 
ATOM     10  C   UNL     1      32.869 -10.906 -22.528  0.00  0.00    +0.241 C 
ATOM     11  H   UNL     1      31.888  -9.320 -21.689  0.00  0.00    +0.150 HD
BRANCH   9  12
ATOM     12  C   UNL     1      33.482  -8.508 -22.791  0.00  0.00    +0.116 C 
BRANCH  12  13
ATOM     13  C   UNL     1      32.927  -7.149 -22.479  0.00  0.00    -0.003 C 
ATOM     14  C   UNL     1      32.096  -6.970 -21.373  0.00  0.00    -0.003 C 
ATOM     15  C   UNL     1      33.241  -6.063 -23.297  0.00  0.00    -0.003 C 
ATOM     16  C   UNL     1      31.580  -5.708 -21.085  0.00  0.00    +0.002 C 
ATOM     17  C   UNL     1      32.724  -4.800 -23.009  0.00  0.00    +0.002 C 
ATOM     18  C   UNL     1      31.894  -4.622 -21.902  0.00  0.00    +0.031 C 
BRANCH  18  21
ATOM     19  N   UNL     1      30.017  -2.997 -21.836  0.00  0.00    -0.343 N 
ATOM     20  N   UNL     1      32.143  -2.372 -21.096  0.00  0.00    -0.285 NA
ATOM     21  C   UNL     1      31.355  -3.306 -21.601  0.00  0.00    +0.117 C 
ATOM     22  H   UNL     1      29.673  -2.100 -21.624  0.00  0.00    +0.144 HD
ATOM     23  H   UNL     1      29.415  -3.678 -22.214  0.00  0.00    +0.144 HD
ATOM     24  H   UNL     1      31.781  -1.481 -20.890  0.00  0.00    +0.188 HD
ENDBRANCH  18  21
ENDBRANCH  12  13
ENDBRANCH   9  12
ENDBRANCH   3  10
BRANCH   7  25
ATOM     25  C   UNL     1      33.529 -14.136 -22.506  0.00  0.00    +0.006 C 
BRANCH  25  26
ATOM     26  N   UNL     1      34.957 -14.326 -22.693  0.00  0.00    +0.391 N 
ATOM     27  H   UNL     1      35.304 -13.630 -23.353  0.00  0.00    -0.084 HD
ATOM     28  H   UNL     1      35.425 -14.221 -21.793  0.00  0.00    -0.084 HD
BRANCH  26  29
ATOM     29  C   UNL     1      35.233 -15.669 -23.217  0.00  0.00    -0.061 C 
ATOM     30  C   UNL     1      34.125 -16.023 -24.215  0.00  0.00    -0.021 C 
ATOM     31  C   UNL     1      35.367 -16.640 -22.036  0.00  0.00    -0.021 C 
ATOM     32  C   UNL     1      34.210 -17.427 -24.816  0.00  0.00    -0.002 C 
ATOM     33  C   UNL     1      35.950 -17.992 -22.442  0.00  0.00    -0.002 C 
ATOM     34  C   UNL     1      33.809 -18.515 -23.826  0.00  0.00    -0.000 C 
ATOM     35  C   UNL     1      34.935 -19.020 -22.930  0.00  0.00    -0.000 C 
ENDBRANCH  26  29
ENDBRANCH  25  26
ENDBRANCH   7  25
TORSDOF 7
ENDMDL
MODEL 7
REMARK VINA RESULT:      -9.4      2.964      5.575
REMARK  Name = 25113614
REMARK  7 active torsions:
REMARK  status: ('A' for Active; 'I' for Inactive)
REMARK    1  A    between atoms: C_3  and  C_10
REMARK    2  A    between atoms: C_7  and  C_25
REMARK    3  A    between atoms: N_9  and  C_12
REMARK    4  A    between atoms: C_12  and  C_13
REMARK    5  A    between atoms: C_18  and  C_21
REMARK    6  A    between atoms: C_25  and  N_26
REMARK    7  A    between atoms: N_26  and  C_29
REMARK                            x       y       z     vdW  Elec       q    Type
REMARK                         _______ _______ _______ _____ _____    ______ ____
ROOT
ATOM      1  O   UNL     1      34.193 -22.867 -14.883  0.00  0.00    -0.277 OA
ATOM      2  N   UNL     1      34.483 -22.501 -17.146  0.00  0.00    -0.275 N 
ATOM      3  C   UNL     1      35.253 -22.541 -18.387  0.00  0.00    +0.152 C 
ATOM      4  C   UNL     1      34.199 -22.615 -19.488  0.00  0.00    +0.031 C 
ATOM      5  C   UNL     1      33.070 -22.263 -17.414  0.00  0.00    +0.094 C 
ATOM      6  C   UNL     1      33.004 -21.882 -18.884  0.00  0.00    +0.024 C 
ATOM      7  C   UNL     1      34.931 -22.790 -15.867  0.00  0.00    +0.204 C 
ENDROOT
BRANCH   3  10
ATOM      8  O   UNL     1      36.771 -20.883 -17.582  0.00  0.00    -0.273 OA
ATOM      9  N   UNL     1      35.807 -20.605 -19.682  0.00  0.00    -0.299 N 
ATOM     10  C   UNL     1      36.036 -21.266 -18.489  0.00  0.00    +0.241 C 
ATOM     11  H   UNL     1      35.194 -21.015 -20.335  0.00  0.00    +0.150 HD
BRANCH   9  12
ATOM     12  C   UNL     1      36.424 -19.342 -20.018  0.00  0.00    +0.116 C 
BRANCH  12  13
ATOM     13  C   UNL     1      35.787 -18.707 -21.219  0.00  0.00    -0.003 C 
ATOM     14  C   UNL     1      35.933 -17.338 -21.445  0.00  0.00    -0.003 C 
ATOM     15  C   UNL     1      35.046 -19.485 -22.110  0.00  0.00    -0.003 C 
ATOM     16  C   UNL     1      35.339 -16.748 -22.560  0.00  0.00    +0.002 C 
ATOM     17  C   UNL     1      34.453 -18.894 -23.225  0.00  0.00    +0.002 C 
ATOM     18  C   UNL     1      34.599 -17.526 -23.451  0.00  0.00    +0.031 C 
BRANCH  18  21
ATOM     19  N   UNL     1      34.463 -15.714 -25.144  0.00  0.00    -0.343 N 
ATOM     20  N   UNL     1      32.937 -17.483 -25.186  0.00  0.00    -0.285 NA
ATOM     21  C   UNL     1      33.982 -16.909 -24.614  0.00  0.00    +0.117 C 
ATOM     22  H   UNL     1      34.029 -15.314 -25.932  0.00  0.00    +0.144 HD
ATOM     23  H   UNL     1      35.238 -15.270 -24.730  0.00  0.00    +0.144 HD
ATOM     24  H   UNL     1      32.518 -17.069 -25.973  0.00  0.00    +0.188 HD
ENDBRANCH  18  21
ENDBRANCH  12  13
ENDBRANCH   9  12
ENDBRANCH   3  10
BRANCH   7  25
ATOM     25  C   UNL     1      36.414 -23.018 -15.721  0.00  0.00    +0.006 C 
BRANCH  25  26
ATOM     26  N   UNL     1      36.846 -22.277 -14.548  0.00  0.00    +0.391 N 
ATOM     27  H   UNL     1      37.525 -21.570 -14.830  0.00  0.00    -0.084 HD
ATOM     28  H   UNL     1      36.032 -21.832 -14.122  0.00  0.00    -0.084 HD
BRANCH  26  29
ATOM     29  C   UNL     1      37.463 -23.178 -13.568  0.00  0.00    -0.061 C 
ATOM     30  C   UNL     1      37.927 -24.436 -14.311  0.00  0.00    -0.021 C 
ATOM     31  C   UNL     1      36.459 -23.435 -12.436  0.00  0.00    -0.021 C 
ATOM     32  C   UNL     1      38.538 -25.527 -13.430  0.00  0.00    -0.002 C 
ATOM     33  C   UNL     1      37.096 -24.107 -11.220  0.00  0.00    -0.002 C 
ATOM     34  C   UNL     1      37.493 -26.272 -12.608  0.00  0.00    -0.000 C 
ATOM     35  C   UNL     1      37.146 -25.630 -11.269  0.00  0.00    -0.000 C 
ENDBRANCH  26  29
ENDBRANCH  25  26
ENDBRANCH   7  25
TORSDOF 7
ENDMDL
MODEL 8
REMARK VINA RESULT:      -9.1      2.370      5.074
REMARK  Name = 25113614
REMARK  7 active torsions:
REMARK  status: ('A' for Active; 'I' for Inactive)
REMARK    1  A    between atoms: C_3  and  C_10
REMARK    2  A    between atoms: C_7  and  C_25
REMARK    3  A    between atoms: N_9  and  C_12
REMARK    4  A    between atoms: C_12  and  C_13
REMARK    5  A    between atoms: C_18  and  C_21
REMARK    6  A    between atoms: C_25  and  N_26
REMARK    7  A    between atoms: N_26  and  C_29
REMARK                            x       y       z     vdW  Elec       q    Type
REMARK                         _______ _______ _______ _____ _____    ______ ____
ROOT
ATOM      1  O   UNL     1      33.038 -23.183 -14.361  0.00  0.00    -0.277 OA
ATOM      2  N   UNL     1      33.596 -22.920 -16.588  0.00  0.00    -0.275 N 
ATOM      3  C   UNL     1      34.440 -23.151 -17.758  0.00  0.00    +0.152 C 
ATOM      4  C   UNL     1      33.495 -22.996 -18.946  0.00  0.00    +0.031 C 
ATOM      5  C   UNL     1      32.303 -22.370 -16.974  0.00  0.00    +0.094 C 
ATOM      6  C   UNL     1      32.451 -22.003 -18.441  0.00  0.00    +0.024 C 
ATOM      7  C   UNL     1      33.856 -23.289 -15.278  0.00  0.00    +0.204 C 
ENDROOT
BRANCH   3  10
ATOM      8  O   UNL     1      36.099 -21.750 -16.766  0.00  0.00    -0.273 OA
ATOM      9  N   UNL     1      35.678 -21.558 -19.048  0.00  0.00    -0.299 N 
ATOM     10  C   UNL     1      35.499 -22.090 -17.782  0.00  0.00    +0.241 C 
ATOM     11  H   UNL     1      35.135 -21.915 -19.787  0.00  0.00    +0.150 HD
BRANCH   9  12
ATOM     12  C   UNL     1      36.624 -20.504 -19.336  0.00  0.00    +0.116 C 
BRANCH  12  13
ATOM     13  C   UNL     1      36.173 -19.641 -20.478  0.00  0.00    -0.003 C 
ATOM     14  C   UNL     1      37.049 -18.708 -21.035  0.00  0.00    -0.003 C 
ATOM     15  C   UNL     1      34.879 -19.769 -20.981  0.00  0.00    -0.003 C 
ATOM     16  C   UNL     1      36.629 -17.905 -22.094  0.00  0.00    +0.002 C 
ATOM     17  C   UNL     1      34.459 -18.966 -22.040  0.00  0.00    +0.002 C 
ATOM     18  C   UNL     1      35.334 -18.033 -22.598  0.00  0.00    +0.031 C 
BRANCH  18  21
ATOM     19  N   UNL     1      35.317 -15.872 -23.820  0.00  0.00    -0.343 N 
ATOM     20  N   UNL     1      34.082 -17.688 -24.620  0.00  0.00    -0.285 NA
ATOM     21  C   UNL     1      34.898 -17.196 -23.703  0.00  0.00    +0.117 C 
ATOM     22  H   UNL     1      35.009 -15.322 -24.577  0.00  0.00    +0.144 HD
ATOM     23  H   UNL     1      35.921 -15.486 -23.146  0.00  0.00    +0.144 HD
ATOM     24  H   UNL     1      33.787 -17.123 -25.370  0.00  0.00    +0.188 HD
ENDBRANCH  18  21
ENDBRANCH  12  13
ENDBRANCH   9  12
ENDBRANCH   3  10
BRANCH   7  25
ATOM     25  C   UNL     1      35.230 -23.847 -15.006  0.00  0.00    +0.006 C 
BRANCH  25  26
ATOM     26  N   UNL     1      35.050 -25.057 -14.222  0.00  0.00    +0.391 N 
ATOM     27  H   UNL     1      34.076 -25.123 -13.925  0.00  0.00    -0.084 HD
ATOM     28  H   UNL     1      35.297 -25.863 -14.797  0.00  0.00    -0.084 HD
BRANCH  26  29
ATOM     29  C   UNL     1      35.916 -25.036 -13.037  0.00  0.00    -0.061 C 
ATOM     30  C   UNL     1      35.203 -24.230 -11.946  0.00  0.00    -0.021 C 
ATOM     31  C   UNL     1      37.291 -24.489 -13.444  0.00  0.00    -0.021 C 
ATOM     32  C   UNL     1      35.993 -24.041 -10.650  0.00  0.00    -0.002 C 
ATOM     33  C   UNL     1      38.356 -24.705 -12.369  0.00  0.00    -0.002 C 
ATOM     34  C   UNL     1      37.129 -23.035 -10.797  0.00  0.00    -0.000 C 
ATOM     35  C   UNL     1      38.443 -23.613 -11.309  0.00  0.00    -0.000 C 
ENDBRANCH  26  29
ENDBRANCH  25  26
ENDBRANCH   7  25
TORSDOF 7
ENDMDL
MODEL 9
REMARK VINA RESULT:      -9.1      1.829      4.838
REMARK  Name = 25113614
REMARK  7 active torsions:
REMARK  status: ('A' for Active; 'I' for Inactive)
REMARK    1  A    between atoms: C_3  and  C_10
REMARK    2  A    between atoms: C_7  and  C_25
REMARK    3  A    between atoms: N_9  and  C_12
REMARK    4  A    between atoms: C_12  and  C_13
REMARK    5  A    between atoms: C_18  and  C_21
REMARK    6  A    between atoms: C_25  and  N_26
REMARK    7  A    between atoms: N_26  and  C_29
REMARK                            x       y       z     vdW  Elec       q    Type
REMARK                         _______ _______ _______ _____ _____    ______ ____
ROOT
ATOM      1  O   UNL     1      31.813 -23.214 -12.363  0.00  0.00    -0.277 OA
ATOM      2  N   UNL     1      32.491 -23.320 -14.569  0.00  0.00    -0.275 N 
ATOM      3  C   UNL     1      33.325 -23.829 -15.655  0.00  0.00    +0.152 C 
ATOM      4  C   UNL     1      32.467 -23.660 -16.906  0.00  0.00    +0.031 C 
ATOM      5  C   UNL     1      31.331 -22.608 -15.088  0.00  0.00    +0.094 C 
ATOM      6  C   UNL     1      31.596 -22.450 -16.576  0.00  0.00    +0.024 C 
ATOM      7  C   UNL     1      32.633 -23.567 -13.213  0.00  0.00    +0.204 C 
ENDROOT
BRANCH   3  10
ATOM      8  O   UNL     1      35.103 -22.531 -14.731  0.00  0.00    -0.273 OA
ATOM      9  N   UNL     1      34.950 -22.750 -17.043  0.00  0.00    -0.299 N 
ATOM     10  C   UNL     1      34.554 -22.975 -15.737  0.00  0.00    +0.241 C 
ATOM     11  H   UNL     1      34.427 -23.163 -17.769  0.00  0.00    +0.150 HD
BRANCH   9  12
ATOM     12  C   UNL     1      36.094 -21.940 -17.395  0.00  0.00    +0.116 C 
BRANCH  12  13
ATOM     13  C   UNL     1      35.840 -21.113 -18.622  0.00  0.00    -0.003 C 
ATOM     14  C   UNL     1      34.574 -21.103 -19.207  0.00  0.00    -0.003 C 
ATOM     15  C   UNL     1      36.871 -20.356 -19.179  0.00  0.00    -0.003 C 
ATOM     16  C   UNL     1      34.339 -20.336 -20.348  0.00  0.00    +0.002 C 
ATOM     17  C   UNL     1      36.636 -19.590 -20.319  0.00  0.00    +0.002 C 
ATOM     18  C   UNL     1      35.370 -19.578 -20.904  0.00  0.00    +0.031 C 
BRANCH  18  21
ATOM     19  N   UNL     1      34.715 -19.364 -23.290  0.00  0.00    -0.343 N 
ATOM     20  N   UNL     1      35.293 -17.468 -22.052  0.00  0.00    -0.285 NA
ATOM     21  C   UNL     1      35.124 -18.779 -22.093  0.00  0.00    +0.117 C 
ATOM     22  H   UNL     1      34.554 -18.804 -24.083  0.00  0.00    +0.144 HD
ATOM     23  H   UNL     1      34.587 -20.339 -23.342  0.00  0.00    +0.144 HD
ATOM     24  H   UNL     1      35.126 -16.925 -22.855  0.00  0.00    +0.188 HD
ENDBRANCH  18  21
ENDBRANCH  12  13
ENDBRANCH   9  12
ENDBRANCH   3  10
BRANCH   7  25
ATOM     25  C   UNL     1      33.876 -24.314 -12.801  0.00  0.00    +0.006 C 
BRANCH  25  26
ATOM     26  N   UNL     1      34.630 -23.435 -11.924  0.00  0.00    +0.391 N 
ATOM     27  H   UNL     1      34.801 -22.550 -12.402  0.00  0.00    -0.084 HD
ATOM     28  H   UNL     1      34.092 -23.277 -11.073  0.00  0.00    -0.084 HD
BRANCH  26  29
ATOM     29  C   UNL     1      35.916 -24.046 -11.566  0.00  0.00    -0.061 C 
ATOM     30  C   UNL     1      36.995 -22.962 -11.656  0.00  0.00    -0.021 C 
ATOM     31  C   UNL     1      36.152 -25.262 -12.473  0.00  0.00    -0.021 C 
ATOM     32  C   UNL     1      38.423 -23.436 -11.381  0.00  0.00    -0.002 C 
ATOM     33  C   UNL     1      37.301 -26.147 -11.992  0.00  0.00    -0.002 C 
ATOM     34  C   UNL     1      39.002 -24.252 -12.530  0.00  0.00    -0.000 C 
ATOM     35  C   UNL     1      38.685 -25.743 -12.488  0.00  0.00    -0.000 C 
ENDBRANCH  26  29
ENDBRANCH  25  26
ENDBRANCH   7  25
TORSDOF 7
ENDMDL
