MODEL 1
REMARK VINA RESULT:     -14.4      0.000      0.000
REMARK  Name = 67335295
REMARK  6 active torsions:
REMARK  status: ('A' for Active; 'I' for Inactive)
REMARK    1  A    between atoms: N_2  and  C_14
REMARK    2  A    between atoms: C_7  and  O_20
REMARK    3  A    between atoms: O_20  and  C_21
REMARK    4  A    between atoms: C_21  and  C_23
REMARK    5  A    between atoms: C_22  and  C_28
REMARK    6  A    between atoms: C_28  and  N_30
REMARK                            x       y       z     vdW  Elec       q    Type
REMARK                         _______ _______ _______ _____ _____    ______ ____
ROOT
ATOM      1  O   UNL     1      33.816 -24.299 -12.193  0.00  0.00    -0.270 OA
ATOM      2  N   UNL     1      34.871 -23.985 -14.285  0.00  0.00    -0.265 N 
ATOM      3  C   UNL     1      34.467 -23.558 -15.619  0.00  0.00    +0.124 C 
ATOM      4  C   UNL     1      33.010 -23.301 -15.432  0.00  0.00    +0.036 C 
ATOM      5  C   UNL     1      33.821 -23.999 -13.373  0.00  0.00    +0.249 C 
ATOM      6  C   UNL     1      32.633 -23.560 -14.114  0.00  0.00    +0.054 C 
ATOM      7  C   UNL     1      32.075 -22.868 -16.353  0.00  0.00    +0.137 C 
ATOM      8  C   UNL     1      31.337 -23.404 -13.664  0.00  0.00    +0.004 C 
ATOM      9  C   UNL     1      30.755 -22.702 -15.924  0.00  0.00    +0.037 C 
ATOM     10  C   UNL     1      30.389 -22.967 -14.590  0.00  0.00    +0.003 C 
ENDROOT
BRANCH   2  14
ATOM     11  O   UNL     1      36.874 -22.312 -15.059  0.00  0.00    -0.273 OA
ATOM     12  O   UNL     1      40.028 -25.663 -14.910  0.00  0.00    -0.275 OA
ATOM     13  N   UNL     1      38.414 -24.021 -14.993  0.00  0.00    -0.254 N 
ATOM     14  C   UNL     1      36.220 -24.355 -13.945  0.00  0.00    +0.153 C 
ATOM     15  C   UNL     1      36.477 -25.825 -14.237  0.00  0.00    +0.039 C 
ATOM     16  C   UNL     1      37.917 -26.161 -13.895  0.00  0.00    +0.088 C 
ATOM     17  C   UNL     1      37.161 -23.464 -14.736  0.00  0.00    +0.246 C 
ATOM     18  C   UNL     1      38.884 -25.287 -14.657  0.00  0.00    +0.228 C 
ATOM     19  H   UNL     1      39.047 -23.441 -15.475  0.00  0.00    +0.158 HD
ENDBRANCH   2  14
BRANCH   7  20
ATOM     20  O   UNL     1      32.418 -22.612 -17.642  0.00  0.00    -0.471 OA
BRANCH  20  21
ATOM     21  C   UNL     1      33.754 -22.927 -18.036  0.00  0.00    +0.232 C 
BRANCH  21  23
ATOM     22  C   UNL     1      35.310 -19.711 -20.413  0.00  0.00    -0.043 C 
ATOM     23  C   UNL     1      34.298 -21.801 -18.865  0.00  0.00    +0.021 C 
ATOM     24  C   UNL     1      33.931 -19.867 -20.266  0.00  0.00    -0.007 C 
ATOM     25  C   UNL     1      36.183 -20.601 -19.787  0.00  0.00    -0.007 C 
ATOM     26  C   UNL     1      33.425 -20.912 -19.492  0.00  0.00    -0.001 C 
ATOM     27  C   UNL     1      35.677 -21.646 -19.012  0.00  0.00    -0.001 C 
BRANCH  22  28
ATOM     28  C   UNL     1      35.850 -18.594 -21.240  0.00  0.00    -0.050 C 
BRANCH  28  30
ATOM     29  O   UNL     1      34.238 -17.423 -24.935  0.00  0.00    -0.358 OA
ATOM     30  N   UNL     1      34.905 -18.156 -22.266  0.00  0.00    +0.393 N 
ATOM     31  C   UNL     1      35.315 -16.864 -22.834  0.00  0.00    -0.044 C 
ATOM     32  C   UNL     1      34.790 -19.160 -23.332  0.00  0.00    -0.044 C 
ATOM     33  C   UNL     1      33.810 -18.676 -24.397  0.00  0.00    +0.119 C 
ATOM     34  C   UNL     1      34.322 -16.433 -23.909  0.00  0.00    +0.119 C 
ATOM     35  H   UNL     1      33.993 -18.043 -21.824  0.00  0.00    -0.079 HD
ENDBRANCH  28  30
ENDBRANCH  22  28
ENDBRANCH  21  23
ENDBRANCH  20  21
ENDBRANCH   7  20
TORSDOF 6
ENDMDL
MODEL 2
REMARK VINA RESULT:     -13.9      1.790      2.104
REMARK  Name = 67335295
REMARK  6 active torsions:
REMARK  status: ('A' for Active; 'I' for Inactive)
REMARK    1  A    between atoms: N_2  and  C_14
REMARK    2  A    between atoms: C_7  and  O_20
REMARK    3  A    between atoms: O_20  and  C_21
REMARK    4  A    between atoms: C_21  and  C_23
REMARK    5  A    between atoms: C_22  and  C_28
REMARK    6  A    between atoms: C_28  and  N_30
REMARK                            x       y       z     vdW  Elec       q    Type
REMARK                         _______ _______ _______ _____ _____    ______ ____
ROOT
ATOM      1  O   UNL     1      32.831 -24.710 -12.384  0.00  0.00    -0.270 OA
ATOM      2  N   UNL     1      34.155 -23.862 -14.148  0.00  0.00    -0.265 N 
ATOM      3  C   UNL     1      33.917 -23.228 -15.439  0.00  0.00    +0.124 C 
ATOM      4  C   UNL     1      32.427 -23.187 -15.491  0.00  0.00    +0.036 C 
ATOM      5  C   UNL     1      32.985 -24.182 -13.470  0.00  0.00    +0.249 C 
ATOM      6  C   UNL     1      31.882 -23.747 -14.335  0.00  0.00    +0.054 C 
ATOM      7  C   UNL     1      31.601 -22.693 -16.483  0.00  0.00    +0.137 C 
ATOM      8  C   UNL     1      30.521 -23.838 -14.120  0.00  0.00    +0.004 C 
ATOM      9  C   UNL     1      30.219 -22.773 -16.291  0.00  0.00    +0.037 C 
ATOM     10  C   UNL     1      29.683 -23.340 -15.119  0.00  0.00    +0.003 C 
ENDROOT
BRANCH   2  14
ATOM     11  O   UNL     1      35.489 -26.023 -15.131  0.00  0.00    -0.273 OA
ATOM     12  O   UNL     1      38.160 -26.351 -11.395  0.00  0.00    -0.275 OA
ATOM     13  N   UNL     1      36.787 -26.164 -13.237  0.00  0.00    -0.254 N 
ATOM     14  C   UNL     1      35.470 -24.131 -13.628  0.00  0.00    +0.153 C 
ATOM     15  C   UNL     1      35.498 -24.008 -12.112  0.00  0.00    +0.039 C 
ATOM     16  C   UNL     1      36.892 -24.331 -11.607  0.00  0.00    +0.088 C 
ATOM     17  C   UNL     1      35.874 -25.524 -14.074  0.00  0.00    +0.246 C 
ATOM     18  C   UNL     1      37.332 -25.708 -12.041  0.00  0.00    +0.228 C 
ATOM     19  H   UNL     1      37.085 -27.055 -13.532  0.00  0.00    +0.158 HD
ENDBRANCH   2  14
BRANCH   7  20
ATOM     20  O   UNL     1      32.109 -22.145 -17.617  0.00  0.00    -0.471 OA
BRANCH  20  21
ATOM     21  C   UNL     1      33.368 -22.640 -18.074  0.00  0.00    +0.232 C 
BRANCH  21  23
ATOM     22  C   UNL     1      35.192 -19.706 -20.619  0.00  0.00    -0.043 C 
ATOM     23  C   UNL     1      34.006 -21.613 -18.962  0.00  0.00    +0.021 C 
ATOM     24  C   UNL     1      33.801 -19.816 -20.565  0.00  0.00    -0.007 C 
ATOM     25  C   UNL     1      35.988 -20.549 -19.845  0.00  0.00    -0.007 C 
ATOM     26  C   UNL     1      33.209 -20.770 -19.736  0.00  0.00    -0.001 C 
ATOM     27  C   UNL     1      35.395 -21.502 -19.016  0.00  0.00    -0.001 C 
BRANCH  22  28
ATOM     28  C   UNL     1      35.824 -18.687 -21.505  0.00  0.00    -0.050 C 
BRANCH  28  30
ATOM     29  O   UNL     1      34.885 -14.597 -21.616  0.00  0.00    -0.358 OA
ATOM     30  N   UNL     1      35.066 -17.437 -21.544  0.00  0.00    +0.393 N 
ATOM     31  C   UNL     1      35.351 -16.618 -20.357  0.00  0.00    -0.044 C 
ATOM     32  C   UNL     1      35.374 -16.679 -22.764  0.00  0.00    -0.044 C 
ATOM     33  C   UNL     1      34.582 -15.374 -22.776  0.00  0.00    +0.119 C 
ATOM     34  C   UNL     1      34.560 -15.316 -20.426  0.00  0.00    +0.119 C 
ATOM     35  H   UNL     1      34.074 -17.673 -21.547  0.00  0.00    -0.079 HD
ENDBRANCH  28  30
ENDBRANCH  22  28
ENDBRANCH  21  23
ENDBRANCH  20  21
ENDBRANCH   7  20
TORSDOF 6
ENDMDL
MODEL 3
REMARK VINA RESULT:     -13.4      3.414     11.637
REMARK  Name = 67335295
REMARK  6 active torsions:
REMARK  status: ('A' for Active; 'I' for Inactive)
REMARK    1  A    between atoms: N_2  and  C_14
REMARK    2  A    between atoms: C_7  and  O_20
REMARK    3  A    between atoms: O_20  and  C_21
REMARK    4  A    between atoms: C_21  and  C_23
REMARK    5  A    between atoms: C_22  and  C_28
REMARK    6  A    between atoms: C_28  and  N_30
REMARK                            x       y       z     vdW  Elec       q    Type
REMARK                         _______ _______ _______ _____ _____    ______ ____
ROOT
ATOM      1  O   UNL     1      33.398 -14.171 -25.083  0.00  0.00    -0.270 OA
ATOM      2  N   UNL     1      34.255 -14.087 -22.882  0.00  0.00    -0.265 N 
ATOM      3  C   UNL     1      34.757 -15.047 -21.906  0.00  0.00    +0.124 C 
ATOM      4  C   UNL     1      34.622 -16.335 -22.643  0.00  0.00    +0.036 C 
ATOM      5  C   UNL     1      33.856 -14.678 -24.076  0.00  0.00    +0.249 C 
ATOM      6  C   UNL     1      34.093 -16.117 -23.916  0.00  0.00    +0.054 C 
ATOM      7  C   UNL     1      34.940 -17.616 -22.230  0.00  0.00    +0.137 C 
ATOM      8  C   UNL     1      33.863 -17.141 -24.814  0.00  0.00    +0.004 C 
ATOM      9  C   UNL     1      34.716 -18.671 -23.120  0.00  0.00    +0.037 C 
ATOM     10  C   UNL     1      34.182 -18.435 -24.401  0.00  0.00    +0.003 C 
ENDROOT
BRANCH   2  14
ATOM     11  O   UNL     1      32.338 -13.200 -21.164  0.00  0.00    -0.273 OA
ATOM     12  O   UNL     1      32.357  -8.969 -22.980  0.00  0.00    -0.275 OA
ATOM     13  N   UNL     1      32.364 -11.105 -22.116  0.00  0.00    -0.254 N 
ATOM     14  C   UNL     1      34.181 -12.671 -22.636  0.00  0.00    +0.153 C 
ATOM     15  C   UNL     1      34.281 -11.882 -23.932  0.00  0.00    +0.039 C 
ATOM     16  C   UNL     1      34.165 -10.399 -23.628  0.00  0.00    +0.088 C 
ATOM     17  C   UNL     1      32.872 -12.390 -21.921  0.00  0.00    +0.246 C 
ATOM     18  C   UNL     1      32.877 -10.082 -22.906  0.00  0.00    +0.228 C 
ATOM     19  H   UNL     1      31.533 -10.897 -21.630  0.00  0.00    +0.158 HD
ENDBRANCH   2  14
BRANCH   7  20
ATOM     20  O   UNL     1      35.454 -17.852 -20.995  0.00  0.00    -0.471 OA
BRANCH  20  21
ATOM     21  C   UNL     1      36.297 -18.996 -20.848  0.00  0.00    +0.232 C 
BRANCH  21  23
ATOM     22  C   UNL     1      34.178 -22.032 -18.679  0.00  0.00    -0.043 C 
ATOM     23  C   UNL     1      35.556 -20.056 -20.088  0.00  0.00    +0.021 C 
ATOM     24  C   UNL     1      35.573 -21.989 -18.638  0.00  0.00    -0.007 C 
ATOM     25  C   UNL     1      33.473 -21.088 -19.425  0.00  0.00    -0.007 C 
ATOM     26  C   UNL     1      36.261 -21.001 -19.342  0.00  0.00    -0.001 C 
ATOM     27  C   UNL     1      34.162 -20.099 -20.129  0.00  0.00    -0.001 C 
BRANCH  22  28
ATOM     28  C   UNL     1      33.443 -23.089 -17.927  0.00  0.00    -0.050 C 
BRANCH  28  30
ATOM     29  O   UNL     1      32.912 -23.541 -13.787  0.00  0.00    -0.358 OA
ATOM     30  N   UNL     1      33.349 -22.790 -16.499  0.00  0.00    +0.393 N 
ATOM     31  C   UNL     1      32.003 -23.090 -15.991  0.00  0.00    -0.044 C 
ATOM     32  C   UNL     1      34.353 -23.550 -15.741  0.00  0.00    -0.044 C 
ATOM     33  C   UNL     1      34.228 -23.233 -14.253  0.00  0.00    +0.119 C 
ATOM     34  C   UNL     1      31.933 -22.783 -14.498  0.00  0.00    +0.119 C 
ATOM     35  H   UNL     1      33.530 -21.795 -16.374  0.00  0.00    -0.079 HD
ENDBRANCH  28  30
ENDBRANCH  22  28
ENDBRANCH  21  23
ENDBRANCH  20  21
ENDBRANCH   7  20
TORSDOF 6
ENDMDL
MODEL 4
REMARK VINA RESULT:     -13.0      1.557      2.276
REMARK  Name = 67335295
REMARK  6 active torsions:
REMARK  status: ('A' for Active; 'I' for Inactive)
REMARK    1  A    between atoms: N_2  and  C_14
REMARK    2  A    between atoms: C_7  and  O_20
REMARK    3  A    between atoms: O_20  and  C_21
REMARK    4  A    between atoms: C_21  and  C_23
REMARK    5  A    between atoms: C_22  and  C_28
REMARK    6  A    between atoms: C_28  and  N_30
REMARK                            x       y       z     vdW  Elec       q    Type
REMARK                         _______ _______ _______ _____ _____    ______ ____
ROOT
ATOM      1  O   UNL     1      33.361 -24.266 -13.096  0.00  0.00    -0.270 OA
ATOM      2  N   UNL     1      35.209 -24.210 -14.568  0.00  0.00    -0.265 N 
ATOM      3  C   UNL     1      35.458 -23.774 -15.937  0.00  0.00    +0.124 C 
ATOM      4  C   UNL     1      34.116 -23.273 -16.349  0.00  0.00    +0.036 C 
ATOM      5  C   UNL     1      33.894 -24.016 -14.162  0.00  0.00    +0.249 C 
ATOM      6  C   UNL     1      33.199 -23.416 -15.307  0.00  0.00    +0.054 C 
ATOM      7  C   UNL     1      33.720 -22.727 -17.556  0.00  0.00    +0.137 C 
ATOM      8  C   UNL     1      31.878 -23.030 -15.417  0.00  0.00    +0.004 C 
ATOM      9  C   UNL     1      32.387 -22.329 -17.695  0.00  0.00    +0.037 C 
ATOM     10  C   UNL     1      31.474 -22.479 -16.634  0.00  0.00    +0.003 C 
ENDROOT
BRANCH   2  14
ATOM     11  O   UNL     1      37.378 -22.676 -13.972  0.00  0.00    -0.273 OA
ATOM     12  O   UNL     1      39.997 -26.348 -13.047  0.00  0.00    -0.275 OA
ATOM     13  N   UNL     1      38.658 -24.538 -13.541  0.00  0.00    -0.254 N 
ATOM     14  C   UNL     1      36.223 -24.784 -13.723  0.00  0.00    +0.153 C 
ATOM     15  C   UNL     1      36.553 -26.206 -14.148  0.00  0.00    +0.039 C 
ATOM     16  C   UNL     1      37.647 -26.758 -13.251  0.00  0.00    +0.088 C 
ATOM     17  C   UNL     1      37.448 -23.891 -13.790  0.00  0.00    +0.246 C 
ATOM     18  C   UNL     1      38.881 -25.888 -13.285  0.00  0.00    +0.228 C 
ATOM     19  H   UNL     1      39.458 -23.965 -13.548  0.00  0.00    +0.158 HD
ENDBRANCH   2  14
BRANCH   7  20
ATOM     20  O   UNL     1      34.594 -22.580 -18.585  0.00  0.00    -0.471 OA
BRANCH  20  21
ATOM     21  C   UNL     1      35.682 -21.675 -18.393  0.00  0.00    +0.232 C 
BRANCH  21  23
ATOM     22  C   UNL     1      35.624 -18.730 -21.514  0.00  0.00    -0.043 C 
ATOM     23  C   UNL     1      35.662 -20.647 -19.486  0.00  0.00    +0.021 C 
ATOM     24  C   UNL     1      36.797 -18.961 -20.793  0.00  0.00    -0.007 C 
ATOM     25  C   UNL     1      34.471 -19.457 -21.219  0.00  0.00    -0.007 C 
ATOM     26  C   UNL     1      36.816 -19.920 -19.780  0.00  0.00    -0.001 C 
ATOM     27  C   UNL     1      34.490 -20.416 -20.206  0.00  0.00    -0.001 C 
BRANCH  22  28
ATOM     28  C   UNL     1      35.605 -17.705 -22.596  0.00  0.00    -0.050 C 
BRANCH  28  30
ATOM     29  O   UNL     1      34.518 -13.770 -21.621  0.00  0.00    -0.358 OA
ATOM     30  N   UNL     1      34.807 -16.534 -22.239  0.00  0.00    +0.393 N 
ATOM     31  C   UNL     1      35.235 -15.987 -20.944  0.00  0.00    -0.044 C 
ATOM     32  C   UNL     1      34.904 -15.500 -23.279  0.00  0.00    -0.044 C 
ATOM     33  C   UNL     1      34.074 -14.283 -22.878  0.00  0.00    +0.119 C 
ATOM     34  C   UNL     1      34.397 -14.760 -20.599  0.00  0.00    +0.119 C 
ATOM     35  H   UNL     1      33.834 -16.829 -22.163  0.00  0.00    -0.079 HD
ENDBRANCH  28  30
ENDBRANCH  22  28
ENDBRANCH  21  23
ENDBRANCH  20  21
ENDBRANCH   7  20
TORSDOF 6
ENDMDL
MODEL 5
REMARK VINA RESULT:     -12.9      2.016      4.922
REMARK  Name = 67335295
REMARK  6 active torsions:
REMARK  status: ('A' for Active; 'I' for Inactive)
REMARK    1  A    between atoms: N_2  and  C_14
REMARK    2  A    between atoms: C_7  and  O_20
REMARK    3  A    between atoms: O_20  and  C_21
REMARK    4  A    between atoms: C_21  and  C_23
REMARK    5  A    between atoms: C_22  and  C_28
REMARK    6  A    between atoms: C_28  and  N_30
REMARK                            x       y       z     vdW  Elec       q    Type
REMARK                         _______ _______ _______ _____ _____    ______ ____
ROOT
ATOM      1  O   UNL     1      32.355 -23.765 -12.401  0.00  0.00    -0.270 OA
ATOM      2  N   UNL     1      32.173 -23.320 -14.714  0.00  0.00    -0.265 N 
ATOM      3  C   UNL     1      33.092 -23.077 -15.820  0.00  0.00    +0.124 C 
ATOM      4  C   UNL     1      34.417 -23.168 -15.145  0.00  0.00    +0.036 C 
ATOM      5  C   UNL     1      32.819 -23.536 -13.503  0.00  0.00    +0.249 C 
ATOM      6  C   UNL     1      34.256 -23.437 -13.785  0.00  0.00    +0.054 C 
ATOM      7  C   UNL     1      35.683 -23.026 -15.682  0.00  0.00    +0.137 C 
ATOM      8  C   UNL     1      35.323 -23.573 -12.919  0.00  0.00    +0.004 C 
ATOM      9  C   UNL     1      36.781 -23.158 -14.827  0.00  0.00    +0.037 C 
ATOM     10  C   UNL     1      36.603 -23.430 -13.457  0.00  0.00    +0.003 C 
ENDROOT
BRANCH   2  14
ATOM     11  O   UNL     1      30.905 -25.721 -14.517  0.00  0.00    -0.273 OA
ATOM     12  O   UNL     1      27.265 -24.246 -16.920  0.00  0.00    -0.275 OA
ATOM     13  N   UNL     1      29.116 -24.950 -15.741  0.00  0.00    -0.254 N 
ATOM     14  C   UNL     1      30.741 -23.335 -14.862  0.00  0.00    +0.153 C 
ATOM     15  C   UNL     1      30.301 -22.484 -16.043  0.00  0.00    +0.039 C 
ATOM     16  C   UNL     1      28.791 -22.556 -16.180  0.00  0.00    +0.088 C 
ATOM     17  C   UNL     1      30.304 -24.779 -15.031  0.00  0.00    +0.246 C 
ATOM     18  C   UNL     1      28.318 -23.981 -16.340  0.00  0.00    +0.228 C 
ATOM     19  H   UNL     1      28.802 -25.879 -15.829  0.00  0.00    +0.158 HD
ENDBRANCH   2  14
BRANCH   7  20
ATOM     20  O   UNL     1      35.865 -22.762 -17.002  0.00  0.00    -0.471 OA
BRANCH  20  21
ATOM     21  C   UNL     1      34.706 -22.421 -17.764  0.00  0.00    +0.232 C 
BRANCH  21  23
ATOM     22  C   UNL     1      35.763 -19.433 -20.658  0.00  0.00    -0.043 C 
ATOM     23  C   UNL     1      35.076 -21.375 -18.774  0.00  0.00    +0.021 C 
ATOM     24  C   UNL     1      34.425 -19.784 -20.473  0.00  0.00    -0.007 C 
ATOM     25  C   UNL     1      36.757 -20.054 -19.901  0.00  0.00    -0.007 C 
ATOM     26  C   UNL     1      34.081 -20.754 -19.531  0.00  0.00    -0.001 C 
ATOM     27  C   UNL     1      36.413 -21.024 -18.959  0.00  0.00    -0.001 C 
BRANCH  22  28
ATOM     28  C   UNL     1      36.130 -18.396 -21.664  0.00  0.00    -0.050 C 
BRANCH  28  30
ATOM     29  O   UNL     1      33.878 -17.425 -25.071  0.00  0.00    -0.358 OA
ATOM     30  N   UNL     1      35.007 -18.043 -22.532  0.00  0.00    +0.393 N 
ATOM     31  C   UNL     1      35.239 -16.745 -23.180  0.00  0.00    -0.044 C 
ATOM     32  C   UNL     1      34.788 -19.082 -23.549  0.00  0.00    -0.044 C 
ATOM     33  C   UNL     1      33.621 -18.686 -24.450  0.00  0.00    +0.119 C 
ATOM     34  C   UNL     1      34.061 -16.404 -24.089  0.00  0.00    +0.119 C 
ATOM     35  H   UNL     1      34.172 -17.974 -21.951  0.00  0.00    -0.079 HD
ENDBRANCH  28  30
ENDBRANCH  22  28
ENDBRANCH  21  23
ENDBRANCH  20  21
ENDBRANCH   7  20
TORSDOF 6
ENDMDL
MODEL 6
REMARK VINA RESULT:     -12.8      5.458      9.755
REMARK  Name = 67335295
REMARK  6 active torsions:
REMARK  status: ('A' for Active; 'I' for Inactive)
REMARK    1  A    between atoms: N_2  and  C_14
REMARK    2  A    between atoms: C_7  and  O_20
REMARK    3  A    between atoms: O_20  and  C_21
REMARK    4  A    between atoms: C_21  and  C_23
REMARK    5  A    between atoms: C_22  and  C_28
REMARK    6  A    between atoms: C_28  and  N_30
REMARK                            x       y       z     vdW  Elec       q    Type
REMARK                         _______ _______ _______ _____ _____    ______ ____
ROOT
ATOM      1  O   UNL     1      34.828 -19.927 -23.784  0.00  0.00    -0.270 OA
ATOM      2  N   UNL     1      35.105 -18.990 -21.632  0.00  0.00    -0.265 N 
ATOM      3  C   UNL     1      35.116 -17.651 -21.056  0.00  0.00    +0.124 C 
ATOM      4  C   UNL     1      34.884 -16.797 -22.255  0.00  0.00    +0.036 C 
ATOM      5  C   UNL     1      34.894 -18.993 -23.007  0.00  0.00    +0.249 C 
ATOM      6  C   UNL     1      34.754 -17.586 -23.399  0.00  0.00    +0.054 C 
ATOM      7  C   UNL     1      34.792 -15.421 -22.342  0.00  0.00    +0.137 C 
ATOM      8  C   UNL     1      34.532 -17.051 -24.652  0.00  0.00    +0.004 C 
ATOM      9  C   UNL     1      34.567 -14.853 -23.600  0.00  0.00    +0.037 C 
ATOM     10  C   UNL     1      34.438 -15.662 -24.746  0.00  0.00    +0.003 C 
ENDROOT
BRANCH   2  14
ATOM     11  O   UNL     1      32.889 -20.183 -20.592  0.00  0.00    -0.273 OA
ATOM     12  O   UNL     1      35.308 -22.301 -17.296  0.00  0.00    -0.275 OA
ATOM     13  N   UNL     1      34.133 -21.204 -18.948  0.00  0.00    -0.254 N 
ATOM     14  C   UNL     1      35.292 -20.189 -20.858  0.00  0.00    +0.153 C 
ATOM     15  C   UNL     1      36.446 -20.036 -19.879  0.00  0.00    +0.039 C 
ATOM     16  C   UNL     1      36.584 -21.309 -19.063  0.00  0.00    +0.088 C 
ATOM     17  C   UNL     1      33.991 -20.484 -20.134  0.00  0.00    +0.246 C 
ATOM     18  C   UNL     1      35.303 -21.641 -18.334  0.00  0.00    +0.228 C 
ATOM     19  H   UNL     1      33.295 -21.434 -18.485  0.00  0.00    +0.158 HD
ENDBRANCH   2  14
BRANCH   7  20
ATOM     20  O   UNL     1      34.917 -14.633 -21.243  0.00  0.00    -0.471 OA
BRANCH  20  21
ATOM     21  C   UNL     1      33.760 -14.471 -20.422  0.00  0.00    +0.232 C 
BRANCH  21  23
ATOM     22  C   UNL     1      31.864 -10.744 -21.386  0.00  0.00    -0.043 C 
ATOM     23  C   UNL     1      33.099 -13.167 -20.758  0.00  0.00    +0.021 C 
ATOM     24  C   UNL     1      31.659 -11.329 -20.135  0.00  0.00    -0.007 C 
ATOM     25  C   UNL     1      32.687 -11.371 -22.321  0.00  0.00    -0.007 C 
ATOM     26  C   UNL     1      32.276 -12.540 -19.822  0.00  0.00    -0.001 C 
ATOM     27  C   UNL     1      33.304 -12.582 -22.007  0.00  0.00    -0.001 C 
BRANCH  22  28
ATOM     28  C   UNL     1      31.204  -9.450 -21.720  0.00  0.00    -0.050 C 
BRANCH  28  30
ATOM     29  O   UNL     1      33.214  -5.833 -22.426  0.00  0.00    -0.358 OA
ATOM     30  N   UNL     1      32.146  -8.466 -22.251  0.00  0.00    +0.393 N 
ATOM     31  C   UNL     1      31.434  -7.394 -22.960  0.00  0.00    -0.044 C 
ATOM     32  C   UNL     1      32.969  -7.898 -21.174  0.00  0.00    -0.044 C 
ATOM     33  C   UNL     1      33.934  -6.865 -21.750  0.00  0.00    +0.119 C 
ATOM     34  C   UNL     1      32.436  -6.374 -23.494  0.00  0.00    +0.119 C 
ATOM     35  H   UNL     1      32.758  -8.944 -22.912  0.00  0.00    -0.079 HD
ENDBRANCH  28  30
ENDBRANCH  22  28
ENDBRANCH  21  23
ENDBRANCH  20  21
ENDBRANCH   7  20
TORSDOF 6
ENDMDL
MODEL 7
REMARK VINA RESULT:     -12.5      6.580     11.369
REMARK  Name = 67335295
REMARK  6 active torsions:
REMARK  status: ('A' for Active; 'I' for Inactive)
REMARK    1  A    between atoms: N_2  and  C_14
REMARK    2  A    between atoms: C_7  and  O_20
REMARK    3  A    between atoms: O_20  and  C_21
REMARK    4  A    between atoms: C_21  and  C_23
REMARK    5  A    between atoms: C_22  and  C_28
REMARK    6  A    between atoms: C_28  and  N_30
REMARK                            x       y       z     vdW  Elec       q    Type
REMARK                         _______ _______ _______ _____ _____    ______ ____
ROOT
ATOM      1  O   UNL     1      34.718 -18.112 -24.928  0.00  0.00    -0.270 OA
ATOM      2  N   UNL     1      35.006 -17.315 -22.722  0.00  0.00    -0.265 N 
ATOM      3  C   UNL     1      34.759 -16.069 -22.007  0.00  0.00    +0.124 C 
ATOM      4  C   UNL     1      34.189 -15.206 -23.080  0.00  0.00    +0.036 C 
ATOM      5  C   UNL     1      34.645 -17.258 -24.063  0.00  0.00    +0.249 C 
ATOM      6  C   UNL     1      34.124 -15.905 -24.286  0.00  0.00    +0.054 C 
ATOM      7  C   UNL     1      33.756 -13.895 -23.009  0.00  0.00    +0.137 C 
ATOM      8  C   UNL     1      33.635 -15.343 -25.449  0.00  0.00    +0.004 C 
ATOM      9  C   UNL     1      33.257 -13.301 -24.173  0.00  0.00    +0.037 C 
ATOM     10  C   UNL     1      33.197 -14.020 -25.382  0.00  0.00    +0.003 C 
ENDROOT
BRANCH   2  14
ATOM     11  O   UNL     1      33.316 -19.369 -22.139  0.00  0.00    -0.273 OA
ATOM     12  O   UNL     1      36.117 -21.042 -18.889  0.00  0.00    -0.275 OA
ATOM     13  N   UNL     1      34.735 -20.158 -20.508  0.00  0.00    -0.254 N 
ATOM     14  C   UNL     1      35.567 -18.487 -22.102  0.00  0.00    +0.153 C 
ATOM     15  C   UNL     1      36.516 -18.112 -20.974  0.00  0.00    +0.039 C 
ATOM     16  C   UNL     1      37.056 -19.376 -20.330  0.00  0.00    +0.088 C 
ATOM     17  C   UNL     1      34.419 -19.340 -21.593  0.00  0.00    +0.246 C 
ATOM     18  C   UNL     1      35.940 -20.256 -19.820  0.00  0.00    +0.228 C 
ATOM     19  H   UNL     1      34.010 -20.743 -20.189  0.00  0.00    +0.158 HD
ENDBRANCH   2  14
BRANCH   7  20
ATOM     20  O   UNL     1      33.813 -13.194 -21.848  0.00  0.00    -0.471 OA
BRANCH  20  21
ATOM     21  C   UNL     1      32.593 -13.035 -21.122  0.00  0.00    +0.232 C 
BRANCH  21  23
ATOM     22  C   UNL     1      31.877  -8.853 -20.479  0.00  0.00    -0.043 C 
ATOM     23  C   UNL     1      32.344 -11.572 -20.897  0.00  0.00    +0.021 C 
ATOM     24  C   UNL     1      31.724  -9.758 -19.426  0.00  0.00    -0.007 C 
ATOM     25  C   UNL     1      32.263  -9.308 -21.739  0.00  0.00    -0.007 C 
ATOM     26  C   UNL     1      31.958 -11.117 -19.636  0.00  0.00    -0.001 C 
ATOM     27  C   UNL     1      32.497 -10.668 -21.948  0.00  0.00    -0.001 C 
BRANCH  22  28
ATOM     28  C   UNL     1      31.626  -7.400 -20.254  0.00  0.00    -0.050 C 
BRANCH  28  30
ATOM     29  O   UNL     1      31.981  -4.186 -22.931  0.00  0.00    -0.358 OA
ATOM     30  N   UNL     1      31.695  -6.627 -21.492  0.00  0.00    +0.393 N 
ATOM     31  C   UNL     1      30.611  -5.636 -21.549  0.00  0.00    -0.044 C 
ATOM     32  C   UNL     1      32.997  -5.956 -21.616  0.00  0.00    -0.044 C 
ATOM     33  C   UNL     1      33.041  -5.144 -22.908  0.00  0.00    +0.119 C 
ATOM     34  C   UNL     1      30.711  -4.834 -22.843  0.00  0.00    +0.119 C 
ATOM     35  H   UNL     1      31.587  -7.274 -22.273  0.00  0.00    -0.079 HD
ENDBRANCH  28  30
ENDBRANCH  22  28
ENDBRANCH  21  23
ENDBRANCH  20  21
ENDBRANCH   7  20
TORSDOF 6
ENDMDL
MODEL 8
REMARK VINA RESULT:     -12.5      2.323      5.076
REMARK  Name = 67335295
REMARK  6 active torsions:
REMARK  status: ('A' for Active; 'I' for Inactive)
REMARK    1  A    between atoms: N_2  and  C_14
REMARK    2  A    between atoms: C_7  and  O_20
REMARK    3  A    between atoms: O_20  and  C_21
REMARK    4  A    between atoms: C_21  and  C_23
REMARK    5  A    between atoms: C_22  and  C_28
REMARK    6  A    between atoms: C_28  and  N_30
REMARK                            x       y       z     vdW  Elec       q    Type
REMARK                         _______ _______ _______ _____ _____    ______ ____
ROOT
ATOM      1  O   UNL     1      32.867 -23.969 -13.016  0.00  0.00    -0.270 OA
ATOM      2  N   UNL     1      32.655 -23.560 -15.334  0.00  0.00    -0.265 N 
ATOM      3  C   UNL     1      33.533 -23.131 -16.416  0.00  0.00    +0.124 C 
ATOM      4  C   UNL     1      34.832 -22.955 -15.708  0.00  0.00    +0.036 C 
ATOM      5  C   UNL     1      33.302 -23.646 -14.106  0.00  0.00    +0.249 C 
ATOM      6  C   UNL     1      34.695 -23.257 -14.353  0.00  0.00    +0.054 C 
ATOM      7  C   UNL     1      36.056 -22.557 -16.214  0.00  0.00    +0.137 C 
ATOM      8  C   UNL     1      35.746 -23.178 -13.460  0.00  0.00    +0.004 C 
ATOM      9  C   UNL     1      37.137 -22.468 -15.331  0.00  0.00    +0.037 C 
ATOM     10  C   UNL     1      36.983 -22.776 -13.966  0.00  0.00    +0.003 C 
ENDROOT
BRANCH   2  14
ATOM     11  O   UNL     1      31.287 -22.142 -17.213  0.00  0.00    -0.273 OA
ATOM     12  O   UNL     1      27.229 -22.969 -15.202  0.00  0.00    -0.275 OA
ATOM     13  N   UNL     1      29.283 -22.561 -16.164  0.00  0.00    -0.254 N 
ATOM     14  C   UNL     1      31.260 -23.863 -15.517  0.00  0.00    +0.153 C 
ATOM     15  C   UNL     1      30.546 -23.994 -14.180  0.00  0.00    +0.039 C 
ATOM     16  C   UNL     1      29.075 -24.280 -14.423  0.00  0.00    +0.088 C 
ATOM     17  C   UNL     1      30.649 -22.761 -16.362  0.00  0.00    +0.246 C 
ATOM     18  C   UNL     1      28.434 -23.207 -15.270  0.00  0.00    +0.228 C 
ATOM     19  H   UNL     1      28.866 -21.872 -16.730  0.00  0.00    +0.158 HD
ENDBRANCH   2  14
BRANCH   7  20
ATOM     20  O   UNL     1      36.212 -22.256 -17.528  0.00  0.00    -0.471 OA
BRANCH  20  21
ATOM     21  C   UNL     1      35.026 -22.058 -18.298  0.00  0.00    +0.232 C 
BRANCH  21  23
ATOM     22  C   UNL     1      35.699 -18.899 -21.124  0.00  0.00    -0.043 C 
ATOM     23  C   UNL     1      35.261 -20.952 -19.285  0.00  0.00    +0.021 C 
ATOM     24  C   UNL     1      34.415 -19.419 -20.950  0.00  0.00    -0.007 C 
ATOM     25  C   UNL     1      36.762 -19.406 -20.378  0.00  0.00    -0.007 C 
ATOM     26  C   UNL     1      34.196 -20.445 -20.031  0.00  0.00    -0.001 C 
ATOM     27  C   UNL     1      36.543 -20.432 -19.458  0.00  0.00    -0.001 C 
BRANCH  22  28
ATOM     28  C   UNL     1      35.932 -17.803 -22.107  0.00  0.00    -0.050 C 
BRANCH  28  30
ATOM     29  O   UNL     1      34.542 -13.910 -21.375  0.00  0.00    -0.358 OA
ATOM     30  N   UNL     1      35.039 -16.665 -21.892  0.00  0.00    +0.393 N 
ATOM     31  C   UNL     1      35.248 -16.084 -20.559  0.00  0.00    -0.044 C 
ATOM     32  C   UNL     1      35.243 -15.640 -22.926  0.00  0.00    -0.044 C 
ATOM     33  C   UNL     1      34.311 -14.458 -22.674  0.00  0.00    +0.119 C 
ATOM     34  C   UNL     1      34.315 -14.892 -20.363  0.00  0.00    +0.119 C 
ATOM     35  H   UNL     1      34.080 -17.004 -21.954  0.00  0.00    -0.079 HD
ENDBRANCH  28  30
ENDBRANCH  22  28
ENDBRANCH  21  23
ENDBRANCH  20  21
ENDBRANCH   7  20
TORSDOF 6
ENDMDL
MODEL 9
REMARK VINA RESULT:     -12.3      7.892     14.828
REMARK  Name = 67335295
REMARK  6 active torsions:
REMARK  status: ('A' for Active; 'I' for Inactive)
REMARK    1  A    between atoms: N_2  and  C_14
REMARK    2  A    between atoms: C_7  and  O_20
REMARK    3  A    between atoms: O_20  and  C_21
REMARK    4  A    between atoms: C_21  and  C_23
REMARK    5  A    between atoms: C_22  and  C_28
REMARK    6  A    between atoms: C_28  and  N_30
REMARK                            x       y       z     vdW  Elec       q    Type
REMARK                         _______ _______ _______ _____ _____    ______ ____
ROOT
ATOM      1  O   UNL     1      32.543  -6.508 -19.838  0.00  0.00    -0.270 OA
ATOM      2  N   UNL     1      32.719  -7.362 -22.035  0.00  0.00    -0.265 N 
ATOM      3  C   UNL     1      32.638  -8.672 -22.669  0.00  0.00    +0.124 C 
ATOM      4  C   UNL     1      32.381  -9.564 -21.503  0.00  0.00    +0.036 C 
ATOM      5  C   UNL     1      32.537  -7.409 -20.657  0.00  0.00    +0.249 C 
ATOM      6  C   UNL     1      32.322  -8.821 -20.323  0.00  0.00    +0.054 C 
ATOM      7  C   UNL     1      32.209 -10.935 -21.473  0.00  0.00    +0.137 C 
ATOM      8  C   UNL     1      32.094  -9.398 -19.089  0.00  0.00    +0.004 C 
ATOM      9  C   UNL     1      31.977 -11.544 -20.236  0.00  0.00    +0.037 C 
ATOM     10  C   UNL     1      31.920 -10.782 -19.054  0.00  0.00    +0.003 C 
ENDROOT
BRANCH   2  14
ATOM     11  O   UNL     1      30.566  -5.824 -22.677  0.00  0.00    -0.273 OA
ATOM     12  O   UNL     1      32.781  -3.793 -26.165  0.00  0.00    -0.275 OA
ATOM     13  N   UNL     1      31.702  -4.850 -24.425  0.00  0.00    -0.254 N 
ATOM     14  C   UNL     1      32.960  -6.143 -22.761  0.00  0.00    +0.153 C 
ATOM     15  C   UNL     1      33.939  -6.368 -23.903  0.00  0.00    +0.039 C 
ATOM     16  C   UNL     1      34.138  -5.067 -24.658  0.00  0.00    +0.088 C 
ATOM     17  C   UNL     1      31.626  -5.632 -23.272  0.00  0.00    +0.246 C 
ATOM     18  C   UNL     1      32.828  -4.522 -25.175  0.00  0.00    +0.228 C 
ATOM     19  H   UNL     1      30.849  -4.483 -24.749  0.00  0.00    +0.158 HD
ENDBRANCH   2  14
BRANCH   7  20
ATOM     20  O   UNL     1      32.264 -11.679 -22.608  0.00  0.00    -0.471 OA
BRANCH  20  21
ATOM     21  C   UNL     1      33.538 -11.813 -23.239  0.00  0.00    +0.232 C 
BRANCH  21  23
ATOM     22  C   UNL     1      34.607 -15.966 -23.385  0.00  0.00    -0.043 C 
ATOM     23  C   UNL     1      33.910 -13.266 -23.289  0.00  0.00    +0.021 C 
ATOM     24  C   UNL     1      34.954 -15.194 -22.275  0.00  0.00    -0.007 C 
ATOM     25  C   UNL     1      33.911 -15.387 -24.446  0.00  0.00    -0.007 C 
ATOM     26  C   UNL     1      34.606 -13.844 -22.228  0.00  0.00    -0.001 C 
ATOM     27  C   UNL     1      33.562 -14.037 -24.398  0.00  0.00    -0.001 C 
BRANCH  22  28
ATOM     28  C   UNL     1      34.980 -17.409 -23.435  0.00  0.00    -0.050 C 
BRANCH  28  30
ATOM     29  O   UNL     1      35.798 -20.125 -20.341  0.00  0.00    -0.358 OA
ATOM     30  N   UNL     1      35.128 -17.991 -22.102  0.00  0.00    +0.393 N 
ATOM     31  C   UNL     1      34.254 -19.162 -21.946  0.00  0.00    -0.044 C 
ATOM     32  C   UNL     1      36.525 -18.369 -21.850  0.00  0.00    -0.044 C 
ATOM     33  C   UNL     1      36.653 -18.986 -20.460  0.00  0.00    +0.119 C 
ATOM     34  C   UNL     1      34.434 -19.759 -20.553  0.00  0.00    +0.119 C 
ATOM     35  H   UNL     1      34.852 -17.285 -21.420  0.00  0.00    -0.079 HD
ENDBRANCH  28  30
ENDBRANCH  22  28
ENDBRANCH  21  23
ENDBRANCH  20  21
ENDBRANCH   7  20
TORSDOF 6
ENDMDL
