MODEL 1
REMARK VINA RESULT:     -11.6      0.000      0.000
REMARK  Name = 52920501
REMARK  9 active torsions:
REMARK  status: ('A' for Active; 'I' for Inactive)
REMARK    1  A    between atoms: N_1  and  C_12
REMARK    2  A    between atoms: C_5  and  O_27
REMARK    3  A    between atoms: C_9  and  C_15
REMARK    4  A    between atoms: C_15  and  S_16
REMARK    5  A    between atoms: S_16  and  N_19
REMARK    6  A    between atoms: N_19  and  C_21
REMARK    7  A    between atoms: C_21  and  C_22
REMARK    8  A    between atoms: C_22  and  N_23
REMARK    9  A    between atoms: O_27  and  C_35
REMARK                            x       y       z     vdW  Elec       q    Type
REMARK                         _______ _______ _______ _____ _____    ______ ____
ROOT
ATOM      1  N   UNL     1      33.104 -15.274 -25.008  0.00  0.00    -0.247 N 
ATOM      2  N   UNL     1      34.439 -16.429 -23.463  0.00  0.00    -0.300 NA
ATOM      3  N   UNL     1      33.220 -17.612 -25.173  0.00  0.00    -0.170 NA
ATOM      4  C   UNL     1      33.613 -16.499 -24.524  0.00  0.00    +0.152 C 
ATOM      5  C   UNL     1      34.905 -17.618 -23.026  0.00  0.00    +0.295 C 
ATOM      6  C   UNL     1      34.579 -18.828 -23.602  0.00  0.00    +0.094 C 
ATOM      7  C   UNL     1      33.724 -18.764 -24.683  0.00  0.00    +0.118 C 
ATOM      8  H   UNL     1      32.506 -15.373 -25.784  0.00  0.00    +0.165 HD
ENDROOT
BRANCH   1  12
ATOM      9  C   UNL     1      33.525 -12.304 -22.838  0.00  0.00    +0.004 C 
ATOM     10  C   UNL     1      33.344 -13.627 -23.242  0.00  0.00    +0.013 C 
ATOM     11  C   UNL     1      33.646 -11.294 -23.793  0.00  0.00    -0.002 C 
ATOM     12  C   UNL     1      33.286 -13.940 -24.600  0.00  0.00    +0.057 C 
ATOM     13  C   UNL     1      33.587 -11.606 -25.151  0.00  0.00    +0.001 C 
ATOM     14  C   UNL     1      33.406 -12.930 -25.554  0.00  0.00    +0.015 C 
BRANCH   9  15
ATOM     15  C   UNL     1      33.589 -11.970 -21.386  0.00  0.00    +0.195 C 
BRANCH  15  16
ATOM     16  S   UNL     1      31.982 -12.218 -20.702  0.00  0.00    +0.045 S 
ATOM     17  O   UNL     1      30.994 -11.757 -21.664  0.00  0.00    -0.157 OA
ATOM     18  O   UNL     1      31.920 -13.577 -20.186  0.00  0.00    -0.157 OA
BRANCH  16  19
ATOM     19  N   UNL     1      32.024 -11.146 -19.370  0.00  0.00    -0.185 NA
ATOM     20  H   UNL     1      32.999 -10.884 -19.228  0.00  0.00    +0.148 HD
BRANCH  19  21
ATOM     21  C   UNL     1      31.247  -9.895 -19.436  0.00  0.00    +0.068 C 
BRANCH  21  22
ATOM     22  C   UNL     1      32.202  -8.710 -19.447  0.00  0.00    -0.058 C 
BRANCH  22  23
ATOM     23  N   UNL     1      32.640  -8.428 -20.809  0.00  0.00    +0.385 N 
ATOM     24  C   UNL     1      31.492  -8.355 -21.715  0.00  0.00    -0.101 C 
ATOM     25  C   UNL     1      33.404  -7.180 -20.857  0.00  0.00    -0.101 C 
ATOM     26  H   UNL     1      33.245  -9.191 -21.113  0.00  0.00    -0.080 HD
ENDBRANCH  22  23
ENDBRANCH  21  22
ENDBRANCH  19  21
ENDBRANCH  16  19
ENDBRANCH  15  16
ENDBRANCH   9  15
ENDBRANCH   1  12
BRANCH   5  27
ATOM     27  O   UNL     1      35.759 -17.598 -21.936  0.00  0.00    -0.427 OA
BRANCH  27  35
ATOM     28  N   UNL     1      35.334 -21.862 -18.516  0.00  0.00    -0.316 N 
ATOM     29  C   UNL     1      34.443 -20.315 -19.855  0.00  0.00    +0.017 C 
ATOM     30  C   UNL     1      35.646 -20.807 -19.343  0.00  0.00    +0.048 C 
ATOM     31  C   UNL     1      33.979 -22.055 -18.487  0.00  0.00    +0.026 C 
ATOM     32  C   UNL     1      33.400 -21.112 -19.306  0.00  0.00    +0.012 C 
ATOM     33  C   UNL     1      34.479 -19.220 -20.740  0.00  0.00    +0.039 C 
ATOM     34  C   UNL     1      36.889 -20.255 -19.674  0.00  0.00    +0.018 C 
ATOM     35  C   UNL     1      35.715 -18.658 -21.080  0.00  0.00    +0.148 C 
ATOM     36  C   UNL     1      36.900 -19.169 -20.554  0.00  0.00    +0.039 C 
ATOM     37  C   UNL     1      33.375 -23.126 -17.674  0.00  0.00    +0.047 C 
ATOM     38  H   UNL     1      35.990 -22.401 -18.017  0.00  0.00    +0.152 HD
ENDBRANCH  27  35
ENDBRANCH   5  27
TORSDOF 9
ENDMDL
MODEL 2
REMARK VINA RESULT:     -11.5      3.241     10.425
REMARK  Name = 52920501
REMARK  9 active torsions:
REMARK  status: ('A' for Active; 'I' for Inactive)
REMARK    1  A    between atoms: N_1  and  C_12
REMARK    2  A    between atoms: C_5  and  O_27
REMARK    3  A    between atoms: C_9  and  C_15
REMARK    4  A    between atoms: C_15  and  S_16
REMARK    5  A    between atoms: S_16  and  N_19
REMARK    6  A    between atoms: N_19  and  C_21
REMARK    7  A    between atoms: C_21  and  C_22
REMARK    8  A    between atoms: C_22  and  N_23
REMARK    9  A    between atoms: O_27  and  C_35
REMARK                            x       y       z     vdW  Elec       q    Type
REMARK                         _______ _______ _______ _____ _____    ______ ____
ROOT
ATOM      1  N   UNL     1      34.389 -18.710 -23.164  0.00  0.00    -0.247 N 
ATOM      2  N   UNL     1      34.687 -16.413 -22.790  0.00  0.00    -0.300 NA
ATOM      3  N   UNL     1      33.864 -17.226 -24.904  0.00  0.00    -0.170 NA
ATOM      4  C   UNL     1      34.309 -17.384 -23.642  0.00  0.00    +0.152 C 
ATOM      5  C   UNL     1      34.598 -15.159 -23.280  0.00  0.00    +0.295 C 
ATOM      6  C   UNL     1      34.158 -14.863 -24.553  0.00  0.00    +0.094 C 
ATOM      7  C   UNL     1      33.800 -15.947 -25.329  0.00  0.00    +0.118 C 
ATOM      8  H   UNL     1      34.103 -19.386 -23.820  0.00  0.00    +0.165 HD
ENDROOT
BRANCH   1  12
ATOM      9  C   UNL     1      34.275 -20.438 -19.892  0.00  0.00    +0.004 C 
ATOM     10  C   UNL     1      33.870 -19.899 -21.113  0.00  0.00    +0.013 C 
ATOM     11  C   UNL     1      35.606 -20.331 -19.489  0.00  0.00    -0.002 C 
ATOM     12  C   UNL     1      34.796 -19.254 -21.932  0.00  0.00    +0.057 C 
ATOM     13  C   UNL     1      36.533 -19.686 -20.308  0.00  0.00    +0.001 C 
ATOM     14  C   UNL     1      36.128 -19.147 -21.529  0.00  0.00    +0.015 C 
BRANCH   9  15
ATOM     15  C   UNL     1      33.284 -21.129 -19.017  0.00  0.00    +0.195 C 
BRANCH  15  16
ATOM     16  S   UNL     1      34.035 -22.604 -18.406  0.00  0.00    +0.045 S 
ATOM     17  O   UNL     1      34.115 -23.565 -19.494  0.00  0.00    -0.157 OA
ATOM     18  O   UNL     1      35.235 -22.226 -17.675  0.00  0.00    -0.157 OA
BRANCH  16  19
ATOM     19  N   UNL     1      32.864 -23.123 -17.273  0.00  0.00    -0.185 NA
ATOM     20  H   UNL     1      32.437 -23.969 -17.651  0.00  0.00    +0.148 HD
BRANCH  19  21
ATOM     21  C   UNL     1      33.290 -23.432 -15.896  0.00  0.00    +0.068 C 
BRANCH  21  22
ATOM     22  C   UNL     1      32.066 -23.494 -14.994  0.00  0.00    -0.058 C 
BRANCH  22  23
ATOM     23  N   UNL     1      32.456 -23.867 -13.639  0.00  0.00    +0.385 N 
ATOM     24  C   UNL     1      31.657 -24.999 -13.166  0.00  0.00    -0.101 C 
ATOM     25  C   UNL     1      33.882 -24.194 -13.583  0.00  0.00    -0.101 C 
ATOM     26  H   UNL     1      32.281 -23.069 -13.028  0.00  0.00    -0.080 HD
ENDBRANCH  22  23
ENDBRANCH  21  22
ENDBRANCH  19  21
ENDBRANCH  16  19
ENDBRANCH  15  16
ENDBRANCH   9  15
ENDBRANCH   1  12
BRANCH   5  27
ATOM     27  O   UNL     1      34.975 -14.125 -22.439  0.00  0.00    -0.427 OA
BRANCH  27  35
ATOM     28  N   UNL     1      31.355 -10.115 -21.508  0.00  0.00    -0.316 N 
ATOM     29  C   UNL     1      33.129 -10.959 -22.564  0.00  0.00    +0.017 C 
ATOM     30  C   UNL     1      32.159 -11.228 -21.596  0.00  0.00    +0.048 C 
ATOM     31  C   UNL     1      31.781  -9.153 -22.383  0.00  0.00    +0.026 C 
ATOM     32  C   UNL     1      32.878  -9.646 -23.052  0.00  0.00    +0.012 C 
ATOM     33  C   UNL     1      34.091 -11.946 -22.853  0.00  0.00    +0.039 C 
ATOM     34  C   UNL     1      32.103 -12.441 -20.900  0.00  0.00    +0.018 C 
ATOM     35  C   UNL     1      34.047 -13.165 -22.165  0.00  0.00    +0.148 C 
ATOM     36  C   UNL     1      33.068 -13.406 -21.204  0.00  0.00    +0.039 C 
ATOM     37  C   UNL     1      31.092  -7.854 -22.491  0.00  0.00    +0.047 C 
ATOM     38  H   UNL     1      30.583 -10.023 -20.903  0.00  0.00    +0.152 HD
ENDBRANCH  27  35
ENDBRANCH   5  27
TORSDOF 9
ENDMDL
MODEL 3
REMARK VINA RESULT:     -11.3      5.018     11.498
REMARK  Name = 52920501
REMARK  9 active torsions:
REMARK  status: ('A' for Active; 'I' for Inactive)
REMARK    1  A    between atoms: N_1  and  C_12
REMARK    2  A    between atoms: C_5  and  O_27
REMARK    3  A    between atoms: C_9  and  C_15
REMARK    4  A    between atoms: C_15  and  S_16
REMARK    5  A    between atoms: S_16  and  N_19
REMARK    6  A    between atoms: N_19  and  C_21
REMARK    7  A    between atoms: C_21  and  C_22
REMARK    8  A    between atoms: C_22  and  N_23
REMARK    9  A    between atoms: O_27  and  C_35
REMARK                            x       y       z     vdW  Elec       q    Type
REMARK                         _______ _______ _______ _____ _____    ______ ____
ROOT
ATOM      1  N   UNL     1      34.135 -22.542 -17.260  0.00  0.00    -0.247 N 
ATOM      2  N   UNL     1      35.023 -20.960 -18.747  0.00  0.00    -0.300 NA
ATOM      3  N   UNL     1      32.745 -21.718 -18.962  0.00  0.00    -0.170 NA
ATOM      4  C   UNL     1      33.959 -21.698 -18.378  0.00  0.00    +0.152 C 
ATOM      5  C   UNL     1      34.820 -20.166 -19.819  0.00  0.00    +0.295 C 
ATOM      6  C   UNL     1      33.625 -20.094 -20.505  0.00  0.00    +0.094 C 
ATOM      7  C   UNL     1      32.613 -20.901 -20.027  0.00  0.00    +0.118 C 
ATOM      8  H   UNL     1      33.332 -23.063 -17.026  0.00  0.00    +0.165 HD
ENDROOT
BRANCH   1  12
ATOM      9  C   UNL     1      36.206 -23.933 -14.524  0.00  0.00    +0.004 C 
ATOM     10  C   UNL     1      35.117 -23.694 -15.362  0.00  0.00    +0.013 C 
ATOM     11  C   UNL     1      37.410 -23.262 -14.737  0.00  0.00    -0.002 C 
ATOM     12  C   UNL     1      35.233 -22.784 -16.413  0.00  0.00    +0.057 C 
ATOM     13  C   UNL     1      37.527 -22.352 -15.788  0.00  0.00    +0.001 C 
ATOM     14  C   UNL     1      36.437 -22.113 -16.626  0.00  0.00    +0.015 C 
BRANCH   9  15
ATOM     15  C   UNL     1      36.082 -24.906 -13.401  0.00  0.00    +0.195 C 
BRANCH  15  16
ATOM     16  S   UNL     1      35.433 -24.044 -12.005  0.00  0.00    +0.045 S 
ATOM     17  O   UNL     1      35.189 -25.006 -10.943  0.00  0.00    -0.157 OA
ATOM     18  O   UNL     1      36.278 -22.885 -11.763  0.00  0.00    -0.157 OA
BRANCH  16  19
ATOM     19  N   UNL     1      33.939 -23.492 -12.628  0.00  0.00    -0.185 NA
ATOM     20  H   UNL     1      34.133 -23.061 -13.532  0.00  0.00    +0.148 HD
BRANCH  19  21
ATOM     21  C   UNL     1      32.850 -24.463 -12.838  0.00  0.00    +0.068 C 
BRANCH  21  22
ATOM     22  C   UNL     1      31.589 -23.721 -13.256  0.00  0.00    -0.058 C 
BRANCH  22  23
ATOM     23  N   UNL     1      31.140 -24.184 -14.564  0.00  0.00    +0.385 N 
ATOM     24  C   UNL     1      29.819 -24.808 -14.464  0.00  0.00    -0.101 C 
ATOM     25  C   UNL     1      31.108 -23.077 -15.521  0.00  0.00    -0.101 C 
ATOM     26  H   UNL     1      31.804 -24.883 -14.898  0.00  0.00    -0.080 HD
ENDBRANCH  22  23
ENDBRANCH  21  22
ENDBRANCH  19  21
ENDBRANCH  16  19
ENDBRANCH  15  16
ENDBRANCH   9  15
ENDBRANCH   1  12
BRANCH   5  27
ATOM     27  O   UNL     1      35.885 -19.386 -20.237  0.00  0.00    -0.427 OA
BRANCH  27  35
ATOM     28  N   UNL     1      34.754 -15.004 -23.332  0.00  0.00    -0.316 N 
ATOM     29  C   UNL     1      35.022 -16.002 -21.354  0.00  0.00    +0.017 C 
ATOM     30  C   UNL     1      35.062 -16.205 -22.736  0.00  0.00    +0.048 C 
ATOM     31  C   UNL     1      34.521 -14.049 -22.379  0.00  0.00    +0.026 C 
ATOM     32  C   UNL     1      34.678 -14.637 -21.144  0.00  0.00    +0.012 C 
ATOM     33  C   UNL     1      35.302 -17.086 -20.500  0.00  0.00    +0.039 C 
ATOM     34  C   UNL     1      35.370 -17.445 -23.307  0.00  0.00    +0.018 C 
ATOM     35  C   UNL     1      35.612 -18.332 -21.057  0.00  0.00    +0.148 C 
ATOM     36  C   UNL     1      35.645 -18.506 -22.439  0.00  0.00    +0.039 C 
ATOM     37  C   UNL     1      34.168 -12.667 -22.749  0.00  0.00    +0.047 C 
ATOM     38  H   UNL     1      34.709 -14.852 -24.304  0.00  0.00    +0.152 HD
ENDBRANCH  27  35
ENDBRANCH   5  27
TORSDOF 9
ENDMDL
MODEL 4
REMARK VINA RESULT:     -10.5      3.243      9.954
REMARK  Name = 52920501
REMARK  9 active torsions:
REMARK  status: ('A' for Active; 'I' for Inactive)
REMARK    1  A    between atoms: N_1  and  C_12
REMARK    2  A    between atoms: C_5  and  O_27
REMARK    3  A    between atoms: C_9  and  C_15
REMARK    4  A    between atoms: C_15  and  S_16
REMARK    5  A    between atoms: S_16  and  N_19
REMARK    6  A    between atoms: N_19  and  C_21
REMARK    7  A    between atoms: C_21  and  C_22
REMARK    8  A    between atoms: C_22  and  N_23
REMARK    9  A    between atoms: O_27  and  C_35
REMARK                            x       y       z     vdW  Elec       q    Type
REMARK                         _______ _______ _______ _____ _____    ______ ____
ROOT
ATOM      1  N   UNL     1      34.532 -19.639 -22.254  0.00  0.00    -0.247 N 
ATOM      2  N   UNL     1      34.948 -17.377 -22.718  0.00  0.00    -0.300 NA
ATOM      3  N   UNL     1      33.468 -18.674 -24.110  0.00  0.00    -0.170 NA
ATOM      4  C   UNL     1      34.305 -18.507 -23.067  0.00  0.00    +0.152 C 
ATOM      5  C   UNL     1      34.708 -16.316 -23.517  0.00  0.00    +0.295 C 
ATOM      6  C   UNL     1      33.873 -16.356 -24.614  0.00  0.00    +0.094 C 
ATOM      7  C   UNL     1      33.274 -17.573 -24.865  0.00  0.00    +0.118 C 
ATOM      8  H   UNL     1      34.042 -20.442 -22.546  0.00  0.00    +0.165 HD
ENDROOT
BRANCH   1  12
ATOM      9  C   UNL     1      35.731 -21.003 -19.028  0.00  0.00    +0.004 C 
ATOM     10  C   UNL     1      34.948 -20.801 -20.164  0.00  0.00    +0.013 C 
ATOM     11  C   UNL     1      36.887 -20.248 -18.834  0.00  0.00    -0.002 C 
ATOM     12  C   UNL     1      35.321 -19.844 -21.107  0.00  0.00    +0.057 C 
ATOM     13  C   UNL     1      37.261 -19.290 -19.778  0.00  0.00    +0.001 C 
ATOM     14  C   UNL     1      36.478 -19.088 -20.914  0.00  0.00    +0.015 C 
BRANCH   9  15
ATOM     15  C   UNL     1      35.331 -22.027 -18.020  0.00  0.00    +0.195 C 
BRANCH  15  16
ATOM     16  S   UNL     1      33.682 -22.534 -18.386  0.00  0.00    +0.045 S 
ATOM     17  O   UNL     1      32.869 -21.347 -18.593  0.00  0.00    -0.157 OA
ATOM     18  O   UNL     1      33.747 -23.563 -19.413  0.00  0.00    -0.157 OA
BRANCH  16  19
ATOM     19  N   UNL     1      33.234 -23.281 -16.914  0.00  0.00    -0.185 NA
ATOM     20  H   UNL     1      33.924 -23.003 -16.216  0.00  0.00    +0.148 HD
BRANCH  19  21
ATOM     21  C   UNL     1      31.905 -22.996 -16.344  0.00  0.00    +0.068 C 
BRANCH  21  22
ATOM     22  C   UNL     1      31.985 -23.062 -14.826  0.00  0.00    -0.058 C 
BRANCH  22  23
ATOM     23  N   UNL     1      30.803 -23.722 -14.285  0.00  0.00    +0.385 N 
ATOM     24  C   UNL     1      29.777 -23.869 -15.319  0.00  0.00    -0.101 C 
ATOM     25  C   UNL     1      31.152 -25.030 -13.727  0.00  0.00    -0.101 C 
ATOM     26  H   UNL     1      30.428 -23.140 -13.536  0.00  0.00    -0.080 HD
ENDBRANCH  22  23
ENDBRANCH  21  22
ENDBRANCH  19  21
ENDBRANCH  16  19
ENDBRANCH  15  16
ENDBRANCH   9  15
ENDBRANCH   1  12
BRANCH   5  27
ATOM     27  O   UNL     1      35.347 -15.130 -23.198  0.00  0.00    -0.427 OA
BRANCH  27  35
ATOM     28  N   UNL     1      32.155 -10.904 -21.779  0.00  0.00    -0.316 N 
ATOM     29  C   UNL     1      33.099 -12.883 -21.368  0.00  0.00    +0.017 C 
ATOM     30  C   UNL     1      32.987 -11.861 -22.314  0.00  0.00    +0.048 C 
ATOM     31  C   UNL     1      31.738 -11.283 -20.532  0.00  0.00    +0.026 C 
ATOM     32  C   UNL     1      32.305 -12.505 -20.250  0.00  0.00    +0.012 C 
ATOM     33  C   UNL     1      33.904 -14.000 -21.668  0.00  0.00    +0.039 C 
ATOM     34  C   UNL     1      33.643 -11.901 -23.549  0.00  0.00    +0.018 C 
ATOM     35  C   UNL     1      34.566 -14.053 -22.900  0.00  0.00    +0.148 C 
ATOM     36  C   UNL     1      34.436 -13.019 -23.825  0.00  0.00    +0.039 C 
ATOM     37  C   UNL     1      30.833 -10.435 -19.735  0.00  0.00    +0.047 C 
ATOM     38  H   UNL     1      31.897 -10.066 -22.228  0.00  0.00    +0.152 HD
ENDBRANCH  27  35
ENDBRANCH   5  27
TORSDOF 9
ENDMDL
MODEL 5
REMARK VINA RESULT:     -10.4      4.539     11.006
REMARK  Name = 52920501
REMARK  9 active torsions:
REMARK  status: ('A' for Active; 'I' for Inactive)
REMARK    1  A    between atoms: N_1  and  C_12
REMARK    2  A    between atoms: C_5  and  O_27
REMARK    3  A    between atoms: C_9  and  C_15
REMARK    4  A    between atoms: C_15  and  S_16
REMARK    5  A    between atoms: S_16  and  N_19
REMARK    6  A    between atoms: N_19  and  C_21
REMARK    7  A    between atoms: C_21  and  C_22
REMARK    8  A    between atoms: C_22  and  N_23
REMARK    9  A    between atoms: O_27  and  C_35
REMARK                            x       y       z     vdW  Elec       q    Type
REMARK                         _______ _______ _______ _____ _____    ______ ____
ROOT
ATOM      1  N   UNL     1      35.287 -21.227 -20.123  0.00  0.00    -0.247 N 
ATOM      2  N   UNL     1      35.327 -18.881 -20.145  0.00  0.00    -0.300 NA
ATOM      3  N   UNL     1      34.851 -20.130 -22.151  0.00  0.00    -0.170 NA
ATOM      4  C   UNL     1      35.148 -20.020 -20.842  0.00  0.00    +0.152 C 
ATOM      5  C   UNL     1      35.188 -17.747 -20.863  0.00  0.00    +0.295 C 
ATOM      6  C   UNL     1      34.885 -17.724 -22.209  0.00  0.00    +0.094 C 
ATOM      7  C   UNL     1      34.726 -18.957 -22.807  0.00  0.00    +0.118 C 
ATOM      8  H   UNL     1      35.147 -22.033 -20.671  0.00  0.00    +0.165 HD
ENDROOT
BRANCH   1  12
ATOM      9  C   UNL     1      34.981 -22.505 -16.662  0.00  0.00    +0.004 C 
ATOM     10  C   UNL     1      34.685 -22.231 -17.997  0.00  0.00    +0.013 C 
ATOM     11  C   UNL     1      36.177 -22.051 -16.105  0.00  0.00    -0.002 C 
ATOM     12  C   UNL     1      35.584 -21.504 -18.776  0.00  0.00    +0.057 C 
ATOM     13  C   UNL     1      37.077 -21.323 -16.884  0.00  0.00    +0.001 C 
ATOM     14  C   UNL     1      36.780 -21.050 -18.219  0.00  0.00    +0.015 C 
BRANCH   9  15
ATOM     15  C   UNL     1      34.019 -23.283 -15.829  0.00  0.00    +0.195 C 
BRANCH  15  16
ATOM     16  S   UNL     1      34.936 -24.103 -14.564  0.00  0.00    +0.045 S 
ATOM     17  O   UNL     1      35.786 -25.105 -15.187  0.00  0.00    -0.157 OA
ATOM     18  O   UNL     1      35.517 -23.085 -13.702  0.00  0.00    -0.157 OA
BRANCH  16  19
ATOM     19  N   UNL     1      33.680 -24.878 -13.700  0.00  0.00    -0.185 NA
ATOM     20  H   UNL     1      34.088 -25.235 -12.836  0.00  0.00    +0.148 HD
BRANCH  19  21
ATOM     21  C   UNL     1      32.486 -24.100 -13.324  0.00  0.00    +0.068 C 
BRANCH  21  22
ATOM     22  C   UNL     1      31.258 -24.995 -13.405  0.00  0.00    -0.058 C 
BRANCH  22  23
ATOM     23  N   UNL     1      30.067 -24.197 -13.670  0.00  0.00    +0.385 N 
ATOM     24  C   UNL     1      30.435 -22.886 -14.209  0.00  0.00    -0.101 C 
ATOM     25  C   UNL     1      29.175 -24.894 -14.598  0.00  0.00    -0.101 C 
ATOM     26  H   UNL     1      29.574 -24.059 -12.788  0.00  0.00    -0.080 HD
ENDBRANCH  22  23
ENDBRANCH  21  22
ENDBRANCH  19  21
ENDBRANCH  16  19
ENDBRANCH  15  16
ENDBRANCH   9  15
ENDBRANCH   1  12
BRANCH   5  27
ATOM     27  O   UNL     1      35.363 -16.550 -20.191  0.00  0.00    -0.427 OA
BRANCH  27  35
ATOM     28  N   UNL     1      32.708 -12.107 -22.000  0.00  0.00    -0.316 N 
ATOM     29  C   UNL     1      33.081 -13.693 -20.476  0.00  0.00    +0.017 C 
ATOM     30  C   UNL     1      33.481 -13.211 -21.724  0.00  0.00    +0.048 C 
ATOM     31  C   UNL     1      31.834 -11.874 -20.973  0.00  0.00    +0.026 C 
ATOM     32  C   UNL     1      32.041 -12.840 -20.014  0.00  0.00    +0.012 C 
ATOM     33  C   UNL     1      33.721 -14.833 -19.951  0.00  0.00    +0.039 C 
ATOM     34  C   UNL     1      34.495 -13.815 -22.476  0.00  0.00    +0.018 C 
ATOM     35  C   UNL     1      34.738 -15.447 -20.692  0.00  0.00    +0.148 C 
ATOM     36  C   UNL     1      35.117 -14.945 -21.935  0.00  0.00    +0.039 C 
ATOM     37  C   UNL     1      30.885 -10.746 -21.014  0.00  0.00    +0.047 C 
ATOM     38  H   UNL     1      32.773 -11.563 -22.818  0.00  0.00    +0.152 HD
ENDBRANCH  27  35
ENDBRANCH   5  27
TORSDOF 9
ENDMDL
MODEL 6
REMARK VINA RESULT:     -10.4      2.084      2.709
REMARK  Name = 52920501
REMARK  9 active torsions:
REMARK  status: ('A' for Active; 'I' for Inactive)
REMARK    1  A    between atoms: N_1  and  C_12
REMARK    2  A    between atoms: C_5  and  O_27
REMARK    3  A    between atoms: C_9  and  C_15
REMARK    4  A    between atoms: C_15  and  S_16
REMARK    5  A    between atoms: S_16  and  N_19
REMARK    6  A    between atoms: N_19  and  C_21
REMARK    7  A    between atoms: C_21  and  C_22
REMARK    8  A    between atoms: C_22  and  N_23
REMARK    9  A    between atoms: O_27  and  C_35
REMARK                            x       y       z     vdW  Elec       q    Type
REMARK                         _______ _______ _______ _____ _____    ______ ____
ROOT
ATOM      1  N   UNL     1      32.837 -14.103 -24.156  0.00  0.00    -0.247 N 
ATOM      2  N   UNL     1      34.413 -15.444 -23.051  0.00  0.00    -0.300 NA
ATOM      3  N   UNL     1      33.348 -16.200 -25.076  0.00  0.00    -0.170 NA
ATOM      4  C   UNL     1      33.569 -15.308 -24.091  0.00  0.00    +0.152 C 
ATOM      5  C   UNL     1      35.096 -16.608 -23.020  0.00  0.00    +0.295 C 
ATOM      6  C   UNL     1      34.961 -17.601 -23.968  0.00  0.00    +0.094 C 
ATOM      7  C   UNL     1      34.064 -17.340 -24.983  0.00  0.00    +0.118 C 
ATOM      8  H   UNL     1      32.233 -14.047 -24.932  0.00  0.00    +0.165 HD
ENDROOT
BRANCH   1  12
ATOM      9  C   UNL     1      33.423 -10.671 -22.897  0.00  0.00    +0.004 C 
ATOM     10  C   UNL     1      33.459 -11.798 -23.718  0.00  0.00    +0.013 C 
ATOM     11  C   UNL     1      32.731 -10.711 -21.687  0.00  0.00    -0.002 C 
ATOM     12  C   UNL     1      32.802 -12.965 -23.329  0.00  0.00    +0.057 C 
ATOM     13  C   UNL     1      32.074 -11.878 -21.297  0.00  0.00    +0.001 C 
ATOM     14  C   UNL     1      32.110 -13.005 -22.118  0.00  0.00    +0.015 C 
BRANCH   9  15
ATOM     15  C   UNL     1      34.125  -9.423 -23.314  0.00  0.00    +0.195 C 
BRANCH  15  16
ATOM     16  S   UNL     1      33.036  -8.065 -23.024  0.00  0.00    +0.045 S 
ATOM     17  O   UNL     1      33.520  -6.918 -23.775  0.00  0.00    -0.157 OA
ATOM     18  O   UNL     1      31.673  -8.538 -23.209  0.00  0.00    -0.157 OA
BRANCH  16  19
ATOM     19  N   UNL     1      33.284  -7.798 -21.353  0.00  0.00    -0.185 NA
ATOM     20  H   UNL     1      34.219  -7.404 -21.248  0.00  0.00    +0.148 HD
BRANCH  19  21
ATOM     21  C   UNL     1      32.359  -6.910 -20.627  0.00  0.00    +0.068 C 
BRANCH  21  22
ATOM     22  C   UNL     1      32.771  -5.462 -20.853  0.00  0.00    -0.058 C 
BRANCH  22  23
ATOM     23  N   UNL     1      31.806  -4.791 -21.715  0.00  0.00    +0.385 N 
ATOM     24  C   UNL     1      30.514  -5.479 -21.678  0.00  0.00    -0.101 C 
ATOM     25  C   UNL     1      31.646  -3.391 -21.319  0.00  0.00    -0.101 C 
ATOM     26  H   UNL     1      32.161  -4.818 -22.671  0.00  0.00    -0.080 HD
ENDBRANCH  22  23
ENDBRANCH  21  22
ENDBRANCH  19  21
ENDBRANCH  16  19
ENDBRANCH  15  16
ENDBRANCH   9  15
ENDBRANCH   1  12
BRANCH   5  27
ATOM     27  O   UNL     1      35.978 -16.794 -21.969  0.00  0.00    -0.427 OA
BRANCH  27  35
ATOM     28  N   UNL     1      35.368 -21.464 -19.163  0.00  0.00    -0.316 N 
ATOM     29  C   UNL     1      34.544 -19.689 -20.235  0.00  0.00    +0.017 C 
ATOM     30  C   UNL     1      35.726 -20.325 -19.847  0.00  0.00    +0.048 C 
ATOM     31  C   UNL     1      34.005 -21.572 -19.105  0.00  0.00    +0.026 C 
ATOM     32  C   UNL     1      33.466 -20.487 -19.760  0.00  0.00    +0.012 C 
ATOM     33  C   UNL     1      34.628 -18.484 -20.959  0.00  0.00    +0.039 C 
ATOM     34  C   UNL     1      36.992 -19.812 -20.149  0.00  0.00    +0.018 C 
ATOM     35  C   UNL     1      35.888 -17.959 -21.268  0.00  0.00    +0.148 C 
ATOM     36  C   UNL     1      37.051 -18.615 -20.868  0.00  0.00    +0.039 C 
ATOM     37  C   UNL     1      33.354 -22.706 -18.425  0.00  0.00    +0.047 C 
ATOM     38  H   UNL     1      36.001 -22.110 -18.773  0.00  0.00    +0.152 HD
ENDBRANCH  27  35
ENDBRANCH   5  27
TORSDOF 9
ENDMDL
MODEL 7
REMARK VINA RESULT:     -10.2      4.575     11.412
REMARK  Name = 52920501
REMARK  9 active torsions:
REMARK  status: ('A' for Active; 'I' for Inactive)
REMARK    1  A    between atoms: N_1  and  C_12
REMARK    2  A    between atoms: C_5  and  O_27
REMARK    3  A    between atoms: C_9  and  C_15
REMARK    4  A    between atoms: C_15  and  S_16
REMARK    5  A    between atoms: S_16  and  N_19
REMARK    6  A    between atoms: N_19  and  C_21
REMARK    7  A    between atoms: C_21  and  C_22
REMARK    8  A    between atoms: C_22  and  N_23
REMARK    9  A    between atoms: O_27  and  C_35
REMARK                            x       y       z     vdW  Elec       q    Type
REMARK                         _______ _______ _______ _____ _____    ______ ____
ROOT
ATOM      1  N   UNL     1      35.210 -21.002 -20.648  0.00  0.00    -0.247 N 
ATOM      2  N   UNL     1      35.239 -18.659 -20.521  0.00  0.00    -0.300 NA
ATOM      3  N   UNL     1      34.877 -19.781 -22.624  0.00  0.00    -0.170 NA
ATOM      4  C   UNL     1      35.103 -19.752 -21.296  0.00  0.00    +0.152 C 
ATOM      5  C   UNL     1      35.133 -17.483 -21.173  0.00  0.00    +0.295 C 
ATOM      6  C   UNL     1      34.902 -17.376 -22.529  0.00  0.00    +0.094 C 
ATOM      7  C   UNL     1      34.782 -18.569 -23.211  0.00  0.00    +0.118 C 
ATOM      8  H   UNL     1      35.104 -21.773 -21.252  0.00  0.00    +0.165 HD
ENDROOT
BRANCH   1  12
ATOM      9  C   UNL     1      34.697 -22.441 -17.275  0.00  0.00    +0.004 C 
ATOM     10  C   UNL     1      34.471 -22.084 -18.605  0.00  0.00    +0.013 C 
ATOM     11  C   UNL     1      35.888 -22.075 -16.647  0.00  0.00    -0.002 C 
ATOM     12  C   UNL     1      35.436 -21.363 -19.307  0.00  0.00    +0.057 C 
ATOM     13  C   UNL     1      36.853 -21.353 -17.349  0.00  0.00    +0.001 C 
ATOM     14  C   UNL     1      36.627 -20.996 -18.679  0.00  0.00    +0.015 C 
BRANCH   9  15
ATOM     15  C   UNL     1      33.665 -23.213 -16.525  0.00  0.00    +0.195 C 
BRANCH  15  16
ATOM     16  S   UNL     1      34.300 -23.543 -14.913  0.00  0.00    +0.045 S 
ATOM     17  O   UNL     1      35.037 -22.375 -14.460  0.00  0.00    -0.157 OA
ATOM     18  O   UNL     1      33.217 -24.083 -14.107  0.00  0.00    -0.157 OA
BRANCH  16  19
ATOM     19  N   UNL     1      35.397 -24.813 -15.247  0.00  0.00    -0.185 NA
ATOM     20  H   UNL     1      35.613 -24.768 -16.243  0.00  0.00    +0.148 HD
BRANCH  19  21
ATOM     21  C   UNL     1      36.683 -24.854 -14.528  0.00  0.00    +0.068 C 
BRANCH  21  22
ATOM     22  C   UNL     1      37.137 -26.300 -14.393  0.00  0.00    -0.058 C 
BRANCH  22  23
ATOM     23  N   UNL     1      37.994 -26.454 -13.223  0.00  0.00    +0.385 N 
ATOM     24  C   UNL     1      39.207 -25.645 -13.363  0.00  0.00    -0.101 C 
ATOM     25  C   UNL     1      37.274 -26.082 -12.003  0.00  0.00    -0.101 C 
ATOM     26  H   UNL     1      38.265 -27.435 -13.154  0.00  0.00    -0.080 HD
ENDBRANCH  22  23
ENDBRANCH  21  22
ENDBRANCH  19  21
ENDBRANCH  16  19
ENDBRANCH  15  16
ENDBRANCH   9  15
ENDBRANCH   1  12
BRANCH   5  27
ATOM     27  O   UNL     1      35.264 -16.330 -20.418  0.00  0.00    -0.427 OA
BRANCH  27  35
ATOM     28  N   UNL     1      32.599 -11.811 -22.010  0.00  0.00    -0.316 N 
ATOM     29  C   UNL     1      33.000 -13.448 -20.549  0.00  0.00    +0.017 C 
ATOM     30  C   UNL     1      33.371 -12.929 -21.791  0.00  0.00    +0.048 C 
ATOM     31  C   UNL     1      31.756 -11.604 -20.952  0.00  0.00    +0.026 C 
ATOM     32  C   UNL     1      31.980 -12.602 -20.031  0.00  0.00    +0.012 C 
ATOM     33  C   UNL     1      33.645 -14.609 -20.078  0.00  0.00    +0.039 C 
ATOM     34  C   UNL     1      34.358 -13.516 -22.590  0.00  0.00    +0.018 C 
ATOM     35  C   UNL     1      34.635 -15.207 -20.867  0.00  0.00    +0.148 C 
ATOM     36  C   UNL     1      34.985 -14.667 -22.103  0.00  0.00    +0.039 C 
ATOM     37  C   UNL     1      30.816 -10.468 -20.931  0.00  0.00    +0.047 C 
ATOM     38  H   UNL     1      32.647 -11.240 -22.812  0.00  0.00    +0.152 HD
ENDBRANCH  27  35
ENDBRANCH   5  27
TORSDOF 9
ENDMDL
MODEL 8
REMARK VINA RESULT:     -10.1      4.408     11.139
REMARK  Name = 52920501
REMARK  9 active torsions:
REMARK  status: ('A' for Active; 'I' for Inactive)
REMARK    1  A    between atoms: N_1  and  C_12
REMARK    2  A    between atoms: C_5  and  O_27
REMARK    3  A    between atoms: C_9  and  C_15
REMARK    4  A    between atoms: C_15  and  S_16
REMARK    5  A    between atoms: S_16  and  N_19
REMARK    6  A    between atoms: N_19  and  C_21
REMARK    7  A    between atoms: C_21  and  C_22
REMARK    8  A    between atoms: C_22  and  N_23
REMARK    9  A    between atoms: O_27  and  C_35
REMARK                            x       y       z     vdW  Elec       q    Type
REMARK                         _______ _______ _______ _____ _____    ______ ____
ROOT
ATOM      1  N   UNL     1      36.164 -20.563 -19.074  0.00  0.00    -0.247 N 
ATOM      2  N   UNL     1      35.322 -19.592 -21.037  0.00  0.00    -0.300 NA
ATOM      3  N   UNL     1      37.604 -19.225 -20.356  0.00  0.00    -0.170 NA
ATOM      4  C   UNL     1      36.373 -19.754 -20.212  0.00  0.00    +0.152 C 
ATOM      5  C   UNL     1      35.557 -18.812 -22.113  0.00  0.00    +0.295 C 
ATOM      6  C   UNL     1      36.772 -18.213 -22.375  0.00  0.00    +0.094 C 
ATOM      7  C   UNL     1      37.769 -18.457 -21.453  0.00  0.00    +0.118 C 
ATOM      8  H   UNL     1      36.959 -20.653 -18.500  0.00  0.00    +0.165 HD
ENDROOT
BRANCH   1  12
ATOM      9  C   UNL     1      34.083 -22.954 -17.162  0.00  0.00    +0.004 C 
ATOM     10  C   UNL     1      35.196 -22.257 -17.631  0.00  0.00    +0.013 C 
ATOM     11  C   UNL     1      32.814 -22.661 -17.664  0.00  0.00    -0.002 C 
ATOM     12  C   UNL     1      35.042 -21.267 -18.601  0.00  0.00    +0.057 C 
ATOM     13  C   UNL     1      32.659 -21.670 -18.634  0.00  0.00    +0.001 C 
ATOM     14  C   UNL     1      33.773 -20.973 -19.102  0.00  0.00    +0.015 C 
BRANCH   9  15
ATOM     15  C   UNL     1      34.248 -24.012 -16.125  0.00  0.00    +0.195 C 
BRANCH  15  16
ATOM     16  S   UNL     1      34.173 -23.237 -14.542  0.00  0.00    +0.045 S 
ATOM     17  O   UNL     1      35.331 -22.370 -14.398  0.00  0.00    -0.157 OA
ATOM     18  O   UNL     1      32.832 -22.700 -14.369  0.00  0.00    -0.157 OA
BRANCH  16  19
ATOM     19  N   UNL     1      34.342 -24.588 -13.507  0.00  0.00    -0.185 NA
ATOM     20  H   UNL     1      34.940 -25.260 -13.987  0.00  0.00    +0.148 HD
BRANCH  19  21
ATOM     21  C   UNL     1      34.910 -24.391 -12.161  0.00  0.00    +0.068 C 
BRANCH  21  22
ATOM     22  C   UNL     1      36.311 -24.982 -12.116  0.00  0.00    -0.058 C 
BRANCH  22  23
ATOM     23  N   UNL     1      37.290 -23.996 -12.558  0.00  0.00    +0.385 N 
ATOM     24  C   UNL     1      37.945 -23.368 -11.409  0.00  0.00    -0.101 C 
ATOM     25  C   UNL     1      38.287 -24.615 -13.434  0.00  0.00    -0.101 C 
ATOM     26  H   UNL     1      36.798 -23.274 -13.086  0.00  0.00    -0.080 HD
ENDBRANCH  22  23
ENDBRANCH  21  22
ENDBRANCH  19  21
ENDBRANCH  16  19
ENDBRANCH  15  16
ENDBRANCH   9  15
ENDBRANCH   1  12
BRANCH   5  27
ATOM     27  O   UNL     1      34.505 -18.617 -22.992  0.00  0.00    -0.427 OA
BRANCH  27  35
ATOM     28  N   UNL     1      33.700 -13.430 -24.577  0.00  0.00    -0.316 N 
ATOM     29  C   UNL     1      34.332 -14.955 -23.076  0.00  0.00    +0.017 C 
ATOM     30  C   UNL     1      33.832 -14.784 -24.369  0.00  0.00    +0.048 C 
ATOM     31  C   UNL     1      34.098 -12.740 -23.465  0.00  0.00    +0.026 C 
ATOM     32  C   UNL     1      34.495 -13.656 -22.517  0.00  0.00    +0.012 C 
ATOM     33  C   UNL     1      34.563 -16.262 -22.604  0.00  0.00    +0.039 C 
ATOM     34  C   UNL     1      33.550 -15.861 -25.217  0.00  0.00    +0.018 C 
ATOM     35  C   UNL     1      34.285 -17.349 -23.441  0.00  0.00    +0.148 C 
ATOM     36  C   UNL     1      33.786 -17.149 -24.727  0.00  0.00    +0.039 C 
ATOM     37  C   UNL     1      34.057 -11.267 -23.421  0.00  0.00    +0.047 C 
ATOM     38  H   UNL     1      33.368 -13.017 -25.408  0.00  0.00    +0.152 HD
ENDBRANCH  27  35
ENDBRANCH   5  27
TORSDOF 9
ENDMDL
MODEL 9
REMARK VINA RESULT:      -9.8      5.582     12.202
REMARK  Name = 52920501
REMARK  9 active torsions:
REMARK  status: ('A' for Active; 'I' for Inactive)
REMARK    1  A    between atoms: N_1  and  C_12
REMARK    2  A    between atoms: C_5  and  O_27
REMARK    3  A    between atoms: C_9  and  C_15
REMARK    4  A    between atoms: C_15  and  S_16
REMARK    5  A    between atoms: S_16  and  N_19
REMARK    6  A    between atoms: N_19  and  C_21
REMARK    7  A    between atoms: C_21  and  C_22
REMARK    8  A    between atoms: C_22  and  N_23
REMARK    9  A    between atoms: O_27  and  C_35
REMARK                            x       y       z     vdW  Elec       q    Type
REMARK                         _______ _______ _______ _____ _____    ______ ____
ROOT
ATOM      1  N   UNL     1      34.180 -22.480 -17.266  0.00  0.00    -0.247 N 
ATOM      2  N   UNL     1      35.034 -20.930 -18.807  0.00  0.00    -0.300 NA
ATOM      3  N   UNL     1      32.732 -21.637 -18.908  0.00  0.00    -0.170 NA
ATOM      4  C   UNL     1      33.972 -21.641 -18.382  0.00  0.00    +0.152 C 
ATOM      5  C   UNL     1      34.799 -20.140 -19.875  0.00  0.00    +0.295 C 
ATOM      6  C   UNL     1      33.575 -20.046 -20.505  0.00  0.00    +0.094 C 
ATOM      7  C   UNL     1      32.568 -20.825 -19.973  0.00  0.00    +0.118 C 
ATOM      8  H   UNL     1      33.378 -22.980 -16.990  0.00  0.00    +0.165 HD
ENDROOT
BRANCH   1  12
ATOM      9  C   UNL     1      36.516 -24.188 -14.955  0.00  0.00    +0.004 C 
ATOM     10  C   UNL     1      35.395 -23.930 -15.744  0.00  0.00    +0.013 C 
ATOM     11  C   UNL     1      37.553 -23.256 -14.891  0.00  0.00    -0.002 C 
ATOM     12  C   UNL     1      35.311 -22.742 -16.469  0.00  0.00    +0.057 C 
ATOM     13  C   UNL     1      37.469 -22.067 -15.616  0.00  0.00    +0.001 C 
ATOM     14  C   UNL     1      36.348 -21.810 -16.405  0.00  0.00    +0.015 C 
BRANCH   9  15
ATOM     15  C   UNL     1      36.606 -25.459 -14.180  0.00  0.00    +0.195 C 
BRANCH  15  16
ATOM     16  S   UNL     1      38.308 -25.911 -14.076  0.00  0.00    +0.045 S 
ATOM     17  O   UNL     1      38.405 -27.360 -14.146  0.00  0.00    -0.157 OA
ATOM     18  O   UNL     1      39.049 -25.082 -15.014  0.00  0.00    -0.157 OA
BRANCH  16  19
ATOM     19  N   UNL     1      38.689 -25.391 -12.492  0.00  0.00    -0.185 NA
ATOM     20  H   UNL     1      39.148 -24.484 -12.577  0.00  0.00    +0.148 HD
BRANCH  19  21
ATOM     21  C   UNL     1      37.600 -25.233 -11.511  0.00  0.00    +0.068 C 
BRANCH  21  22
ATOM     22  C   UNL     1      37.410 -23.754 -11.205  0.00  0.00    -0.058 C 
BRANCH  22  23
ATOM     23  N   UNL     1      36.068 -23.512 -10.692  0.00  0.00    +0.385 N 
ATOM     24  C   UNL     1      35.092 -23.506 -11.784  0.00  0.00    -0.101 C 
ATOM     25  C   UNL     1      35.706 -24.520  -9.695  0.00  0.00    -0.101 C 
ATOM     26  H   UNL     1      36.059 -22.595 -10.245  0.00  0.00    -0.080 HD
ENDBRANCH  22  23
ENDBRANCH  21  22
ENDBRANCH  19  21
ENDBRANCH  16  19
ENDBRANCH  15  16
ENDBRANCH   9  15
ENDBRANCH   1  12
BRANCH   5  27
ATOM     27  O   UNL     1      35.861 -19.389 -20.349  0.00  0.00    -0.427 OA
BRANCH  27  35
ATOM     28  N   UNL     1      34.683 -14.986 -23.397  0.00  0.00    -0.316 N 
ATOM     29  C   UNL     1      35.015 -15.989 -21.431  0.00  0.00    +0.017 C 
ATOM     30  C   UNL     1      34.993 -16.193 -22.813  0.00  0.00    +0.048 C 
ATOM     31  C   UNL     1      34.508 -14.027 -22.436  0.00  0.00    +0.026 C 
ATOM     32  C   UNL     1      34.706 -14.618 -21.208  0.00  0.00    +0.012 C 
ATOM     33  C   UNL     1      35.310 -17.078 -20.588  0.00  0.00    +0.039 C 
ATOM     34  C   UNL     1      35.254 -17.438 -23.395  0.00  0.00    +0.018 C 
ATOM     35  C   UNL     1      35.574 -18.329 -21.157  0.00  0.00    +0.148 C 
ATOM     36  C   UNL     1      35.545 -18.505 -22.539  0.00  0.00    +0.039 C 
ATOM     37  C   UNL     1      34.165 -12.638 -22.792  0.00  0.00    +0.047 C 
ATOM     38  H   UNL     1      34.600 -14.833 -24.366  0.00  0.00    +0.152 HD
ENDBRANCH  27  35
ENDBRANCH   5  27
TORSDOF 9
ENDMDL
