MODEL 1
REMARK VINA RESULT:     -12.2      0.000      0.000
REMARK  Name = 445756
REMARK  6 active torsions:
REMARK  status: ('A' for Active; 'I' for Inactive)
REMARK    1  A    between atoms: C_3  and  C_11
REMARK    2  A    between atoms: C_6  and  C_22
REMARK    3  A    between atoms: C_11  and  N_12
REMARK    4  A    between atoms: C_22  and  N_23
REMARK    5  A    between atoms: N_23  and  C_25
REMARK    6  A    between atoms: C_30  and  C_33
REMARK                            x       y       z     vdW  Elec       q    Type
REMARK                         _______ _______ _______ _____ _____    ______ ____
ROOT
ATOM      1  N   UNL     1      34.664 -15.174 -22.285  0.00  0.00    -0.261 N 
ATOM      2  N   UNL     1      34.028 -15.049 -20.159  0.00  0.00    -0.392 NA
ATOM      3  C   UNL     1      32.105 -12.100 -21.413  0.00  0.00    -0.017 C 
ATOM      4  C   UNL     1      33.825 -14.092 -22.217  0.00  0.00    +0.079 C 
ATOM      5  C   UNL     1      33.441 -14.036 -20.880  0.00  0.00    +0.128 C 
ATOM      6  C   UNL     1      34.755 -15.712 -21.031  0.00  0.00    +0.183 C 
ATOM      7  C   UNL     1      32.563 -13.021 -20.462  0.00  0.00    +0.084 C 
ATOM      8  C   UNL     1      32.508 -12.183 -22.747  0.00  0.00    -0.005 C 
ATOM      9  C   UNL     1      33.381 -13.186 -23.181  0.00  0.00    +0.017 C 
ATOM     10  C   UNL     1      35.333 -15.657 -23.472  0.00  0.00    +0.120 C 
ENDROOT
BRANCH   3  11
ATOM     11  C   UNL     1      31.170 -11.014 -20.990  0.00  0.00    +0.120 C 
BRANCH  11  12
ATOM     12  N   UNL     1      31.892  -9.819 -20.542  0.00  0.00    -0.260 N 
ATOM     13  N   UNL     1      32.833  -8.371 -19.173  0.00  0.00    -0.394 NA
ATOM     14  C   UNL     1      32.384  -8.848 -21.356  0.00  0.00    +0.079 C 
ATOM     15  C   UNL     1      32.174  -9.506 -19.254  0.00  0.00    +0.164 C 
ATOM     16  C   UNL     1      32.973  -7.946 -20.474  0.00  0.00    +0.128 C 
ATOM     17  C   UNL     1      32.375  -8.672 -22.740  0.00  0.00    +0.017 C 
ATOM     18  C   UNL     1      31.775 -10.359 -18.116  0.00  0.00    +0.084 C 
ATOM     19  C   UNL     1      33.594  -6.794 -20.986  0.00  0.00    +0.086 C 
ATOM     20  C   UNL     1      32.998  -7.520 -23.231  0.00  0.00    -0.003 C 
ATOM     21  C   UNL     1      33.597  -6.596 -22.372  0.00  0.00    -0.019 C 
ENDBRANCH  11  12
ENDBRANCH   3  11
BRANCH   6  22
ATOM     22  C   UNL     1      35.585 -16.899 -20.743  0.00  0.00    +0.164 C 
BRANCH  22  23
ATOM     23  N   UNL     1      35.105 -18.148 -21.323  0.00  0.00    -0.326 N 
ATOM     24  H   UNL     1      34.942 -18.180 -22.294  0.00  0.00    +0.147 HD
BRANCH  23  25
ATOM     25  C   UNL     1      34.866 -19.283 -20.579  0.00  0.00    +0.045 C 
ATOM     26  C   UNL     1      35.928 -20.033 -20.031  0.00  0.00    +0.014 C 
ATOM     27  C   UNL     1      33.551 -19.737 -20.343  0.00  0.00    +0.014 C 
ATOM     28  C   UNL     1      35.686 -21.183 -19.280  0.00  0.00    +0.004 C 
ATOM     29  C   UNL     1      33.309 -20.887 -19.593  0.00  0.00    +0.004 C 
ATOM     30  C   UNL     1      34.377 -21.611 -19.062  0.00  0.00    +0.031 C 
BRANCH  30  33
ATOM     31  N   UNL     1      34.202 -22.800 -16.889  0.00  0.00    -0.343 N 
ATOM     32  N   UNL     1      33.818 -23.942 -18.891  0.00  0.00    -0.285 NA
ATOM     33  C   UNL     1      34.124 -22.811 -18.280  0.00  0.00    +0.117 C 
ATOM     34  H   UNL     1      34.027 -23.625 -16.380  0.00  0.00    +0.144 HD
ATOM     35  H   UNL     1      34.432 -21.968 -16.415  0.00  0.00    +0.144 HD
ATOM     36  H   UNL     1      33.647 -24.756 -18.364  0.00  0.00    +0.188 HD
ENDBRANCH  30  33
ENDBRANCH  23  25
ENDBRANCH  22  23
ENDBRANCH   6  22
TORSDOF 6
ENDMDL
MODEL 2
REMARK VINA RESULT:     -11.6      2.454      5.083
REMARK  Name = 445756
REMARK  6 active torsions:
REMARK  status: ('A' for Active; 'I' for Inactive)
REMARK    1  A    between atoms: C_3  and  C_11
REMARK    2  A    between atoms: C_6  and  C_22
REMARK    3  A    between atoms: C_11  and  N_12
REMARK    4  A    between atoms: C_22  and  N_23
REMARK    5  A    between atoms: N_23  and  C_25
REMARK    6  A    between atoms: C_30  and  C_33
REMARK                            x       y       z     vdW  Elec       q    Type
REMARK                         _______ _______ _______ _____ _____    ______ ____
ROOT
ATOM      1  N   UNL     1      32.287 -11.589 -21.460  0.00  0.00    -0.261 N 
ATOM      2  N   UNL     1      33.309 -10.649 -23.195  0.00  0.00    -0.392 NA
ATOM      3  C   UNL     1      32.729  -7.525 -21.227  0.00  0.00    -0.017 C 
ATOM      4  C   UNL     1      32.327 -10.248 -21.178  0.00  0.00    +0.079 C 
ATOM      5  C   UNL     1      32.970  -9.683 -22.277  0.00  0.00    +0.128 C 
ATOM      6  C   UNL     1      32.884 -11.779 -22.675  0.00  0.00    +0.183 C 
ATOM      7  C   UNL     1      33.179  -8.294 -22.308  0.00  0.00    +0.084 C 
ATOM      8  C   UNL     1      32.088  -8.122 -20.138  0.00  0.00    -0.005 C 
ATOM      9  C   UNL     1      31.872  -9.503 -20.090  0.00  0.00    +0.017 C 
ATOM     10  C   UNL     1      31.714 -12.616 -20.620  0.00  0.00    +0.120 C 
ENDROOT
BRANCH   3  11
ATOM     11  C   UNL     1      32.941  -6.047 -21.239  0.00  0.00    +0.120 C 
BRANCH  11  12
ATOM     12  N   UNL     1      32.366  -5.425 -22.435  0.00  0.00    -0.260 N 
ATOM     13  N   UNL     1      30.876  -4.477 -23.753  0.00  0.00    -0.394 NA
ATOM     14  C   UNL     1      33.033  -5.196 -23.598  0.00  0.00    +0.079 C 
ATOM     15  C   UNL     1      31.090  -4.988 -22.561  0.00  0.00    +0.164 C 
ATOM     16  C   UNL     1      32.076  -4.598 -24.414  0.00  0.00    +0.128 C 
ATOM     17  C   UNL     1      34.343  -5.444 -24.008  0.00  0.00    +0.017 C 
ATOM     18  C   UNL     1      30.097  -5.090 -21.471  0.00  0.00    +0.084 C 
ATOM     19  C   UNL     1      32.431  -4.219 -25.720  0.00  0.00    +0.086 C 
ATOM     20  C   UNL     1      34.678  -5.061 -25.311  0.00  0.00    -0.003 C 
ATOM     21  C   UNL     1      33.741  -4.459 -26.153  0.00  0.00    -0.019 C 
ENDBRANCH  11  12
ENDBRANCH   3  11
BRANCH   6  22
ATOM     22  C   UNL     1      33.013 -13.117 -23.287  0.00  0.00    +0.164 C 
BRANCH  22  23
ATOM     23  N   UNL     1      34.360 -13.675 -23.281  0.00  0.00    -0.326 N 
ATOM     24  H   UNL     1      35.067 -13.197 -23.773  0.00  0.00    +0.147 HD
BRANCH  23  25
ATOM     25  C   UNL     1      34.693 -14.839 -22.622  0.00  0.00    +0.045 C 
ATOM     26  C   UNL     1      34.682 -14.909 -21.213  0.00  0.00    +0.014 C 
ATOM     27  C   UNL     1      35.058 -16.001 -23.335  0.00  0.00    +0.014 C 
ATOM     28  C   UNL     1      35.021 -16.086 -20.547  0.00  0.00    +0.004 C 
ATOM     29  C   UNL     1      35.396 -17.179 -22.668  0.00  0.00    +0.004 C 
ATOM     30  C   UNL     1      35.378 -17.221 -21.275  0.00  0.00    +0.031 C 
BRANCH  30  33
ATOM     31  N   UNL     1      34.775 -19.416 -20.283  0.00  0.00    -0.343 N 
ATOM     32  N   UNL     1      36.985 -18.660 -20.214  0.00  0.00    -0.285 NA
ATOM     33  C   UNL     1      35.733 -18.449 -20.580  0.00  0.00    +0.117 C 
ATOM     34  H   UNL     1      35.037 -20.241 -19.812  0.00  0.00    +0.144 HD
ATOM     35  H   UNL     1      33.837 -19.277 -20.545  0.00  0.00    +0.144 HD
ATOM     36  H   UNL     1      37.227 -19.490 -19.743  0.00  0.00    +0.188 HD
ENDBRANCH  30  33
ENDBRANCH  23  25
ENDBRANCH  22  23
ENDBRANCH   6  22
TORSDOF 6
ENDMDL
MODEL 3
REMARK VINA RESULT:     -11.6      4.710      8.382
REMARK  Name = 445756
REMARK  6 active torsions:
REMARK  status: ('A' for Active; 'I' for Inactive)
REMARK    1  A    between atoms: C_3  and  C_11
REMARK    2  A    between atoms: C_6  and  C_22
REMARK    3  A    between atoms: C_11  and  N_12
REMARK    4  A    between atoms: C_22  and  N_23
REMARK    5  A    between atoms: N_23  and  C_25
REMARK    6  A    between atoms: C_30  and  C_33
REMARK                            x       y       z     vdW  Elec       q    Type
REMARK                         _______ _______ _______ _____ _____    ______ ____
ROOT
ATOM      1  N   UNL     1      33.153 -21.864 -18.167  0.00  0.00    -0.261 N 
ATOM      2  N   UNL     1      35.355 -22.160 -18.176  0.00  0.00    -0.392 NA
ATOM      3  C   UNL     1      35.193 -19.665 -20.954  0.00  0.00    -0.017 C 
ATOM      4  C   UNL     1      33.628 -21.046 -19.159  0.00  0.00    +0.079 C 
ATOM      5  C   UNL     1      35.006 -21.249 -19.145  0.00  0.00    +0.128 C 
ATOM      6  C   UNL     1      34.222 -22.509 -17.609  0.00  0.00    +0.183 C 
ATOM      7  C   UNL     1      35.811 -20.548 -20.058  0.00  0.00    +0.084 C 
ATOM      8  C   UNL     1      33.809 -19.482 -20.943  0.00  0.00    -0.005 C 
ATOM      9  C   UNL     1      32.992 -20.172 -20.041  0.00  0.00    +0.017 C 
ATOM     10  C   UNL     1      31.768 -22.014 -17.781  0.00  0.00    +0.120 C 
ENDROOT
BRANCH   3  11
ATOM     11  C   UNL     1      36.030 -18.908 -21.932  0.00  0.00    +0.120 C 
BRANCH  11  12
ATOM     12  N   UNL     1      35.210 -18.246 -22.951  0.00  0.00    -0.260 N 
ATOM     13  N   UNL     1      33.979 -17.989 -24.760  0.00  0.00    -0.394 NA
ATOM     14  C   UNL     1      34.883 -16.926 -22.959  0.00  0.00    +0.079 C 
ATOM     15  C   UNL     1      34.659 -18.847 -24.033  0.00  0.00    +0.164 C 
ATOM     16  C   UNL     1      34.108 -16.786 -24.106  0.00  0.00    +0.128 C 
ATOM     17  C   UNL     1      35.180 -15.867 -22.100  0.00  0.00    +0.017 C 
ATOM     18  C   UNL     1      34.824 -20.287 -24.320  0.00  0.00    +0.084 C 
ATOM     19  C   UNL     1      33.588 -15.521 -24.431  0.00  0.00    +0.086 C 
ATOM     20  C   UNL     1      34.655 -14.616 -22.439  0.00  0.00    -0.003 C 
ATOM     21  C   UNL     1      33.873 -14.444 -23.584  0.00  0.00    -0.019 C 
ENDBRANCH  11  12
ENDBRANCH   3  11
BRANCH   6  22
ATOM     22  C   UNL     1      34.067 -23.474 -16.503  0.00  0.00    +0.164 C 
BRANCH  22  23
ATOM     23  N   UNL     1      34.808 -23.150 -15.289  0.00  0.00    -0.326 N 
ATOM     24  H   UNL     1      34.401 -22.524 -14.646  0.00  0.00    +0.147 HD
BRANCH  23  25
ATOM     25  C   UNL     1      36.048 -23.675 -14.998  0.00  0.00    +0.045 C 
ATOM     26  C   UNL     1      36.183 -24.963 -14.437  0.00  0.00    +0.014 C 
ATOM     27  C   UNL     1      37.227 -22.942 -15.249  0.00  0.00    +0.014 C 
ATOM     28  C   UNL     1      37.438 -25.493 -14.141  0.00  0.00    +0.004 C 
ATOM     29  C   UNL     1      38.483 -23.472 -14.952  0.00  0.00    +0.004 C 
ATOM     30  C   UNL     1      38.588 -24.748 -14.398  0.00  0.00    +0.031 C 
BRANCH  30  33
ATOM     31  N   UNL     1      40.036 -26.579 -13.553  0.00  0.00    -0.343 N 
ATOM     32  N   UNL     1      40.984 -24.582 -14.310  0.00  0.00    -0.285 NA
ATOM     33  C   UNL     1      39.897 -25.300 -14.088  0.00  0.00    +0.117 C 
ATOM     34  H   UNL     1      40.933 -26.933 -13.351  0.00  0.00    +0.144 HD
ATOM     35  H   UNL     1      39.239 -27.129 -13.378  0.00  0.00    +0.144 HD
ATOM     36  H   UNL     1      41.872 -24.954 -14.101  0.00  0.00    +0.188 HD
ENDBRANCH  30  33
ENDBRANCH  23  25
ENDBRANCH  22  23
ENDBRANCH   6  22
TORSDOF 6
ENDMDL
MODEL 4
REMARK VINA RESULT:     -11.5      1.583      2.642
REMARK  Name = 445756
REMARK  6 active torsions:
REMARK  status: ('A' for Active; 'I' for Inactive)
REMARK    1  A    between atoms: C_3  and  C_11
REMARK    2  A    between atoms: C_6  and  C_22
REMARK    3  A    between atoms: C_11  and  N_12
REMARK    4  A    between atoms: C_22  and  N_23
REMARK    5  A    between atoms: N_23  and  C_25
REMARK    6  A    between atoms: C_30  and  C_33
REMARK                            x       y       z     vdW  Elec       q    Type
REMARK                         _______ _______ _______ _____ _____    ______ ____
ROOT
ATOM      1  N   UNL     1      34.864 -15.719 -21.072  0.00  0.00    -0.261 N 
ATOM      2  N   UNL     1      35.143 -15.683 -23.276  0.00  0.00    -0.392 NA
ATOM      3  C   UNL     1      33.249 -12.475 -22.977  0.00  0.00    -0.017 C 
ATOM      4  C   UNL     1      34.256 -14.567 -21.499  0.00  0.00    +0.079 C 
ATOM      5  C   UNL     1      34.445 -14.568 -22.879  0.00  0.00    +0.128 C 
ATOM      6  C   UNL     1      35.378 -16.352 -22.169  0.00  0.00    +0.183 C 
ATOM      7  C   UNL     1      33.934 -13.503 -23.640  0.00  0.00    +0.084 C 
ATOM      8  C   UNL     1      33.077 -12.503 -21.592  0.00  0.00    -0.005 C 
ATOM      9  C   UNL     1      33.579 -13.554 -20.818  0.00  0.00    +0.017 C 
ATOM     10  C   UNL     1      34.945 -16.180 -19.704  0.00  0.00    +0.120 C 
ENDROOT
BRANCH   3  11
ATOM     11  C   UNL     1      32.698 -11.333 -23.767  0.00  0.00    +0.120 C 
BRANCH  11  12
ATOM     12  N   UNL     1      33.312 -10.059 -23.380  0.00  0.00    -0.260 N 
ATOM     13  N   UNL     1      34.742  -8.383 -23.353  0.00  0.00    -0.394 NA
ATOM     14  C   UNL     1      32.828  -9.211 -22.434  0.00  0.00    +0.079 C 
ATOM     15  C   UNL     1      34.448  -9.540 -23.905  0.00  0.00    +0.164 C 
ATOM     16  C   UNL     1      33.743  -8.162 -22.433  0.00  0.00    +0.128 C 
ATOM     17  C   UNL     1      31.709  -9.253 -21.601  0.00  0.00    +0.017 C 
ATOM     18  C   UNL     1      35.225 -10.218 -24.962  0.00  0.00    +0.084 C 
ATOM     19  C   UNL     1      33.547  -7.083 -21.555  0.00  0.00    +0.086 C 
ATOM     20  C   UNL     1      31.531  -8.170 -20.733  0.00  0.00    -0.003 C 
ATOM     21  C   UNL     1      32.432  -7.103 -20.709  0.00  0.00    -0.019 C 
ENDBRANCH  11  12
ENDBRANCH   3  11
BRANCH   6  22
ATOM     22  C   UNL     1      36.104 -17.634 -22.069  0.00  0.00    +0.164 C 
BRANCH  22  23
ATOM     23  N   UNL     1      35.285 -18.827 -22.252  0.00  0.00    -0.326 N 
ATOM     24  H   UNL     1      34.994 -19.060 -23.164  0.00  0.00    +0.147 HD
BRANCH  23  25
ATOM     25  C   UNL     1      34.895 -19.642 -21.211  0.00  0.00    +0.045 C 
ATOM     26  C   UNL     1      35.847 -20.322 -20.420  0.00  0.00    +0.014 C 
ATOM     27  C   UNL     1      33.532 -19.829 -20.901  0.00  0.00    +0.014 C 
ATOM     28  C   UNL     1      35.453 -21.148 -19.369  0.00  0.00    +0.004 C 
ATOM     29  C   UNL     1      33.137 -20.655 -19.850  0.00  0.00    +0.004 C 
ATOM     30  C   UNL     1      34.097 -21.316 -19.084  0.00  0.00    +0.031 C 
BRANCH  30  33
ATOM     31  N   UNL     1      32.340 -22.396 -17.703  0.00  0.00    -0.343 N 
ATOM     32  N   UNL     1      34.599 -22.771 -17.239  0.00  0.00    -0.285 NA
ATOM     33  C   UNL     1      33.686 -22.179 -17.988  0.00  0.00    +0.117 C 
ATOM     34  H   UNL     1      32.083 -22.985 -16.956  0.00  0.00    +0.144 HD
ATOM     35  H   UNL     1      31.644 -21.962 -18.248  0.00  0.00    +0.144 HD
ATOM     36  H   UNL     1      34.322 -23.357 -16.496  0.00  0.00    +0.188 HD
ENDBRANCH  30  33
ENDBRANCH  23  25
ENDBRANCH  22  23
ENDBRANCH   6  22
TORSDOF 6
ENDMDL
MODEL 5
REMARK VINA RESULT:     -11.4      4.697      8.483
REMARK  Name = 445756
REMARK  6 active torsions:
REMARK  status: ('A' for Active; 'I' for Inactive)
REMARK    1  A    between atoms: C_3  and  C_11
REMARK    2  A    between atoms: C_6  and  C_22
REMARK    3  A    between atoms: C_11  and  N_12
REMARK    4  A    between atoms: C_22  and  N_23
REMARK    5  A    between atoms: N_23  and  C_25
REMARK    6  A    between atoms: C_30  and  C_33
REMARK                            x       y       z     vdW  Elec       q    Type
REMARK                         _______ _______ _______ _____ _____    ______ ____
ROOT
ATOM      1  N   UNL     1      33.089 -21.885 -18.237  0.00  0.00    -0.261 N 
ATOM      2  N   UNL     1      35.277 -22.263 -18.312  0.00  0.00    -0.392 NA
ATOM      3  C   UNL     1      35.156 -19.599 -20.932  0.00  0.00    -0.017 C 
ATOM      4  C   UNL     1      33.575 -21.027 -19.189  0.00  0.00    +0.079 C 
ATOM      5  C   UNL     1      34.944 -21.282 -19.217  0.00  0.00    +0.128 C 
ATOM      6  C   UNL     1      34.143 -22.602 -17.743  0.00  0.00    +0.183 C 
ATOM      7  C   UNL     1      35.757 -20.557 -20.104  0.00  0.00    +0.084 C 
ATOM      8  C   UNL     1      33.780 -19.366 -20.880  0.00  0.00    -0.005 C 
ATOM      9  C   UNL     1      32.955 -20.078 -20.003  0.00  0.00    +0.017 C 
ATOM     10  C   UNL     1      31.707 -22.007 -17.831  0.00  0.00    +0.120 C 
ENDROOT
BRANCH   3  11
ATOM     11  C   UNL     1      36.002 -18.816 -21.881  0.00  0.00    +0.120 C 
BRANCH  11  12
ATOM     12  N   UNL     1      35.199 -18.191 -22.936  0.00  0.00    -0.260 N 
ATOM     13  N   UNL     1      34.001 -17.999 -24.776  0.00  0.00    -0.394 NA
ATOM     14  C   UNL     1      34.866 -16.874 -22.992  0.00  0.00    +0.079 C 
ATOM     15  C   UNL     1      34.672 -18.829 -24.009  0.00  0.00    +0.164 C 
ATOM     16  C   UNL     1      34.112 -16.774 -24.158  0.00  0.00    +0.128 C 
ATOM     17  C   UNL     1      35.141 -15.787 -22.162  0.00  0.00    +0.017 C 
ATOM     18  C   UNL     1      34.849 -20.276 -24.246  0.00  0.00    +0.084 C 
ATOM     19  C   UNL     1      33.593 -15.523 -24.533  0.00  0.00    +0.086 C 
ATOM     20  C   UNL     1      34.617 -14.549 -22.551  0.00  0.00    -0.003 C 
ATOM     21  C   UNL     1      33.856 -14.418 -23.715  0.00  0.00    -0.019 C 
ENDBRANCH  11  12
ENDBRANCH   3  11
BRANCH   6  22
ATOM     22  C   UNL     1      33.973 -23.626 -16.692  0.00  0.00    +0.164 C 
BRANCH  22  23
ATOM     23  N   UNL     1      33.631 -23.110 -15.372  0.00  0.00    -0.326 N 
ATOM     24  H   UNL     1      32.789 -22.610 -15.268  0.00  0.00    +0.147 HD
BRANCH  23  25
ATOM     25  C   UNL     1      34.430 -23.285 -14.262  0.00  0.00    +0.045 C 
ATOM     26  C   UNL     1      33.932 -23.899 -13.093  0.00  0.00    +0.014 C 
ATOM     27  C   UNL     1      35.774 -22.853 -14.256  0.00  0.00    +0.014 C 
ATOM     28  C   UNL     1      34.740 -24.074 -11.970  0.00  0.00    +0.004 C 
ATOM     29  C   UNL     1      36.582 -23.028 -13.133  0.00  0.00    +0.004 C 
ATOM     30  C   UNL     1      36.065 -23.637 -11.990  0.00  0.00    +0.031 C 
BRANCH  30  33
ATOM     31  N   UNL     1      38.297 -23.843 -10.921  0.00  0.00    -0.343 N 
ATOM     32  N   UNL     1      36.355 -23.967  -9.627  0.00  0.00    -0.285 NA
ATOM     33  C   UNL     1      36.907 -23.818 -10.819  0.00  0.00    +0.117 C 
ATOM     34  H   UNL     1      38.848 -23.967 -10.115  0.00  0.00    +0.144 HD
ATOM     35  H   UNL     1      38.728 -23.737 -11.800  0.00  0.00    +0.144 HD
ATOM     36  H   UNL     1      36.924 -24.090  -8.833  0.00  0.00    +0.188 HD
ENDBRANCH  30  33
ENDBRANCH  23  25
ENDBRANCH  22  23
ENDBRANCH   6  22
TORSDOF 6
ENDMDL
MODEL 6
REMARK VINA RESULT:     -11.3      5.882     12.986
REMARK  Name = 445756
REMARK  6 active torsions:
REMARK  status: ('A' for Active; 'I' for Inactive)
REMARK    1  A    between atoms: C_3  and  C_11
REMARK    2  A    between atoms: C_6  and  C_22
REMARK    3  A    between atoms: C_11  and  N_12
REMARK    4  A    between atoms: C_22  and  N_23
REMARK    5  A    between atoms: N_23  and  C_25
REMARK    6  A    between atoms: C_30  and  C_33
REMARK                            x       y       z     vdW  Elec       q    Type
REMARK                         _______ _______ _______ _____ _____    ______ ____
ROOT
ATOM      1  N   UNL     1      34.553 -22.109 -18.124  0.00  0.00    -0.261 N 
ATOM      2  N   UNL     1      36.582 -21.823 -17.265  0.00  0.00    -0.392 NA
ATOM      3  C   UNL     1      35.023 -23.454 -14.286  0.00  0.00    -0.017 C 
ATOM      4  C   UNL     1      34.488 -22.621 -16.854  0.00  0.00    +0.079 C 
ATOM      5  C   UNL     1      35.768 -22.431 -16.339  0.00  0.00    +0.128 C 
ATOM      6  C   UNL     1      35.823 -21.644 -18.323  0.00  0.00    +0.183 C 
ATOM      7  C   UNL     1      36.048 -22.854 -15.029  0.00  0.00    +0.084 C 
ATOM      8  C   UNL     1      33.749 -23.632 -14.831  0.00  0.00    -0.005 C 
ATOM      9  C   UNL     1      33.452 -23.218 -16.133  0.00  0.00    +0.017 C 
ATOM     10  C   UNL     1      33.469 -22.069 -19.080  0.00  0.00    +0.120 C 
ENDROOT
BRANCH   3  11
ATOM     11  C   UNL     1      35.299 -23.913 -12.891  0.00  0.00    +0.120 C 
BRANCH  11  12
ATOM     12  N   UNL     1      36.731 -24.127 -12.663  0.00  0.00    -0.260 N 
ATOM     13  N   UNL     1      38.737 -23.892 -11.782  0.00  0.00    -0.394 NA
ATOM     14  C   UNL     1      37.510 -25.012 -13.343  0.00  0.00    +0.079 C 
ATOM     15  C   UNL     1      37.490 -23.480 -11.746  0.00  0.00    +0.164 C 
ATOM     16  C   UNL     1      38.769 -24.847 -12.772  0.00  0.00    +0.128 C 
ATOM     17  C   UNL     1      37.247 -25.916 -14.372  0.00  0.00    +0.017 C 
ATOM     18  C   UNL     1      36.944 -22.449 -10.840  0.00  0.00    +0.084 C 
ATOM     19  C   UNL     1      39.841 -25.624 -13.244  0.00  0.00    +0.086 C 
ATOM     20  C   UNL     1      38.326 -26.679 -14.830  0.00  0.00    -0.003 C 
ATOM     21  C   UNL     1      39.600 -26.538 -14.277  0.00  0.00    -0.019 C 
ENDBRANCH  11  12
ENDBRANCH   3  11
BRANCH   6  22
ATOM     22  C   UNL     1      36.242 -21.021 -19.595  0.00  0.00    +0.164 C 
BRANCH  22  23
ATOM     23  N   UNL     1      35.998 -19.587 -19.693  0.00  0.00    -0.326 N 
ATOM     24  H   UNL     1      36.139 -19.032 -18.891  0.00  0.00    +0.147 HD
BRANCH  23  25
ATOM     25  C   UNL     1      35.580 -18.969 -20.852  0.00  0.00    +0.045 C 
ATOM     26  C   UNL     1      35.748 -17.580 -21.040  0.00  0.00    +0.014 C 
ATOM     27  C   UNL     1      34.968 -19.703 -21.889  0.00  0.00    +0.014 C 
ATOM     28  C   UNL     1      35.322 -16.955 -22.212  0.00  0.00    +0.004 C 
ATOM     29  C   UNL     1      34.542 -19.078 -23.061  0.00  0.00    +0.004 C 
ATOM     30  C   UNL     1      34.719 -17.704 -23.222  0.00  0.00    +0.031 C 
BRANCH  30  33
ATOM     31  N   UNL     1      34.888 -15.891 -24.911  0.00  0.00    -0.343 N 
ATOM     32  N   UNL     1      33.266 -17.560 -25.131  0.00  0.00    -0.285 NA
ATOM     33  C   UNL     1      34.274 -17.052 -24.444  0.00  0.00    +0.117 C 
ATOM     34  H   UNL     1      34.570 -15.466 -25.741  0.00  0.00    +0.144 HD
ATOM     35  H   UNL     1      35.638 -15.496 -24.411  0.00  0.00    +0.144 HD
ATOM     36  H   UNL     1      32.964 -17.120 -25.959  0.00  0.00    +0.188 HD
ENDBRANCH  30  33
ENDBRANCH  23  25
ENDBRANCH  22  23
ENDBRANCH   6  22
TORSDOF 6
ENDMDL
MODEL 7
REMARK VINA RESULT:     -11.1      3.857      7.174
REMARK  Name = 445756
REMARK  6 active torsions:
REMARK  status: ('A' for Active; 'I' for Inactive)
REMARK    1  A    between atoms: C_3  and  C_11
REMARK    2  A    between atoms: C_6  and  C_22
REMARK    3  A    between atoms: C_11  and  N_12
REMARK    4  A    between atoms: C_22  and  N_23
REMARK    5  A    between atoms: N_23  and  C_25
REMARK    6  A    between atoms: C_30  and  C_33
REMARK                            x       y       z     vdW  Elec       q    Type
REMARK                         _______ _______ _______ _____ _____    ______ ____
ROOT
ATOM      1  N   UNL     1      34.350 -21.361 -19.144  0.00  0.00    -0.261 N 
ATOM      2  N   UNL     1      36.452 -20.685 -18.890  0.00  0.00    -0.392 NA
ATOM      3  C   UNL     1      35.498 -18.288 -21.594  0.00  0.00    -0.017 C 
ATOM      4  C   UNL     1      34.519 -20.342 -20.046  0.00  0.00    +0.079 C 
ATOM      5  C   UNL     1      35.839 -19.937 -19.868  0.00  0.00    +0.128 C 
ATOM      6  C   UNL     1      35.532 -21.528 -18.478  0.00  0.00    +0.183 C 
ATOM      7  C   UNL     1      36.346 -18.889 -20.654  0.00  0.00    +0.084 C 
ATOM      8  C   UNL     1      34.178 -18.716 -21.749  0.00  0.00    -0.005 C 
ATOM      9  C   UNL     1      33.657 -19.758 -20.975  0.00  0.00    +0.017 C 
ATOM     10  C   UNL     1      33.137 -22.119 -18.937  0.00  0.00    +0.120 C 
ENDROOT
BRANCH   3  11
ATOM     11  C   UNL     1      36.016 -17.170 -22.439  0.00  0.00    +0.120 C 
BRANCH  11  12
ATOM     12  N   UNL     1      35.110 -16.017 -22.430  0.00  0.00    -0.260 N 
ATOM     13  N   UNL     1      33.901 -14.351 -21.645  0.00  0.00    -0.394 NA
ATOM     14  C   UNL     1      34.534 -15.464 -23.531  0.00  0.00    +0.079 C 
ATOM     15  C   UNL     1      34.714 -15.335 -21.329  0.00  0.00    +0.164 C 
ATOM     16  C   UNL     1      33.777 -14.416 -23.014  0.00  0.00    +0.128 C 
ATOM     17  C   UNL     1      34.598 -15.765 -24.891  0.00  0.00    +0.017 C 
ATOM     18  C   UNL     1      35.163 -15.683 -19.966  0.00  0.00    +0.084 C 
ATOM     19  C   UNL     1      33.033 -13.611 -23.893  0.00  0.00    +0.086 C 
ATOM     20  C   UNL     1      33.850 -14.954 -25.751  0.00  0.00    -0.003 C 
ATOM     21  C   UNL     1      33.081 -13.895 -25.263  0.00  0.00    -0.019 C 
ENDBRANCH  11  12
ENDBRANCH   3  11
BRANCH   6  22
ATOM     22  C   UNL     1      35.704 -22.551 -17.426  0.00  0.00    +0.164 C 
BRANCH  22  23
ATOM     23  N   UNL     1      36.564 -22.161 -16.315  0.00  0.00    -0.326 N 
ATOM     24  H   UNL     1      37.179 -21.403 -16.444  0.00  0.00    +0.147 HD
BRANCH  23  25
ATOM     25  C   UNL     1      36.559 -22.802 -15.095  0.00  0.00    +0.045 C 
ATOM     26  C   UNL     1      35.412 -22.798 -14.273  0.00  0.00    +0.014 C 
ATOM     27  C   UNL     1      37.702 -23.481 -14.623  0.00  0.00    +0.014 C 
ATOM     28  C   UNL     1      35.408 -23.445 -13.037  0.00  0.00    +0.004 C 
ATOM     29  C   UNL     1      37.698 -24.128 -13.388  0.00  0.00    +0.004 C 
ATOM     30  C   UNL     1      36.552 -24.109 -12.595  0.00  0.00    +0.031 C 
BRANCH  30  33
ATOM     31  N   UNL     1      36.366 -24.075 -10.119  0.00  0.00    -0.343 N 
ATOM     32  N   UNL     1      36.724 -26.090 -11.245  0.00  0.00    -0.285 NA
ATOM     33  C   UNL     1      36.548 -24.782 -11.305  0.00  0.00    +0.117 C 
ATOM     34  H   UNL     1      36.367 -24.551  -9.256  0.00  0.00    +0.144 HD
ATOM     35  H   UNL     1      36.236 -23.099 -10.142  0.00  0.00    +0.144 HD
ATOM     36  H   UNL     1      36.722 -26.548 -10.373  0.00  0.00    +0.188 HD
ENDBRANCH  30  33
ENDBRANCH  23  25
ENDBRANCH  22  23
ENDBRANCH   6  22
TORSDOF 6
ENDMDL
MODEL 8
REMARK VINA RESULT:     -11.0      5.076     12.698
REMARK  Name = 445756
REMARK  6 active torsions:
REMARK  status: ('A' for Active; 'I' for Inactive)
REMARK    1  A    between atoms: C_3  and  C_11
REMARK    2  A    between atoms: C_6  and  C_22
REMARK    3  A    between atoms: C_11  and  N_12
REMARK    4  A    between atoms: C_22  and  N_23
REMARK    5  A    between atoms: N_23  and  C_25
REMARK    6  A    between atoms: C_30  and  C_33
REMARK                            x       y       z     vdW  Elec       q    Type
REMARK                         _______ _______ _______ _____ _____    ______ ____
ROOT
ATOM      1  N   UNL     1      34.377 -21.444 -18.846  0.00  0.00    -0.261 N 
ATOM      2  N   UNL     1      36.355 -21.763 -17.884  0.00  0.00    -0.392 NA
ATOM      3  C   UNL     1      34.307 -23.712 -15.439  0.00  0.00    -0.017 C 
ATOM      4  C   UNL     1      34.126 -22.216 -17.742  0.00  0.00    +0.079 C 
ATOM      5  C   UNL     1      35.376 -22.402 -17.158  0.00  0.00    +0.128 C 
ATOM      6  C   UNL     1      35.722 -21.199 -18.888  0.00  0.00    +0.183 C 
ATOM      7  C   UNL     1      35.477 -23.165 -15.982  0.00  0.00    +0.084 C 
ATOM      8  C   UNL     1      33.067 -23.509 -16.048  0.00  0.00    -0.005 C 
ATOM      9  C   UNL     1      32.948 -22.753 -17.219  0.00  0.00    +0.017 C 
ATOM     10  C   UNL     1      33.394 -20.974 -19.796  0.00  0.00    +0.120 C 
ENDROOT
BRANCH   3  11
ATOM     11  C   UNL     1      34.390 -24.528 -14.190  0.00  0.00    +0.120 C 
BRANCH  11  12
ATOM     12  N   UNL     1      35.779 -24.836 -13.834  0.00  0.00    -0.260 N 
ATOM     13  N   UNL     1      37.736 -25.849 -13.852  0.00  0.00    -0.394 NA
ATOM     14  C   UNL     1      36.515 -24.174 -12.903  0.00  0.00    +0.079 C 
ATOM     15  C   UNL     1      36.531 -25.823 -14.377  0.00  0.00    +0.164 C 
ATOM     16  C   UNL     1      37.744 -24.827 -12.930  0.00  0.00    +0.128 C 
ATOM     17  C   UNL     1      36.239 -23.096 -12.061  0.00  0.00    +0.017 C 
ATOM     18  C   UNL     1      36.024 -26.732 -15.425  0.00  0.00    +0.084 C 
ATOM     19  C   UNL     1      38.770 -24.392 -12.073  0.00  0.00    +0.086 C 
ATOM     20  C   UNL     1      37.271 -22.677 -11.215  0.00  0.00    -0.003 C 
ATOM     21  C   UNL     1      38.515 -23.312 -11.219  0.00  0.00    -0.019 C 
ENDBRANCH  11  12
ENDBRANCH   3  11
BRANCH   6  22
ATOM     22  C   UNL     1      36.341 -20.390 -19.957  0.00  0.00    +0.164 C 
BRANCH  22  23
ATOM     23  N   UNL     1      36.100 -18.954 -19.867  0.00  0.00    -0.326 N 
ATOM     24  H   UNL     1      36.255 -18.508 -19.003  0.00  0.00    +0.147 HD
BRANCH  23  25
ATOM     25  C   UNL     1      35.665 -18.193 -20.930  0.00  0.00    +0.045 C 
ATOM     26  C   UNL     1      35.358 -18.784 -22.174  0.00  0.00    +0.014 C 
ATOM     27  C   UNL     1      35.515 -16.795 -20.813  0.00  0.00    +0.014 C 
ATOM     28  C   UNL     1      34.920 -18.013 -23.250  0.00  0.00    +0.004 C 
ATOM     29  C   UNL     1      35.077 -16.024 -21.889  0.00  0.00    +0.004 C 
ATOM     30  C   UNL     1      34.780 -16.633 -23.108  0.00  0.00    +0.031 C 
BRANCH  30  33
ATOM     31  N   UNL     1      33.521 -14.706 -24.040  0.00  0.00    -0.343 N 
ATOM     32  N   UNL     1      34.671 -16.161 -25.462  0.00  0.00    -0.285 NA
ATOM     33  C   UNL     1      34.325 -15.828 -24.231  0.00  0.00    +0.117 C 
ATOM     34  H   UNL     1      33.224 -14.176 -24.815  0.00  0.00    +0.144 HD
ATOM     35  H   UNL     1      33.250 -14.444 -23.130  0.00  0.00    +0.144 HD
ATOM     36  H   UNL     1      34.364 -15.617 -26.224  0.00  0.00    +0.188 HD
ENDBRANCH  30  33
ENDBRANCH  23  25
ENDBRANCH  22  23
ENDBRANCH   6  22
TORSDOF 6
ENDMDL
MODEL 9
REMARK VINA RESULT:     -10.9      3.614      6.918
REMARK  Name = 445756
REMARK  6 active torsions:
REMARK  status: ('A' for Active; 'I' for Inactive)
REMARK    1  A    between atoms: C_3  and  C_11
REMARK    2  A    between atoms: C_6  and  C_22
REMARK    3  A    between atoms: C_11  and  N_12
REMARK    4  A    between atoms: C_22  and  N_23
REMARK    5  A    between atoms: N_23  and  C_25
REMARK    6  A    between atoms: C_30  and  C_33
REMARK                            x       y       z     vdW  Elec       q    Type
REMARK                         _______ _______ _______ _____ _____    ______ ____
ROOT
ATOM      1  N   UNL     1      35.568 -20.783 -19.275  0.00  0.00    -0.261 N 
ATOM      2  N   UNL     1      33.607 -20.687 -20.318  0.00  0.00    -0.392 NA
ATOM      3  C   UNL     1      35.425 -18.240 -22.481  0.00  0.00    -0.017 C 
ATOM      4  C   UNL     1      35.741 -19.887 -20.299  0.00  0.00    +0.079 C 
ATOM      5  C   UNL     1      34.503 -19.845 -20.935  0.00  0.00    +0.128 C 
ATOM      6  C   UNL     1      34.278 -21.232 -19.328  0.00  0.00    +0.183 C 
ATOM      7  C   UNL     1      34.334 -19.007 -22.050  0.00  0.00    +0.084 C 
ATOM      8  C   UNL     1      36.654 -18.305 -21.822  0.00  0.00    -0.005 C 
ATOM      9  C   UNL     1      36.841 -19.134 -20.712  0.00  0.00    +0.017 C 
ATOM     10  C   UNL     1      36.572 -21.179 -18.314  0.00  0.00    +0.120 C 
ENDROOT
BRANCH   3  11
ATOM     11  C   UNL     1      35.268 -17.343 -23.665  0.00  0.00    +0.120 C 
BRANCH  11  12
ATOM     12  N   UNL     1      34.592 -16.091 -23.312  0.00  0.00    -0.260 N 
ATOM     13  N   UNL     1      33.411 -14.246 -23.554  0.00  0.00    -0.394 NA
ATOM     14  C   UNL     1      34.557 -15.541 -22.070  0.00  0.00    +0.079 C 
ATOM     15  C   UNL     1      33.904 -15.298 -24.169  0.00  0.00    +0.164 C 
ATOM     16  C   UNL     1      33.809 -14.380 -22.244  0.00  0.00    +0.128 C 
ATOM     17  C   UNL     1      35.091 -15.932 -20.841  0.00  0.00    +0.017 C 
ATOM     18  C   UNL     1      33.748 -15.614 -25.604  0.00  0.00    +0.084 C 
ATOM     19  C   UNL     1      33.569 -13.548 -21.137  0.00  0.00    +0.086 C 
ATOM     20  C   UNL     1      34.843 -15.090 -19.751  0.00  0.00    -0.003 C 
ATOM     21  C   UNL     1      34.096 -13.919 -19.894  0.00  0.00    -0.019 C 
ENDBRANCH  11  12
ENDBRANCH   3  11
BRANCH   6  22
ATOM     22  C   UNL     1      33.748 -22.216 -18.361  0.00  0.00    +0.164 C 
BRANCH  22  23
ATOM     23  N   UNL     1      32.422 -21.916 -17.835  0.00  0.00    -0.326 N 
ATOM     24  H   UNL     1      31.907 -21.187 -18.251  0.00  0.00    +0.147 HD
BRANCH  23  25
ATOM     25  C   UNL     1      31.853 -22.602 -16.783  0.00  0.00    +0.045 C 
ATOM     26  C   UNL     1      32.652 -23.267 -15.828  0.00  0.00    +0.014 C 
ATOM     27  C   UNL     1      30.453 -22.667 -16.626  0.00  0.00    +0.014 C 
ATOM     28  C   UNL     1      32.077 -23.963 -14.766  0.00  0.00    +0.004 C 
ATOM     29  C   UNL     1      29.877 -23.363 -15.564  0.00  0.00    +0.004 C 
ATOM     30  C   UNL     1      30.689 -24.011 -14.634  0.00  0.00    +0.031 C 
BRANCH  30  33
ATOM     31  N   UNL     1      28.894 -25.438 -13.681  0.00  0.00    -0.343 N 
ATOM     32  N   UNL     1      30.678 -24.739 -12.344  0.00  0.00    -0.285 NA
ATOM     33  C   UNL     1      30.089 -24.738 -13.527  0.00  0.00    +0.117 C 
ATOM     34  H   UNL     1      28.505 -25.924 -12.918  0.00  0.00    +0.144 HD
ATOM     35  H   UNL     1      28.439 -25.448 -14.554  0.00  0.00    +0.144 HD
ATOM     36  H   UNL     1      30.273 -25.231 -11.592  0.00  0.00    +0.188 HD
ENDBRANCH  30  33
ENDBRANCH  23  25
ENDBRANCH  22  23
ENDBRANCH   6  22
TORSDOF 6
ENDMDL
