MODEL 1
REMARK VINA RESULT:     -12.1      0.000      0.000
REMARK  Name = 97226
REMARK  3 active torsions:
REMARK  status: ('A' for Active; 'I' for Inactive)
REMARK    1  A    between atoms: C_6  and  O_24
REMARK    2  A    between atoms: C_6  and  C_28
REMARK    3  A    between atoms: C_22  and  O_26
REMARK                            x       y       z     vdW  Elec       q    Type
REMARK                         _______ _______ _______ _____ _____    ______ ____
ROOT
ATOM      1  O   UNL     1      35.693 -25.309 -13.547  0.00  0.00    -0.442 OA
ATOM      2  O   UNL     1      32.578 -23.871 -16.026  0.00  0.00    -0.270 OA
ATOM      3  O   UNL     1      37.915 -25.594 -13.403  0.00  0.00    -0.247 OA
ATOM      4  N   UNL     1      34.062 -22.564 -17.223  0.00  0.00    -0.249 N 
ATOM      5  N   UNL     1      36.372 -20.495 -19.047  0.00  0.00    -0.405 NA
ATOM      6  C   UNL     1      37.157 -23.556 -14.454  0.00  0.00    +0.196 C 
ATOM      7  C   UNL     1      36.058 -23.241 -15.431  0.00  0.00    +0.017 C 
ATOM      8  C   UNL     1      35.335 -22.042 -17.385  0.00  0.00    +0.084 C 
ATOM      9  C   UNL     1      34.827 -23.749 -15.243  0.00  0.00    +0.074 C 
ATOM     10  C   UNL     1      33.151 -22.079 -18.281  0.00  0.00    +0.128 C 
ATOM     11  C   UNL     1      36.327 -22.339 -16.541  0.00  0.00    +0.016 C 
ATOM     12  C   UNL     1      34.048 -21.201 -19.091  0.00  0.00    +0.029 C 
ATOM     13  C   UNL     1      35.330 -21.182 -18.560  0.00  0.00    +0.142 C 
ATOM     14  C   UNL     1      33.706 -23.413 -16.192  0.00  0.00    +0.252 C 
ATOM     15  C   UNL     1      34.530 -24.645 -14.089  0.00  0.00    +0.239 C 
ATOM     16  C   UNL     1      36.965 -24.907 -13.775  0.00  0.00    +0.346 C 
ATOM     17  C   UNL     1      33.795 -20.456 -20.218  0.00  0.00    +0.002 C 
ATOM     18  C   UNL     1      34.849 -19.714 -20.774  0.00  0.00    +0.029 C 
ATOM     19  C   UNL     1      36.130 -19.762 -20.152  0.00  0.00    +0.114 C 
ATOM     20  C   UNL     1      34.654 -18.933 -21.924  0.00  0.00    +0.038 C 
ATOM     21  C   UNL     1      37.159 -19.017 -20.722  0.00  0.00    +0.088 C 
ATOM     22  C   UNL     1      35.707 -18.200 -22.467  0.00  0.00    +0.130 C 
ATOM     23  C   UNL     1      36.958 -18.243 -21.867  0.00  0.00    +0.018 C 
ENDROOT
BRANCH   6  24
ATOM     24  O   UNL     1      38.400 -23.680 -15.151  0.00  0.00    -0.373 OA
ATOM     25  H   UNL     1      38.879 -24.456 -14.821  0.00  0.00    +0.211 HD
ENDBRANCH   6  24
BRANCH  22  26
ATOM     26  O   UNL     1      35.510 -17.447 -23.583  0.00  0.00    -0.506 OA
ATOM     27  H   UNL     1      36.123 -16.775 -23.809  0.00  0.00    +0.292 HD
ENDBRANCH  22  26
BRANCH   6  28
ATOM     28  C   UNL     1      37.293 -22.469 -13.386  0.00  0.00    +0.042 C 
ATOM     29  C   UNL     1      37.229 -23.058 -11.991  0.00  0.00    +0.003 C 
ENDBRANCH   6  28
TORSDOF 3
ENDMDL
MODEL 2
REMARK VINA RESULT:      -9.9      2.123      4.129
REMARK  Name = 97226
REMARK  3 active torsions:
REMARK  status: ('A' for Active; 'I' for Inactive)
REMARK    1  A    between atoms: C_6  and  O_24
REMARK    2  A    between atoms: C_6  and  C_28
REMARK    3  A    between atoms: C_22  and  O_26
REMARK                            x       y       z     vdW  Elec       q    Type
REMARK                         _______ _______ _______ _____ _____    ______ ____
ROOT
ATOM      1  O   UNL     1      32.559 -24.630 -12.386  0.00  0.00    -0.442 OA
ATOM      2  O   UNL     1      36.209 -24.034 -14.443  0.00  0.00    -0.270 OA
ATOM      3  O   UNL     1      30.454 -23.880 -12.165  0.00  0.00    -0.247 OA
ATOM      4  N   UNL     1      35.127 -22.900 -16.144  0.00  0.00    -0.249 N 
ATOM      5  N   UNL     1      33.426 -21.182 -18.808  0.00  0.00    -0.405 NA
ATOM      6  C   UNL     1      31.359 -23.905 -14.404  0.00  0.00    +0.196 C 
ATOM      7  C   UNL     1      32.698 -23.541 -14.985  0.00  0.00    +0.017 C 
ATOM      8  C   UNL     1      33.950 -22.486 -16.744  0.00  0.00    +0.084 C 
ATOM      9  C   UNL     1      33.826 -23.969 -14.390  0.00  0.00    +0.074 C 
ATOM     10  C   UNL     1      36.304 -22.457 -16.919  0.00  0.00    +0.128 C 
ATOM     11  C   UNL     1      32.756 -22.777 -16.222  0.00  0.00    +0.016 C 
ATOM     12  C   UNL     1      35.673 -21.725 -18.059  0.00  0.00    +0.029 C 
ATOM     13  C   UNL     1      34.289 -21.746 -17.952  0.00  0.00    +0.142 C 
ATOM     14  C   UNL     1      35.173 -23.645 -14.979  0.00  0.00    +0.252 C 
ATOM     15  C   UNL     1      33.778 -24.785 -13.143  0.00  0.00    +0.239 C 
ATOM     16  C   UNL     1      31.415 -24.117 -12.896  0.00  0.00    +0.346 C 
ATOM     17  C   UNL     1      36.237 -21.076 -19.131  0.00  0.00    +0.002 C 
ATOM     18  C   UNL     1      35.382 -20.467 -20.063  0.00  0.00    +0.029 C 
ATOM     19  C   UNL     1      33.975 -20.545 -19.862  0.00  0.00    +0.114 C 
ATOM     20  C   UNL     1      35.897 -19.789 -21.179  0.00  0.00    +0.038 C 
ATOM     21  C   UNL     1      33.147 -19.933 -20.800  0.00  0.00    +0.088 C 
ATOM     22  C   UNL     1      35.041 -19.188 -22.098  0.00  0.00    +0.130 C 
ATOM     23  C   UNL     1      33.667 -19.260 -21.908  0.00  0.00    +0.018 C 
ENDROOT
BRANCH   6  24
ATOM     24  O   UNL     1      30.447 -22.818 -14.579  0.00  0.00    -0.373 OA
ATOM     25  H   UNL     1      30.423 -22.282 -13.770  0.00  0.00    +0.211 HD
ENDBRANCH   6  24
BRANCH  22  26
ATOM     26  O   UNL     1      35.548 -18.532 -23.176  0.00  0.00    -0.506 OA
ATOM     27  H   UNL     1      35.711 -18.997 -23.973  0.00  0.00    +0.292 HD
ENDBRANCH  22  26
BRANCH   6  28
ATOM     28  C   UNL     1      30.775 -25.154 -15.067  0.00  0.00    +0.042 C 
ATOM     29  C   UNL     1      29.303 -24.975 -15.377  0.00  0.00    +0.003 C 
ENDBRANCH   6  28
TORSDOF 3
ENDMDL
MODEL 3
REMARK VINA RESULT:      -9.4      4.028      6.277
REMARK  Name = 97226
REMARK  3 active torsions:
REMARK  status: ('A' for Active; 'I' for Inactive)
REMARK    1  A    between atoms: C_6  and  O_24
REMARK    2  A    between atoms: C_6  and  C_28
REMARK    3  A    between atoms: C_22  and  O_26
REMARK                            x       y       z     vdW  Elec       q    Type
REMARK                         _______ _______ _______ _____ _____    ______ ____
ROOT
ATOM      1  O   UNL     1      39.049 -24.140 -12.656  0.00  0.00    -0.442 OA
ATOM      2  O   UNL     1      37.314 -22.574 -16.184  0.00  0.00    -0.270 OA
ATOM      3  O   UNL     1      38.631 -24.718 -10.527  0.00  0.00    -0.247 OA
ATOM      4  N   UNL     1      35.196 -23.161 -15.467  0.00  0.00    -0.249 N 
ATOM      5  N   UNL     1      31.910 -24.125 -14.364  0.00  0.00    -0.405 NA
ATOM      6  C   UNL     1      36.903 -25.219 -12.138  0.00  0.00    +0.196 C 
ATOM      7  C   UNL     1      36.323 -24.467 -13.304  0.00  0.00    +0.017 C 
ATOM      8  C   UNL     1      34.379 -23.810 -14.555  0.00  0.00    +0.084 C 
ATOM      9  C   UNL     1      37.139 -23.858 -14.182  0.00  0.00    +0.074 C 
ATOM     10  C   UNL     1      34.399 -22.532 -16.540  0.00  0.00    +0.128 C 
ATOM     11  C   UNL     1      34.881 -24.456 -13.500  0.00  0.00    +0.016 C 
ATOM     12  C   UNL     1      33.003 -22.892 -16.149  0.00  0.00    +0.029 C 
ATOM     13  C   UNL     1      32.997 -23.644 -14.982  0.00  0.00    +0.142 C 
ATOM     14  C   UNL     1      36.576 -23.132 -15.375  0.00  0.00    +0.252 C 
ATOM     15  C   UNL     1      38.620 -23.893 -14.012  0.00  0.00    +0.239 C 
ATOM     16  C   UNL     1      38.251 -24.662 -11.695  0.00  0.00    +0.346 C 
ATOM     17  C   UNL     1      31.800 -22.600 -16.747  0.00  0.00    +0.002 C 
ATOM     18  C   UNL     1      30.626 -23.079 -16.144  0.00  0.00    +0.029 C 
ATOM     19  C   UNL     1      30.727 -23.842 -14.946  0.00  0.00    +0.114 C 
ATOM     20  C   UNL     1      29.367 -22.816 -16.706  0.00  0.00    +0.038 C 
ATOM     21  C   UNL     1      29.549 -24.306 -14.367  0.00  0.00    +0.088 C 
ATOM     22  C   UNL     1      28.209 -23.295 -16.100  0.00  0.00    +0.130 C 
ATOM     23  C   UNL     1      28.300 -24.040 -14.932  0.00  0.00    +0.018 C 
ENDROOT
BRANCH   6  24
ATOM     24  O   UNL     1      36.058 -25.063 -10.995  0.00  0.00    -0.373 OA
ATOM     25  H   UNL     1      35.176 -24.778 -11.281  0.00  0.00    +0.211 HD
ENDBRANCH   6  24
BRANCH  22  26
ATOM     26  O   UNL     1      26.992 -23.034 -16.651  0.00  0.00    -0.506 OA
ATOM     27  H   UNL     1      26.783 -23.363 -17.502  0.00  0.00    +0.292 HD
ENDBRANCH  22  26
BRANCH   6  28
ATOM     28  C   UNL     1      37.051 -26.711 -12.445  0.00  0.00    +0.042 C 
ATOM     29  C   UNL     1      37.219 -26.953 -13.931  0.00  0.00    +0.003 C 
ENDBRANCH   6  28
TORSDOF 3
ENDMDL
