MODEL 1
REMARK VINA RESULT:     -11.4      0.000      0.000
REMARK  Name = 4823
REMARK  3 active torsions:
REMARK  status: ('A' for Active; 'I' for Inactive)
REMARK    1  A    between atoms: C_3  and  C_16
REMARK    2  A    between atoms: C_9  and  C_21
REMARK    3  A    between atoms: C_26  and  O_27
REMARK                            x       y       z     vdW  Elec       q    Type
REMARK                         _______ _______ _______ _____ _____    ______ ____
ROOT
ATOM      1  N   UNL     1      35.662 -20.155 -19.815  0.00  0.00    -0.315 N 
ATOM      2  N   UNL     1      33.498 -20.476 -20.201  0.00  0.00    -0.315 N 
ATOM      3  C   UNL     1      35.169 -22.557 -17.028  0.00  0.00    +0.016 C 
ATOM      4  C   UNL     1      35.250 -21.048 -18.861  0.00  0.00    +0.059 C 
ATOM      5  C   UNL     1      35.925 -21.691 -17.823  0.00  0.00    +0.017 C 
ATOM      6  C   UNL     1      33.895 -21.233 -19.123  0.00  0.00    +0.059 C 
ATOM      7  C   UNL     1      33.811 -22.765 -17.262  0.00  0.00    +0.003 C 
ATOM      8  C   UNL     1      33.155 -22.108 -18.310  0.00  0.00    +0.016 C 
ATOM      9  C   UNL     1      34.581 -19.843 -20.591  0.00  0.00    +0.168 C 
ATOM     10  H   UNL     1      36.575 -19.800 -19.922  0.00  0.00    +0.149 HD
ATOM     11  H   UNL     1      32.597 -20.421 -20.594  0.00  0.00    +0.149 HD
ENDROOT
BRANCH   3  16
ATOM     12  O   UNL     1      37.842 -25.470 -13.183  0.00  0.00    -0.273 OA
ATOM     13  N   UNL     1      37.105 -23.077 -15.692  0.00  0.00    -0.184 NA
ATOM     14  N   UNL     1      37.726 -23.757 -14.702  0.00  0.00    -0.206 N 
ATOM     15  C   UNL     1      35.017 -24.197 -15.000  0.00  0.00    +0.051 C 
ATOM     16  C   UNL     1      35.838 -23.279 -15.896  0.00  0.00    +0.076 C 
ATOM     17  C   UNL     1      35.899 -25.358 -14.569  0.00  0.00    +0.093 C 
ATOM     18  C   UNL     1      34.481 -23.419 -13.797  0.00  0.00    +0.007 C 
ATOM     19  C   UNL     1      37.228 -24.868 -14.063  0.00  0.00    +0.241 C 
ATOM     20  H   UNL     1      38.610 -23.430 -14.415  0.00  0.00    +0.177 HD
ENDBRANCH   3  16
BRANCH   9  21
ATOM     21  C   UNL     1      34.674 -18.921 -21.697  0.00  0.00    +0.015 C 
ATOM     22  C   UNL     1      34.131 -19.262 -22.935  0.00  0.00    +0.002 C 
ATOM     23  C   UNL     1      35.308 -17.691 -21.529  0.00  0.00    +0.002 C 
ATOM     24  C   UNL     1      34.220 -18.371 -24.005  0.00  0.00    +0.037 C 
ATOM     25  C   UNL     1      35.398 -16.800 -22.598  0.00  0.00    +0.037 C 
ATOM     26  C   UNL     1      34.853 -17.141 -23.836  0.00  0.00    +0.139 C 
BRANCH  26  27
ATOM     27  O   UNL     1      34.941 -16.272 -24.880  0.00  0.00    -0.471 OA
ATOM     28  C   UNL     1      33.830 -15.402 -25.097  0.00  0.00    +0.252 C 
ENDBRANCH  26  27
ENDBRANCH   9  21
TORSDOF 3
ENDMDL
MODEL 2
REMARK VINA RESULT:     -11.3      1.593      2.180
REMARK  Name = 4823
REMARK  3 active torsions:
REMARK  status: ('A' for Active; 'I' for Inactive)
REMARK    1  A    between atoms: C_3  and  C_16
REMARK    2  A    between atoms: C_9  and  C_21
REMARK    3  A    between atoms: C_26  and  O_27
REMARK                            x       y       z     vdW  Elec       q    Type
REMARK                         _______ _______ _______ _____ _____    ______ ____
ROOT
ATOM      1  N   UNL     1      35.804 -21.152 -18.326  0.00  0.00    -0.315 N 
ATOM      2  N   UNL     1      33.728 -21.523 -19.026  0.00  0.00    -0.315 N 
ATOM      3  C   UNL     1      34.950 -23.544 -15.620  0.00  0.00    +0.016 C 
ATOM      4  C   UNL     1      35.273 -22.047 -17.435  0.00  0.00    +0.059 C 
ATOM      5  C   UNL     1      35.797 -22.668 -16.301  0.00  0.00    +0.017 C 
ATOM      6  C   UNL     1      33.976 -22.264 -17.894  0.00  0.00    +0.059 C 
ATOM      7  C   UNL     1      33.646 -23.784 -16.051  0.00  0.00    +0.003 C 
ATOM      8  C   UNL     1      33.140 -23.149 -17.192  0.00  0.00    +0.016 C 
ATOM      9  C   UNL     1      34.844 -20.870 -19.257  0.00  0.00    +0.168 C 
ATOM     10  H   UNL     1      36.715 -20.778 -18.299  0.00  0.00    +0.149 HD
ATOM     11  H   UNL     1      32.895 -21.491 -19.550  0.00  0.00    +0.149 HD
ENDROOT
BRANCH   3  16
ATOM     12  O   UNL     1      36.891 -25.702 -10.929  0.00  0.00    -0.273 OA
ATOM     13  N   UNL     1      34.733 -24.212 -13.315  0.00  0.00    -0.184 NA
ATOM     14  N   UNL     1      35.203 -24.802 -12.192  0.00  0.00    -0.206 N 
ATOM     15  C   UNL     1      36.779 -24.998 -14.450  0.00  0.00    +0.051 C 
ATOM     16  C   UNL     1      35.457 -24.244 -14.393  0.00  0.00    +0.076 C 
ATOM     17  C   UNL     1      37.460 -24.872 -13.096  0.00  0.00    +0.093 C 
ATOM     18  C   UNL     1      36.537 -26.461 -14.825  0.00  0.00    +0.007 C 
ATOM     19  C   UNL     1      36.505 -25.190 -11.980  0.00  0.00    +0.241 C 
ATOM     20  H   UNL     1      34.558 -24.968 -11.466  0.00  0.00    +0.177 HD
ENDBRANCH   3  16
BRANCH   9  21
ATOM     21  C   UNL     1      35.081 -19.954 -20.347  0.00  0.00    +0.015 C 
ATOM     22  C   UNL     1      34.085 -19.726 -21.295  0.00  0.00    +0.002 C 
ATOM     23  C   UNL     1      36.308 -19.298 -20.452  0.00  0.00    +0.002 C 
ATOM     24  C   UNL     1      34.315 -18.840 -22.349  0.00  0.00    +0.037 C 
ATOM     25  C   UNL     1      36.538 -18.413 -21.505  0.00  0.00    +0.037 C 
ATOM     26  C   UNL     1      35.541 -18.184 -22.454  0.00  0.00    +0.139 C 
BRANCH  26  27
ATOM     27  O   UNL     1      35.765 -17.321 -23.481  0.00  0.00    -0.471 OA
ATOM     28  C   UNL     1      34.653 -16.551 -23.938  0.00  0.00    +0.252 C 
ENDBRANCH  26  27
ENDBRANCH   9  21
TORSDOF 3
ENDMDL
MODEL 3
REMARK VINA RESULT:     -11.2      2.819      9.405
REMARK  Name = 4823
REMARK  3 active torsions:
REMARK  status: ('A' for Active; 'I' for Inactive)
REMARK    1  A    between atoms: C_3  and  C_16
REMARK    2  A    between atoms: C_9  and  C_21
REMARK    3  A    between atoms: C_26  and  O_27
REMARK                            x       y       z     vdW  Elec       q    Type
REMARK                         _______ _______ _______ _____ _____    ______ ____
ROOT
ATOM      1  N   UNL     1      32.651 -21.396 -18.555  0.00  0.00    -0.315 N 
ATOM      2  N   UNL     1      34.554 -22.164 -17.701  0.00  0.00    -0.315 N 
ATOM      3  C   UNL     1      34.841 -19.752 -21.060  0.00  0.00    +0.016 C 
ATOM      4  C   UNL     1      33.641 -20.891 -19.357  0.00  0.00    +0.059 C 
ATOM      5  C   UNL     1      33.610 -20.072 -20.485  0.00  0.00    +0.017 C 
ATOM      6  C   UNL     1      34.820 -21.386 -18.804  0.00  0.00    +0.059 C 
ATOM      7  C   UNL     1      36.040 -20.228 -20.533  0.00  0.00    +0.003 C 
ATOM      8  C   UNL     1      36.048 -21.051 -19.399  0.00  0.00    +0.016 C 
ATOM      9  C   UNL     1      33.246 -22.148 -17.581  0.00  0.00    +0.168 C 
ATOM     10  H   UNL     1      31.684 -21.242 -18.661  0.00  0.00    +0.149 HD
ATOM     11  H   UNL     1      35.203 -22.631 -17.127  0.00  0.00    +0.149 HD
ENDROOT
BRANCH   3  16
ATOM     12  O   UNL     1      34.695 -16.227 -25.301  0.00  0.00    -0.273 OA
ATOM     13  N   UNL     1      35.567 -17.776 -22.233  0.00  0.00    -0.184 NA
ATOM     14  N   UNL     1      35.566 -16.957 -23.309  0.00  0.00    -0.206 N 
ATOM     15  C   UNL     1      34.128 -19.303 -23.534  0.00  0.00    +0.051 C 
ATOM     16  C   UNL     1      34.873 -18.874 -22.277  0.00  0.00    +0.076 C 
ATOM     17  C   UNL     1      33.598 -18.056 -24.224  0.00  0.00    +0.093 C 
ATOM     18  C   UNL     1      35.055 -20.104 -24.450  0.00  0.00    +0.007 C 
ATOM     19  C   UNL     1      34.672 -17.012 -24.353  0.00  0.00    +0.241 C 
ATOM     20  H   UNL     1      36.263 -16.263 -23.348  0.00  0.00    +0.177 HD
ENDBRANCH   3  16
BRANCH   9  21
ATOM     21  C   UNL     1      32.479 -22.827 -16.564  0.00  0.00    +0.015 C 
ATOM     22  C   UNL     1      33.131 -23.522 -15.547  0.00  0.00    +0.002 C 
ATOM     23  C   UNL     1      31.085 -22.788 -16.600  0.00  0.00    +0.002 C 
ATOM     24  C   UNL     1      32.390 -24.178 -14.563  0.00  0.00    +0.037 C 
ATOM     25  C   UNL     1      30.343 -23.444 -15.617  0.00  0.00    +0.037 C 
ATOM     26  C   UNL     1      30.996 -24.139 -14.599  0.00  0.00    +0.139 C 
BRANCH  26  27
ATOM     27  O   UNL     1      30.273 -24.779 -13.640  0.00  0.00    -0.471 OA
ATOM     28  C   UNL     1      29.038 -25.369 -14.043  0.00  0.00    +0.252 C 
ENDBRANCH  26  27
ENDBRANCH   9  21
TORSDOF 3
ENDMDL
MODEL 4
REMARK VINA RESULT:     -11.1      1.688      9.407
REMARK  Name = 4823
REMARK  3 active torsions:
REMARK  status: ('A' for Active; 'I' for Inactive)
REMARK    1  A    between atoms: C_3  and  C_16
REMARK    2  A    between atoms: C_9  and  C_21
REMARK    3  A    between atoms: C_26  and  O_27
REMARK                            x       y       z     vdW  Elec       q    Type
REMARK                         _______ _______ _______ _____ _____    ______ ____
ROOT
ATOM      1  N   UNL     1      36.087 -21.310 -18.296  0.00  0.00    -0.315 N 
ATOM      2  N   UNL     1      34.038 -21.992 -17.774  0.00  0.00    -0.315 N 
ATOM      3  C   UNL     1      34.421 -19.606 -21.142  0.00  0.00    +0.016 C 
ATOM      4  C   UNL     1      35.268 -20.775 -19.257  0.00  0.00    +0.059 C 
ATOM      5  C   UNL     1      35.523 -19.969 -20.366  0.00  0.00    +0.017 C 
ATOM      6  C   UNL     1      33.993 -21.215 -18.909  0.00  0.00    +0.059 C 
ATOM      7  C   UNL     1      33.131 -20.028 -20.823  0.00  0.00    +0.003 C 
ATOM      8  C   UNL     1      32.898 -20.838 -19.704  0.00  0.00    +0.016 C 
ATOM      9  C   UNL     1      35.306 -22.028 -17.434  0.00  0.00    +0.168 C 
ATOM     10  H   UNL     1      37.064 -21.197 -18.239  0.00  0.00    +0.149 HD
ATOM     11  H   UNL     1      33.282 -22.427 -17.316  0.00  0.00    +0.149 HD
ENDROOT
BRANCH   3  16
ATOM     12  O   UNL     1      34.916 -16.108 -25.378  0.00  0.00    -0.273 OA
ATOM     13  N   UNL     1      35.357 -17.669 -22.225  0.00  0.00    -0.184 NA
ATOM     14  N   UNL     1      35.515 -16.857 -23.296  0.00  0.00    -0.206 N 
ATOM     15  C   UNL     1      34.023 -19.147 -23.684  0.00  0.00    +0.051 C 
ATOM     16  C   UNL     1      34.630 -18.739 -22.348  0.00  0.00    +0.076 C 
ATOM     17  C   UNL     1      33.627 -17.886 -24.435  0.00  0.00    +0.093 C 
ATOM     18  C   UNL     1      35.019 -19.990 -24.482  0.00  0.00    +0.007 C 
ATOM     19  C   UNL     1      34.750 -16.885 -24.438  0.00  0.00    +0.241 C 
ATOM     20  H   UNL     1      36.239 -16.191 -23.254  0.00  0.00    +0.177 HD
ENDBRANCH   3  16
BRANCH   9  21
ATOM     21  C   UNL     1      35.862 -22.724 -16.298  0.00  0.00    +0.015 C 
ATOM     22  C   UNL     1      35.062 -23.587 -15.551  0.00  0.00    +0.002 C 
ATOM     23  C   UNL     1      37.198 -22.530 -15.947  0.00  0.00    +0.002 C 
ATOM     24  C   UNL     1      35.599 -24.260 -14.453  0.00  0.00    +0.037 C 
ATOM     25  C   UNL     1      37.735 -23.202 -14.850  0.00  0.00    +0.037 C 
ATOM     26  C   UNL     1      36.935 -24.067 -14.103  0.00  0.00    +0.139 C 
BRANCH  26  27
ATOM     27  O   UNL     1      37.458 -24.723 -13.031  0.00  0.00    -0.471 OA
ATOM     28  C   UNL     1      37.318 -26.144 -13.006  0.00  0.00    +0.252 C 
ENDBRANCH  26  27
ENDBRANCH   9  21
TORSDOF 3
ENDMDL
MODEL 5
REMARK VINA RESULT:     -11.0      2.272      3.039
REMARK  Name = 4823
REMARK  3 active torsions:
REMARK  status: ('A' for Active; 'I' for Inactive)
REMARK    1  A    between atoms: C_3  and  C_16
REMARK    2  A    between atoms: C_9  and  C_21
REMARK    3  A    between atoms: C_26  and  O_27
REMARK                            x       y       z     vdW  Elec       q    Type
REMARK                         _______ _______ _______ _____ _____    ______ ____
ROOT
ATOM      1  N   UNL     1      33.576 -20.046 -20.401  0.00  0.00    -0.315 N 
ATOM      2  N   UNL     1      35.796 -20.074 -20.485  0.00  0.00    -0.315 N 
ATOM      3  C   UNL     1      34.003 -22.254 -17.448  0.00  0.00    +0.016 C 
ATOM      4  C   UNL     1      33.970 -20.839 -19.355  0.00  0.00    +0.059 C 
ATOM      5  C   UNL     1      33.254 -21.533 -18.380  0.00  0.00    +0.017 C 
ATOM      6  C   UNL     1      35.361 -20.840 -19.428  0.00  0.00    +0.059 C 
ATOM      7  C   UNL     1      35.396 -22.278 -17.492  0.00  0.00    +0.003 C 
ATOM      8  C   UNL     1      36.095 -21.573 -18.480  0.00  0.00    +0.016 C 
ATOM      9  C   UNL     1      34.701 -19.614 -21.045  0.00  0.00    +0.168 C 
ATOM     10  H   UNL     1      32.647 -19.828 -20.646  0.00  0.00    +0.149 HD
ATOM     11  H   UNL     1      36.727 -19.907 -20.760  0.00  0.00    +0.149 HD
ENDROOT
BRANCH   3  16
ATOM     12  O   UNL     1      31.104 -24.709 -13.449  0.00  0.00    -0.273 OA
ATOM     13  N   UNL     1      32.096 -23.470 -16.620  0.00  0.00    -0.184 NA
ATOM     14  N   UNL     1      31.428 -24.124 -15.643  0.00  0.00    -0.206 N 
ATOM     15  C   UNL     1      33.988 -23.282 -15.046  0.00  0.00    +0.051 C 
ATOM     16  C   UNL     1      33.290 -23.021 -16.374  0.00  0.00    +0.076 C 
ATOM     17  C   UNL     1      32.941 -23.263 -13.944  0.00  0.00    +0.093 C 
ATOM     18  C   UNL     1      34.733 -24.617 -15.094  0.00  0.00    +0.007 C 
ATOM     19  C   UNL     1      31.758 -24.117 -14.308  0.00  0.00    +0.241 C 
ATOM     20  H   UNL     1      30.638 -24.649 -15.909  0.00  0.00    +0.177 HD
ENDBRANCH   3  16
BRANCH   9  21
ATOM     21  C   UNL     1      34.637 -18.752 -22.202  0.00  0.00    +0.015 C 
ATOM     22  C   UNL     1      35.231 -17.491 -22.164  0.00  0.00    +0.002 C 
ATOM     23  C   UNL     1      33.979 -19.180 -23.355  0.00  0.00    +0.002 C 
ATOM     24  C   UNL     1      35.169 -16.658 -23.282  0.00  0.00    +0.037 C 
ATOM     25  C   UNL     1      33.917 -18.348 -24.472  0.00  0.00    +0.037 C 
ATOM     26  C   UNL     1      34.513 -17.086 -24.435  0.00  0.00    +0.139 C 
BRANCH  26  27
ATOM     27  O   UNL     1      34.452 -16.274 -25.525  0.00  0.00    -0.471 OA
ATOM     28  C   UNL     1      33.694 -15.071 -25.398  0.00  0.00    +0.252 C 
ENDBRANCH  26  27
ENDBRANCH   9  21
TORSDOF 3
ENDMDL
MODEL 6
REMARK VINA RESULT:     -10.3      7.752     13.815
REMARK  Name = 4823
REMARK  3 active torsions:
REMARK  status: ('A' for Active; 'I' for Inactive)
REMARK    1  A    between atoms: C_3  and  C_16
REMARK    2  A    between atoms: C_9  and  C_21
REMARK    3  A    between atoms: C_26  and  O_27
REMARK                            x       y       z     vdW  Elec       q    Type
REMARK                         _______ _______ _______ _____ _____    ______ ____
ROOT
ATOM      1  N   UNL     1      33.958 -12.123 -23.031  0.00  0.00    -0.315 N 
ATOM      2  N   UNL     1      32.586 -12.838 -21.437  0.00  0.00    -0.315 N 
ATOM      3  C   UNL     1      32.247  -8.862 -22.560  0.00  0.00    +0.016 C 
ATOM      4  C   UNL     1      33.197 -11.035 -22.689  0.00  0.00    +0.059 C 
ATOM      5  C   UNL     1      33.178  -9.719 -23.151  0.00  0.00    +0.017 C 
ATOM      6  C   UNL     1      32.348 -11.507 -21.691  0.00  0.00    +0.059 C 
ATOM      7  C   UNL     1      31.382  -9.301 -21.559  0.00  0.00    +0.003 C 
ATOM      8  C   UNL     1      31.419 -10.628 -21.110  0.00  0.00    +0.016 C 
ATOM      9  C   UNL     1      33.556 -13.174 -22.256  0.00  0.00    +0.168 C 
ATOM     10  H   UNL     1      34.668 -12.142 -23.714  0.00  0.00    +0.149 HD
ATOM     11  H   UNL     1      32.128 -13.414 -20.781  0.00  0.00    +0.149 HD
ENDROOT
BRANCH   3  16
ATOM     12  O   UNL     1      32.099  -3.760 -24.650  0.00  0.00    -0.273 OA
ATOM     13  N   UNL     1      31.177  -7.064 -23.753  0.00  0.00    -0.184 NA
ATOM     14  N   UNL     1      31.130  -5.790 -24.203  0.00  0.00    -0.206 N 
ATOM     15  C   UNL     1      33.256  -6.452 -22.573  0.00  0.00    +0.051 C 
ATOM     16  C   UNL     1      32.179  -7.434 -23.013  0.00  0.00    +0.076 C 
ATOM     17  C   UNL     1      33.486  -5.457 -23.699  0.00  0.00    +0.093 C 
ATOM     18  C   UNL     1      32.836  -5.753 -21.279  0.00  0.00    +0.007 C 
ATOM     19  C   UNL     1      32.183  -4.905 -24.206  0.00  0.00    +0.241 C 
ATOM     20  H   UNL     1      30.269  -5.468 -24.559  0.00  0.00    +0.177 HD
ENDBRANCH   3  16
BRANCH   9  21
ATOM     21  C   UNL     1      34.161 -14.480 -22.365  0.00  0.00    +0.015 C 
ATOM     22  C   UNL     1      34.227 -15.116 -23.604  0.00  0.00    +0.002 C 
ATOM     23  C   UNL     1      34.677 -15.106 -21.231  0.00  0.00    +0.002 C 
ATOM     24  C   UNL     1      34.813 -16.378 -23.710  0.00  0.00    +0.037 C 
ATOM     25  C   UNL     1      35.262 -16.368 -21.336  0.00  0.00    +0.037 C 
ATOM     26  C   UNL     1      35.330 -17.004 -22.576  0.00  0.00    +0.139 C 
BRANCH  26  27
ATOM     27  O   UNL     1      35.901 -18.235 -22.679  0.00  0.00    -0.471 OA
ATOM     28  C   UNL     1      35.020 -19.357 -22.729  0.00  0.00    +0.252 C 
ENDBRANCH  26  27
ENDBRANCH   9  21
TORSDOF 3
ENDMDL
MODEL 7
REMARK VINA RESULT:     -10.3      8.413     14.040
REMARK  Name = 4823
REMARK  3 active torsions:
REMARK  status: ('A' for Active; 'I' for Inactive)
REMARK    1  A    between atoms: C_3  and  C_16
REMARK    2  A    between atoms: C_9  and  C_21
REMARK    3  A    between atoms: C_26  and  O_27
REMARK                            x       y       z     vdW  Elec       q    Type
REMARK                         _______ _______ _______ _____ _____    ______ ____
ROOT
ATOM      1  N   UNL     1      33.153 -11.262 -23.218  0.00  0.00    -0.315 N 
ATOM      2  N   UNL     1      32.450 -12.337 -21.405  0.00  0.00    -0.315 N 
ATOM      3  C   UNL     1      31.999  -8.216 -21.437  0.00  0.00    +0.016 C 
ATOM      4  C   UNL     1      32.664 -10.290 -22.384  0.00  0.00    +0.059 C 
ATOM      5  C   UNL     1      32.566  -8.905 -22.512  0.00  0.00    +0.017 C 
ATOM      6  C   UNL     1      32.231 -10.986 -21.258  0.00  0.00    +0.059 C 
ATOM      7  C   UNL     1      31.554  -8.881 -20.296  0.00  0.00    +0.003 C 
ATOM      8  C   UNL     1      31.663 -10.273 -20.189  0.00  0.00    +0.016 C 
ATOM      9  C   UNL     1      33.003 -12.466 -22.589  0.00  0.00    +0.168 C 
ATOM     10  H   UNL     1      33.543 -11.117 -24.111  0.00  0.00    +0.149 HD
ATOM     11  H   UNL     1      32.238 -13.051 -20.761  0.00  0.00    +0.149 HD
ENDROOT
BRANCH   3  16
ATOM     12  O   UNL     1      31.410  -2.734 -21.273  0.00  0.00    -0.273 OA
ATOM     13  N   UNL     1      32.779  -5.989 -20.952  0.00  0.00    -0.184 NA
ATOM     14  N   UNL     1      32.645  -4.643 -20.978  0.00  0.00    -0.206 N 
ATOM     15  C   UNL     1      30.697  -6.110 -22.273  0.00  0.00    +0.051 C 
ATOM     16  C   UNL     1      31.867  -6.724 -21.515  0.00  0.00    +0.076 C 
ATOM     17  C   UNL     1      30.292  -4.825 -21.569  0.00  0.00    +0.093 C 
ATOM     18  C   UNL     1      31.088  -5.856 -23.730  0.00  0.00    +0.007 C 
ATOM     19  C   UNL     1      31.491  -3.963 -21.287  0.00  0.00    +0.241 C 
ATOM     20  H   UNL     1      33.441  -4.106 -20.758  0.00  0.00    +0.177 HD
ENDBRANCH   3  16
BRANCH   9  21
ATOM     21  C   UNL     1      33.423 -13.705 -23.200  0.00  0.00    +0.015 C 
ATOM     22  C   UNL     1      34.241 -14.587 -22.495  0.00  0.00    +0.002 C 
ATOM     23  C   UNL     1      33.011 -14.018 -24.495  0.00  0.00    +0.002 C 
ATOM     24  C   UNL     1      34.646 -15.785 -23.085  0.00  0.00    +0.037 C 
ATOM     25  C   UNL     1      33.416 -15.215 -25.085  0.00  0.00    +0.037 C 
ATOM     26  C   UNL     1      34.234 -16.098 -24.380  0.00  0.00    +0.139 C 
BRANCH  26  27
ATOM     27  O   UNL     1      34.629 -17.266 -24.955  0.00  0.00    -0.471 OA
ATOM     28  C   UNL     1      34.123 -18.474 -24.389  0.00  0.00    +0.252 C 
ENDBRANCH  26  27
ENDBRANCH   9  21
TORSDOF 3
ENDMDL
MODEL 8
REMARK VINA RESULT:     -10.3      2.015      9.698
REMARK  Name = 4823
REMARK  3 active torsions:
REMARK  status: ('A' for Active; 'I' for Inactive)
REMARK    1  A    between atoms: C_3  and  C_16
REMARK    2  A    between atoms: C_9  and  C_21
REMARK    3  A    between atoms: C_26  and  O_27
REMARK                            x       y       z     vdW  Elec       q    Type
REMARK                         _______ _______ _______ _____ _____    ______ ____
ROOT
ATOM      1  N   UNL     1      34.508 -20.695 -19.155  0.00  0.00    -0.315 N 
ATOM      2  N   UNL     1      36.700 -20.771 -18.804  0.00  0.00    -0.315 N 
ATOM      3  C   UNL     1      35.377 -18.345 -21.894  0.00  0.00    +0.016 C 
ATOM      4  C   UNL     1      35.057 -19.863 -20.096  0.00  0.00    +0.059 C 
ATOM      5  C   UNL     1      34.492 -19.083 -21.105  0.00  0.00    +0.017 C 
ATOM      6  C   UNL     1      36.427 -19.928 -19.857  0.00  0.00    +0.059 C 
ATOM      7  C   UNL     1      36.754 -18.386 -21.682  0.00  0.00    +0.003 C 
ATOM      8  C   UNL     1      37.299 -19.176 -20.662  0.00  0.00    +0.016 C 
ATOM      9  C   UNL     1      35.528 -21.213 -18.409  0.00  0.00    +0.168 C 
ATOM     10  H   UNL     1      33.548 -20.885 -19.038  0.00  0.00    +0.149 HD
ATOM     11  H   UNL     1      37.583 -20.995 -18.430  0.00  0.00    +0.149 HD
ENDROOT
BRANCH   3  16
ATOM     12  O   UNL     1      33.617 -15.443 -26.242  0.00  0.00    -0.273 OA
ATOM     13  N   UNL     1      33.966 -18.005 -23.817  0.00  0.00    -0.184 NA
ATOM     14  N   UNL     1      33.501 -17.254 -24.840  0.00  0.00    -0.206 N 
ATOM     15  C   UNL     1      35.269 -16.033 -23.108  0.00  0.00    +0.051 C 
ATOM     16  C   UNL     1      34.830 -17.487 -22.997  0.00  0.00    +0.076 C 
ATOM     17  C   UNL     1      35.320 -15.660 -24.580  0.00  0.00    +0.093 C 
ATOM     18  C   UNL     1      34.309 -15.131 -22.329  0.00  0.00    +0.007 C 
ATOM     19  C   UNL     1      34.062 -16.081 -25.288  0.00  0.00    +0.241 C 
ATOM     20  H   UNL     1      32.693 -17.573 -25.304  0.00  0.00    +0.177 HD
ENDBRANCH   3  16
BRANCH   9  21
ATOM     21  C   UNL     1      35.290 -22.135 -17.324  0.00  0.00    +0.015 C 
ATOM     22  C   UNL     1      36.292 -22.380 -16.385  0.00  0.00    +0.002 C 
ATOM     23  C   UNL     1      34.060 -22.783 -17.217  0.00  0.00    +0.002 C 
ATOM     24  C   UNL     1      36.062 -23.271 -15.336  0.00  0.00    +0.037 C 
ATOM     25  C   UNL     1      33.830 -23.674 -16.169  0.00  0.00    +0.037 C 
ATOM     26  C   UNL     1      34.831 -23.918 -15.229  0.00  0.00    +0.139 C 
BRANCH  26  27
ATOM     27  O   UNL     1      34.607 -24.787 -14.206  0.00  0.00    -0.471 OA
ATOM     28  C   UNL     1      34.007 -24.260 -13.024  0.00  0.00    +0.252 C 
ENDBRANCH  26  27
ENDBRANCH   9  21
TORSDOF 3
ENDMDL
MODEL 9
REMARK VINA RESULT:     -10.2      5.998      9.694
REMARK  Name = 4823
REMARK  3 active torsions:
REMARK  status: ('A' for Active; 'I' for Inactive)
REMARK    1  A    between atoms: C_3  and  C_16
REMARK    2  A    between atoms: C_9  and  C_21
REMARK    3  A    between atoms: C_26  and  O_27
REMARK                            x       y       z     vdW  Elec       q    Type
REMARK                         _______ _______ _______ _____ _____    ______ ____
ROOT
ATOM      1  N   UNL     1      33.730 -11.778 -21.975  0.00  0.00    -0.315 N 
ATOM      2  N   UNL     1      33.244 -11.739 -24.143  0.00  0.00    -0.315 N 
ATOM      3  C   UNL     1      34.639 -15.323 -22.597  0.00  0.00    +0.016 C 
ATOM      4  C   UNL     1      34.002 -13.041 -22.434  0.00  0.00    +0.059 C 
ATOM      5  C   UNL     1      34.479 -14.188 -21.799  0.00  0.00    +0.017 C 
ATOM      6  C   UNL     1      33.691 -12.991 -23.790  0.00  0.00    +0.059 C 
ATOM      7  C   UNL     1      34.337 -15.309 -23.958  0.00  0.00    +0.003 C 
ATOM      8  C   UNL     1      33.860 -14.145 -24.574  0.00  0.00    +0.016 C 
ATOM      9  C   UNL     1      33.281 -11.038 -23.033  0.00  0.00    +0.168 C 
ATOM     10  H   UNL     1      33.839 -11.461 -21.049  0.00  0.00    +0.149 HD
ATOM     11  H   UNL     1      32.960 -11.434 -25.036  0.00  0.00    +0.149 HD
ENDROOT
BRANCH   3  16
ATOM     12  O   UNL     1      36.897 -19.742 -20.189  0.00  0.00    -0.273 OA
ATOM     13  N   UNL     1      35.215 -16.659 -20.677  0.00  0.00    -0.184 NA
ATOM     14  N   UNL     1      35.716 -17.778 -20.106  0.00  0.00    -0.206 N 
ATOM     15  C   UNL     1      35.543 -17.761 -22.861  0.00  0.00    +0.051 C 
ATOM     16  C   UNL     1      35.150 -16.588 -21.973  0.00  0.00    +0.076 C 
ATOM     17  C   UNL     1      36.712 -18.483 -22.211  0.00  0.00    +0.093 C 
ATOM     18  C   UNL     1      34.347 -18.692 -23.065  0.00  0.00    +0.007 C 
ATOM     19  C   UNL     1      36.440 -18.750 -20.757  0.00  0.00    +0.241 C 
ATOM     20  H   UNL     1      35.548 -17.909 -19.145  0.00  0.00    +0.177 HD
ENDBRANCH   3  16
BRANCH   9  21
ATOM     21  C   UNL     1      32.905  -9.652 -22.891  0.00  0.00    +0.015 C 
ATOM     22  C   UNL     1      31.694  -9.317 -22.285  0.00  0.00    +0.002 C 
ATOM     23  C   UNL     1      33.751  -8.648 -23.361  0.00  0.00    +0.002 C 
ATOM     24  C   UNL     1      31.331  -7.977 -22.148  0.00  0.00    +0.037 C 
ATOM     25  C   UNL     1      33.388  -7.308 -23.224  0.00  0.00    +0.037 C 
ATOM     26  C   UNL     1      32.178  -6.973 -22.617  0.00  0.00    +0.139 C 
BRANCH  26  27
ATOM     27  O   UNL     1      31.823  -5.666 -22.483  0.00  0.00    -0.471 OA
ATOM     28  C   UNL     1      30.616  -5.389 -21.774  0.00  0.00    +0.252 C 
ENDBRANCH  26  27
ENDBRANCH   9  21
TORSDOF 3
ENDMDL
