MODEL 1
REMARK VINA RESULT:     -11.2      0.000      0.000
REMARK  Name = 1540
REMARK  4 active torsions:
REMARK  status: ('A' for Active; 'I' for Inactive)
REMARK    1  A    between atoms: N_5  and  C_14
REMARK    2  A    between atoms: C_6  and  O_20
REMARK    3  A    between atoms: O_20  and  C_21
REMARK    4  A    between atoms: C_21  and  C_22
REMARK                            x       y       z     vdW  Elec       q    Type
REMARK                         _______ _______ _______ _____ _____    ______ ____
ROOT
ATOM      1  N   UNL     1      33.716 -23.548 -15.158  0.00  0.00    -0.293 NA
ATOM      2  N   UNL     1      37.392 -23.505 -15.067  0.00  0.00    -0.266 NA
ATOM      3  N   UNL     1      34.672 -24.402 -13.082  0.00  0.00    -0.316 NA
ATOM      4  N   UNL     1      37.103 -24.369 -13.033  0.00  0.00    -0.296 N 
ATOM      5  N   UNL     1      32.358 -24.314 -13.410  0.00  0.00    -0.238 N 
ATOM      6  C   UNL     1      34.941 -23.304 -15.673  0.00  0.00    +0.288 C 
ATOM      7  C   UNL     1      36.041 -23.607 -14.896  0.00  0.00    +0.215 C 
ATOM      8  C   UNL     1      35.886 -24.145 -13.626  0.00  0.00    +0.196 C 
ATOM      9  C   UNL     1      33.658 -24.074 -13.912  0.00  0.00    +0.207 C 
ATOM     10  C   UNL     1      37.986 -23.974 -13.924  0.00  0.00    +0.164 C 
ATOM     11  H   UNL     1      37.855 -23.159 -15.864  0.00  0.00    +0.126 HD
ATOM     12  H   UNL     1      37.277 -24.742 -12.138  0.00  0.00    +0.150 HD
ATOM     13  H   UNL     1      32.346 -24.697 -12.504  0.00  0.00    +0.166 HD
ENDROOT
BRANCH   5  14
ATOM     14  C   UNL     1      31.077 -24.114 -13.956  0.00  0.00    +0.058 C 
ATOM     15  C   UNL     1      30.244 -25.205 -14.209  0.00  0.00    +0.015 C 
ATOM     16  C   UNL     1      30.632 -22.821 -14.247  0.00  0.00    +0.015 C 
ATOM     17  C   UNL     1      28.973 -25.006 -14.751  0.00  0.00    +0.001 C 
ATOM     18  C   UNL     1      29.362 -22.623 -14.788  0.00  0.00    +0.001 C 
ATOM     19  C   UNL     1      28.533 -23.715 -15.040  0.00  0.00    +0.000 C 
ENDBRANCH   5  14
BRANCH   6  20
ATOM     20  O   UNL     1      35.036 -22.771 -16.934  0.00  0.00    -0.453 OA
BRANCH  20  21
ATOM     21  C   UNL     1      33.859 -22.767 -17.721  0.00  0.00    +0.208 C 
BRANCH  21  22
ATOM     22  C   UNL     1      34.130 -21.967 -18.993  0.00  0.00    +0.044 C 
ATOM     23  C   UNL     1      33.029 -20.922 -19.222  0.00  0.00    +0.004 C 
ATOM     24  C   UNL     1      35.512 -21.301 -18.931  0.00  0.00    +0.004 C 
ATOM     25  C   UNL     1      33.306 -20.073 -20.460  0.00  0.00    +0.000 C 
ATOM     26  C   UNL     1      35.783 -20.450 -20.169  0.00  0.00    +0.000 C 
ATOM     27  C   UNL     1      34.682 -19.420 -20.398  0.00  0.00    +0.000 C 
ENDBRANCH  21  22
ENDBRANCH  20  21
ENDBRANCH   6  20
TORSDOF 4
ENDMDL
MODEL 2
REMARK VINA RESULT:     -11.0      1.715      5.250
REMARK  Name = 1540
REMARK  4 active torsions:
REMARK  status: ('A' for Active; 'I' for Inactive)
REMARK    1  A    between atoms: N_5  and  C_14
REMARK    2  A    between atoms: C_6  and  O_20
REMARK    3  A    between atoms: O_20  and  C_21
REMARK    4  A    between atoms: C_21  and  C_22
REMARK                            x       y       z     vdW  Elec       q    Type
REMARK                         _______ _______ _______ _____ _____    ______ ____
ROOT
ATOM      1  N   UNL     1      32.969 -23.284 -15.692  0.00  0.00    -0.293 NA
ATOM      2  N   UNL     1      29.493 -22.524 -16.619  0.00  0.00    -0.266 NA
ATOM      3  N   UNL     1      31.342 -23.767 -13.940  0.00  0.00    -0.316 NA
ATOM      4  N   UNL     1      29.047 -23.261 -14.563  0.00  0.00    -0.296 N 
ATOM      5  N   UNL     1      33.627 -24.155 -13.620  0.00  0.00    -0.238 N 
ATOM      6  C   UNL     1      32.003 -22.850 -16.530  0.00  0.00    +0.288 C 
ATOM      7  C   UNL     1      30.699 -22.871 -16.080  0.00  0.00    +0.215 C 
ATOM      8  C   UNL     1      30.396 -23.326 -14.803  0.00  0.00    +0.196 C 
ATOM      9  C   UNL     1      32.585 -23.710 -14.466  0.00  0.00    +0.207 C 
ATOM     10  C   UNL     1      28.534 -22.776 -15.673  0.00  0.00    +0.164 C 
ATOM     11  H   UNL     1      29.340 -22.161 -17.521  0.00  0.00    +0.126 HD
ATOM     12  H   UNL     1      28.570 -23.520 -13.742  0.00  0.00    +0.150 HD
ATOM     13  H   UNL     1      33.319 -24.459 -12.736  0.00  0.00    +0.166 HD
ENDROOT
BRANCH   5  14
ATOM     14  C   UNL     1      35.019 -24.249 -13.796  0.00  0.00    +0.058 C 
ATOM     15  C   UNL     1      35.849 -23.201 -13.390  0.00  0.00    +0.015 C 
ATOM     16  C   UNL     1      35.579 -25.390 -14.377  0.00  0.00    +0.015 C 
ATOM     17  C   UNL     1      37.230 -23.294 -13.565  0.00  0.00    +0.001 C 
ATOM     18  C   UNL     1      36.960 -25.481 -14.551  0.00  0.00    +0.001 C 
ATOM     19  C   UNL     1      37.785 -24.434 -14.145  0.00  0.00    +0.000 C 
ENDBRANCH   5  14
BRANCH   6  20
ATOM     20  O   UNL     1      32.358 -22.410 -17.782  0.00  0.00    -0.453 OA
BRANCH  20  21
ATOM     21  C   UNL     1      33.689 -22.659 -18.197  0.00  0.00    +0.208 C 
BRANCH  21  22
ATOM     22  C   UNL     1      34.273 -21.362 -18.751  0.00  0.00    +0.044 C 
ATOM     23  C   UNL     1      35.704 -21.585 -19.261  0.00  0.00    +0.004 C 
ATOM     24  C   UNL     1      33.379 -20.795 -19.862  0.00  0.00    +0.004 C 
ATOM     25  C   UNL     1      36.291 -20.314 -19.869  0.00  0.00    +0.000 C 
ATOM     26  C   UNL     1      33.971 -19.526 -20.469  0.00  0.00    +0.000 C 
ATOM     27  C   UNL     1      35.395 -19.750 -20.967  0.00  0.00    +0.000 C 
ENDBRANCH  21  22
ENDBRANCH  20  21
ENDBRANCH   6  20
TORSDOF 4
ENDMDL
MODEL 3
REMARK VINA RESULT:     -10.7      1.557      5.111
REMARK  Name = 1540
REMARK  4 active torsions:
REMARK  status: ('A' for Active; 'I' for Inactive)
REMARK    1  A    between atoms: N_5  and  C_14
REMARK    2  A    between atoms: C_6  and  O_20
REMARK    3  A    between atoms: O_20  and  C_21
REMARK    4  A    between atoms: C_21  and  C_22
REMARK                            x       y       z     vdW  Elec       q    Type
REMARK                         _______ _______ _______ _____ _____    ______ ____
ROOT
ATOM      1  N   UNL     1      33.511 -23.777 -14.271  0.00  0.00    -0.293 NA
ATOM      2  N   UNL     1      30.086 -23.917 -15.603  0.00  0.00    -0.266 NA
ATOM      3  N   UNL     1      31.936 -24.977 -12.846  0.00  0.00    -0.316 NA
ATOM      4  N   UNL     1      29.674 -25.064 -13.737  0.00  0.00    -0.296 N 
ATOM      5  N   UNL     1      34.183 -24.735 -12.242  0.00  0.00    -0.238 N 
ATOM      6  C   UNL     1      32.552 -23.515 -15.185  0.00  0.00    +0.288 C 
ATOM      7  C   UNL     1      31.277 -23.982 -14.937  0.00  0.00    +0.215 C 
ATOM      8  C   UNL     1      30.996 -24.699 -13.782  0.00  0.00    +0.196 C 
ATOM      9  C   UNL     1      33.149 -24.482 -13.173  0.00  0.00    +0.207 C 
ATOM     10  C   UNL     1      29.157 -24.580 -14.844  0.00  0.00    +0.164 C 
ATOM     11  H   UNL     1      29.925 -23.476 -16.469  0.00  0.00    +0.126 HD
ATOM     12  H   UNL     1      29.216 -25.575 -13.031  0.00  0.00    +0.150 HD
ATOM     13  H   UNL     1      33.891 -25.249 -11.455  0.00  0.00    +0.166 HD
ENDROOT
BRANCH   5  14
ATOM     14  C   UNL     1      35.547 -24.394 -12.221  0.00  0.00    +0.058 C 
ATOM     15  C   UNL     1      36.453 -25.075 -13.037  0.00  0.00    +0.015 C 
ATOM     16  C   UNL     1      36.002 -23.372 -11.383  0.00  0.00    +0.015 C 
ATOM     17  C   UNL     1      37.806 -24.736 -13.015  0.00  0.00    +0.001 C 
ATOM     18  C   UNL     1      37.355 -23.035 -11.362  0.00  0.00    +0.001 C 
ATOM     19  C   UNL     1      38.257 -23.716 -12.177  0.00  0.00    +0.000 C 
ENDBRANCH   5  14
BRANCH   6  20
ATOM     20  O   UNL     1      32.885 -22.801 -16.310  0.00  0.00    -0.453 OA
BRANCH  20  21
ATOM     21  C   UNL     1      34.085 -23.161 -16.968  0.00  0.00    +0.208 C 
BRANCH  21  22
ATOM     22  C   UNL     1      34.114 -22.475 -18.332  0.00  0.00    +0.044 C 
ATOM     23  C   UNL     1      32.906 -21.544 -18.497  0.00  0.00    +0.004 C 
ATOM     24  C   UNL     1      35.428 -21.706 -18.525  0.00  0.00    +0.004 C 
ATOM     25  C   UNL     1      32.940 -20.806 -19.832  0.00  0.00    +0.000 C 
ATOM     26  C   UNL     1      35.458 -20.967 -19.860  0.00  0.00    +0.000 C 
ATOM     27  C   UNL     1      34.251 -20.049 -20.023  0.00  0.00    +0.000 C 
ENDBRANCH  21  22
ENDBRANCH  20  21
ENDBRANCH   6  20
TORSDOF 4
ENDMDL
MODEL 4
REMARK VINA RESULT:     -10.7      1.962      6.609
REMARK  Name = 1540
REMARK  4 active torsions:
REMARK  status: ('A' for Active; 'I' for Inactive)
REMARK    1  A    between atoms: N_5  and  C_14
REMARK    2  A    between atoms: C_6  and  O_20
REMARK    3  A    between atoms: O_20  and  C_21
REMARK    4  A    between atoms: C_21  and  C_22
REMARK                            x       y       z     vdW  Elec       q    Type
REMARK                         _______ _______ _______ _____ _____    ______ ____
ROOT
ATOM      1  N   UNL     1      33.681 -22.726 -15.950  0.00  0.00    -0.293 NA
ATOM      2  N   UNL     1      32.390 -24.453 -12.971  0.00  0.00    -0.266 NA
ATOM      3  N   UNL     1      31.370 -23.480 -16.158  0.00  0.00    -0.316 NA
ATOM      4  N   UNL     1      30.527 -24.620 -14.183  0.00  0.00    -0.296 N 
ATOM      5  N   UNL     1      32.444 -22.352 -17.903  0.00  0.00    -0.238 N 
ATOM      6  C   UNL     1      33.775 -23.220 -14.696  0.00  0.00    +0.288 C 
ATOM      7  C   UNL     1      32.668 -23.848 -14.163  0.00  0.00    +0.215 C 
ATOM      8  C   UNL     1      31.496 -23.965 -14.899  0.00  0.00    +0.196 C 
ATOM      9  C   UNL     1      32.501 -22.883 -16.594  0.00  0.00    +0.207 C 
ATOM     10  C   UNL     1      31.096 -24.899 -13.030  0.00  0.00    +0.164 C 
ATOM     11  H   UNL     1      33.006 -24.551 -12.209  0.00  0.00    +0.126 HD
ATOM     12  H   UNL     1      29.609 -24.834 -14.469  0.00  0.00    +0.150 HD
ATOM     13  H   UNL     1      31.576 -22.480 -18.347  0.00  0.00    +0.166 HD
ENDROOT
BRANCH   5  14
ATOM     14  C   UNL     1      33.389 -21.675 -18.695  0.00  0.00    +0.058 C 
ATOM     15  C   UNL     1      34.740 -22.023 -18.629  0.00  0.00    +0.015 C 
ATOM     16  C   UNL     1      32.980 -20.650 -19.553  0.00  0.00    +0.015 C 
ATOM     17  C   UNL     1      35.676 -21.351 -19.414  0.00  0.00    +0.001 C 
ATOM     18  C   UNL     1      33.918 -19.979 -20.338  0.00  0.00    +0.001 C 
ATOM     19  C   UNL     1      35.265 -20.329 -20.269  0.00  0.00    +0.000 C 
ENDBRANCH   5  14
BRANCH   6  20
ATOM     20  O   UNL     1      34.959 -23.078 -14.014  0.00  0.00    -0.453 OA
BRANCH  20  21
ATOM     21  C   UNL     1      36.143 -23.016 -14.787  0.00  0.00    +0.208 C 
BRANCH  21  22
ATOM     22  C   UNL     1      37.216 -23.857 -14.099  0.00  0.00    +0.044 C 
ATOM     23  C   UNL     1      37.241 -23.574 -12.590  0.00  0.00    +0.004 C 
ATOM     24  C   UNL     1      36.991 -25.351 -14.372  0.00  0.00    +0.004 C 
ATOM     25  C   UNL     1      38.270 -24.443 -11.872  0.00  0.00    +0.000 C 
ATOM     26  C   UNL     1      38.020 -26.216 -13.649  0.00  0.00    +0.000 C 
ATOM     27  C   UNL     1      38.049 -25.926 -12.152  0.00  0.00    +0.000 C 
ENDBRANCH  21  22
ENDBRANCH  20  21
ENDBRANCH   6  20
TORSDOF 4
ENDMDL
MODEL 5
REMARK VINA RESULT:     -10.6      1.376      2.097
REMARK  Name = 1540
REMARK  4 active torsions:
REMARK  status: ('A' for Active; 'I' for Inactive)
REMARK    1  A    between atoms: N_5  and  C_14
REMARK    2  A    between atoms: C_6  and  O_20
REMARK    3  A    between atoms: O_20  and  C_21
REMARK    4  A    between atoms: C_21  and  C_22
REMARK                            x       y       z     vdW  Elec       q    Type
REMARK                         _______ _______ _______ _____ _____    ______ ____
ROOT
ATOM      1  N   UNL     1      34.564 -23.798 -14.022  0.00  0.00    -0.293 NA
ATOM      2  N   UNL     1      38.026 -23.573 -12.803  0.00  0.00    -0.266 NA
ATOM      3  N   UNL     1      34.771 -23.861 -11.592  0.00  0.00    -0.316 NA
ATOM      4  N   UNL     1      37.064 -23.711 -10.797  0.00  0.00    -0.296 N 
ATOM      5  N   UNL     1      32.683 -23.986 -12.639  0.00  0.00    -0.238 N 
ATOM      6  C   UNL     1      35.901 -23.690 -14.177  0.00  0.00    +0.288 C 
ATOM      7  C   UNL     1      36.684 -23.667 -13.041  0.00  0.00    +0.215 C 
ATOM      8  C   UNL     1      36.108 -23.752 -11.780  0.00  0.00    +0.196 C 
ATOM      9  C   UNL     1      34.087 -23.875 -12.757  0.00  0.00    +0.207 C 
ATOM     10  C   UNL     1      38.204 -23.603 -11.445  0.00  0.00    +0.164 C 
ATOM     11  H   UNL     1      38.735 -23.496 -13.483  0.00  0.00    +0.126 HD
ATOM     12  H   UNL     1      36.927 -23.754  -9.823  0.00  0.00    +0.150 HD
ATOM     13  H   UNL     1      32.366 -24.040 -11.709  0.00  0.00    +0.166 HD
ENDROOT
BRANCH   5  14
ATOM     14  C   UNL     1      31.650 -24.035 -13.592  0.00  0.00    +0.058 C 
ATOM     15  C   UNL     1      31.426 -22.948 -14.440  0.00  0.00    +0.015 C 
ATOM     16  C   UNL     1      30.844 -25.172 -13.697  0.00  0.00    +0.015 C 
ATOM     17  C   UNL     1      30.401 -22.997 -15.385  0.00  0.00    +0.001 C 
ATOM     18  C   UNL     1      29.820 -25.220 -14.642  0.00  0.00    +0.001 C 
ATOM     19  C   UNL     1      29.598 -24.133 -15.486  0.00  0.00    +0.000 C 
ENDBRANCH   5  14
BRANCH   6  20
ATOM     20  O   UNL     1      36.417 -23.610 -15.447  0.00  0.00    -0.453 OA
BRANCH  20  21
ATOM     21  C   UNL     1      36.564 -22.316 -16.001  0.00  0.00    +0.208 C 
BRANCH  21  22
ATOM     22  C   UNL     1      35.944 -22.314 -17.397  0.00  0.00    +0.044 C 
ATOM     23  C   UNL     1      34.411 -22.311 -17.310  0.00  0.00    +0.004 C 
ATOM     24  C   UNL     1      36.448 -21.115 -18.213  0.00  0.00    +0.004 C 
ATOM     25  C   UNL     1      33.768 -22.255 -18.693  0.00  0.00    +0.000 C 
ATOM     26  C   UNL     1      35.800 -21.062 -19.594  0.00  0.00    +0.000 C 
ATOM     27  C   UNL     1      34.278 -21.068 -19.503  0.00  0.00    +0.000 C 
ENDBRANCH  21  22
ENDBRANCH  20  21
ENDBRANCH   6  20
TORSDOF 4
ENDMDL
MODEL 6
REMARK VINA RESULT:     -10.5      1.538      5.803
REMARK  Name = 1540
REMARK  4 active torsions:
REMARK  status: ('A' for Active; 'I' for Inactive)
REMARK    1  A    between atoms: N_5  and  C_14
REMARK    2  A    between atoms: C_6  and  O_20
REMARK    3  A    between atoms: O_20  and  C_21
REMARK    4  A    between atoms: C_21  and  C_22
REMARK                            x       y       z     vdW  Elec       q    Type
REMARK                         _______ _______ _______ _____ _____    ______ ____
ROOT
ATOM      1  N   UNL     1      35.304 -23.529 -15.262  0.00  0.00    -0.293 NA
ATOM      2  N   UNL     1      36.159 -25.301 -12.155  0.00  0.00    -0.266 NA
ATOM      3  N   UNL     1      37.672 -23.439 -14.683  0.00  0.00    -0.316 NA
ATOM      4  N   UNL     1      38.227 -24.614 -12.627  0.00  0.00    -0.296 N 
ATOM      5  N   UNL     1      36.849 -22.397 -16.609  0.00  0.00    -0.238 N 
ATOM      6  C   UNL     1      35.019 -24.266 -14.166  0.00  0.00    +0.288 C 
ATOM      7  C   UNL     1      36.058 -24.595 -13.320  0.00  0.00    +0.215 C 
ATOM      8  C   UNL     1      37.355 -24.179 -13.593  0.00  0.00    +0.196 C 
ATOM      9  C   UNL     1      36.594 -23.166 -15.451  0.00  0.00    +0.207 C 
ATOM     10  C   UNL     1      37.477 -25.284 -11.780  0.00  0.00    +0.164 C 
ATOM     11  H   UNL     1      35.422 -25.741 -11.674  0.00  0.00    +0.126 HD
ATOM     12  H   UNL     1      39.198 -24.458 -12.580  0.00  0.00    +0.150 HD
ATOM     13  H   UNL     1      37.795 -22.148 -16.720  0.00  0.00    +0.166 HD
ENDROOT
BRANCH   5  14
ATOM     14  C   UNL     1      36.014 -21.917 -17.633  0.00  0.00    +0.058 C 
ATOM     15  C   UNL     1      36.541 -21.122 -18.653  0.00  0.00    +0.015 C 
ATOM     16  C   UNL     1      34.652 -22.233 -17.635  0.00  0.00    +0.015 C 
ATOM     17  C   UNL     1      35.712 -20.645 -19.669  0.00  0.00    +0.001 C 
ATOM     18  C   UNL     1      33.824 -21.756 -18.652  0.00  0.00    +0.001 C 
ATOM     19  C   UNL     1      34.353 -20.962 -19.668  0.00  0.00    +0.000 C 
ENDBRANCH   5  14
BRANCH   6  20
ATOM     20  O   UNL     1      33.719 -24.650 -13.944  0.00  0.00    -0.453 OA
BRANCH  20  21
ATOM     21  C   UNL     1      32.961 -23.864 -13.043  0.00  0.00    +0.208 C 
BRANCH  21  22
ATOM     22  C   UNL     1      31.539 -23.742 -13.586  0.00  0.00    +0.044 C 
ATOM     23  C   UNL     1      31.548 -23.147 -15.001  0.00  0.00    +0.004 C 
ATOM     24  C   UNL     1      30.834 -25.105 -13.571  0.00  0.00    +0.004 C 
ATOM     25  C   UNL     1      30.140 -23.064 -15.586  0.00  0.00    +0.000 C 
ATOM     26  C   UNL     1      29.428 -25.019 -14.159  0.00  0.00    +0.000 C 
ATOM     27  C   UNL     1      29.440 -24.419 -15.562  0.00  0.00    +0.000 C 
ENDBRANCH  21  22
ENDBRANCH  20  21
ENDBRANCH   6  20
TORSDOF 4
ENDMDL
MODEL 7
REMARK VINA RESULT:     -10.5      8.592     12.290
REMARK  Name = 1540
REMARK  4 active torsions:
REMARK  status: ('A' for Active; 'I' for Inactive)
REMARK    1  A    between atoms: N_5  and  C_14
REMARK    2  A    between atoms: C_6  and  O_20
REMARK    3  A    between atoms: O_20  and  C_21
REMARK    4  A    between atoms: C_21  and  C_22
REMARK                            x       y       z     vdW  Elec       q    Type
REMARK                         _______ _______ _______ _____ _____    ______ ____
ROOT
ATOM      1  N   UNL     1      34.409 -15.385 -22.875  0.00  0.00    -0.293 NA
ATOM      2  N   UNL     1      33.412 -12.459 -24.867  0.00  0.00    -0.266 NA
ATOM      3  N   UNL     1      34.324 -15.797 -25.278  0.00  0.00    -0.316 NA
ATOM      4  N   UNL     1      33.664 -13.856 -26.585  0.00  0.00    -0.296 N 
ATOM      5  N   UNL     1      34.929 -17.484 -23.774  0.00  0.00    -0.238 N 
ATOM      6  C   UNL     1      34.030 -14.098 -23.038  0.00  0.00    +0.288 C 
ATOM      7  C   UNL     1      33.796 -13.651 -24.322  0.00  0.00    +0.215 C 
ATOM      8  C   UNL     1      33.946 -14.503 -25.409  0.00  0.00    +0.196 C 
ATOM      9  C   UNL     1      34.531 -16.144 -23.989  0.00  0.00    +0.207 C 
ATOM     10  C   UNL     1      33.347 -12.632 -26.225  0.00  0.00    +0.164 C 
ATOM     11  H   UNL     1      33.218 -11.628 -24.375  0.00  0.00    +0.126 HD
ATOM     12  H   UNL     1      33.692 -14.227 -27.497  0.00  0.00    +0.150 HD
ATOM     13  H   UNL     1      35.009 -18.012 -24.600  0.00  0.00    +0.166 HD
ENDROOT
BRANCH   5  14
ATOM     14  C   UNL     1      35.231 -18.210 -22.608  0.00  0.00    +0.058 C 
ATOM     15  C   UNL     1      36.488 -18.088 -22.012  0.00  0.00    +0.015 C 
ATOM     16  C   UNL     1      34.275 -19.056 -22.040  0.00  0.00    +0.015 C 
ATOM     17  C   UNL     1      36.789 -18.808 -20.856  0.00  0.00    +0.001 C 
ATOM     18  C   UNL     1      34.576 -19.776 -20.883  0.00  0.00    +0.001 C 
ATOM     19  C   UNL     1      35.832 -19.652 -20.292  0.00  0.00    +0.000 C 
ENDBRANCH   5  14
BRANCH   6  20
ATOM     20  O   UNL     1      33.897 -13.300 -21.929  0.00  0.00    -0.453 OA
BRANCH  20  21
ATOM     21  C   UNL     1      32.753 -13.509 -21.120  0.00  0.00    +0.208 C 
BRANCH  21  22
ATOM     22  C   UNL     1      32.015 -12.181 -20.973  0.00  0.00    +0.044 C 
ATOM     23  C   UNL     1      32.080 -11.681 -19.524  0.00  0.00    +0.004 C 
ATOM     24  C   UNL     1      32.586 -11.133 -21.939  0.00  0.00    +0.004 C 
ATOM     25  C   UNL     1      31.394 -10.328 -19.362  0.00  0.00    +0.000 C 
ATOM     26  C   UNL     1      31.899  -9.780 -21.773  0.00  0.00    +0.000 C 
ATOM     27  C   UNL     1      31.959  -9.292 -20.329  0.00  0.00    +0.000 C 
ENDBRANCH  21  22
ENDBRANCH  20  21
ENDBRANCH   6  20
TORSDOF 4
ENDMDL
MODEL 8
REMARK VINA RESULT:     -10.2      2.058      6.365
REMARK  Name = 1540
REMARK  4 active torsions:
REMARK  status: ('A' for Active; 'I' for Inactive)
REMARK    1  A    between atoms: N_5  and  C_14
REMARK    2  A    between atoms: C_6  and  O_20
REMARK    3  A    between atoms: O_20  and  C_21
REMARK    4  A    between atoms: C_21  and  C_22
REMARK                            x       y       z     vdW  Elec       q    Type
REMARK                         _______ _______ _______ _____ _____    ______ ____
ROOT
ATOM      1  N   UNL     1      35.278 -23.056 -16.149  0.00  0.00    -0.293 NA
ATOM      2  N   UNL     1      34.492 -21.427 -19.350  0.00  0.00    -0.266 NA
ATOM      3  N   UNL     1      37.058 -21.621 -17.000  0.00  0.00    -0.316 NA
ATOM      4  N   UNL     1      36.528 -20.549 -19.118  0.00  0.00    -0.296 N 
ATOM      5  N   UNL     1      37.291 -22.781 -14.982  0.00  0.00    -0.238 N 
ATOM      6  C   UNL     1      34.489 -22.781 -17.210  0.00  0.00    +0.288 C 
ATOM      7  C   UNL     1      34.978 -21.925 -18.175  0.00  0.00    +0.215 C 
ATOM      8  C   UNL     1      36.243 -21.365 -18.052  0.00  0.00    +0.196 C 
ATOM      9  C   UNL     1      36.497 -22.467 -16.109  0.00  0.00    +0.207 C 
ATOM     10  C   UNL     1      35.456 -20.608 -19.877  0.00  0.00    +0.164 C 
ATOM     11  H   UNL     1      33.611 -21.620 -19.745  0.00  0.00    +0.126 HD
ATOM     12  H   UNL     1      37.352 -20.034 -19.277  0.00  0.00    +0.150 HD
ATOM     13  H   UNL     1      38.170 -22.339 -14.980  0.00  0.00    +0.166 HD
ENDROOT
BRANCH   5  14
ATOM     14  C   UNL     1      37.068 -23.602 -13.863  0.00  0.00    +0.058 C 
ATOM     15  C   UNL     1      37.763 -24.806 -13.727  0.00  0.00    +0.015 C 
ATOM     16  C   UNL     1      36.152 -23.217 -12.880  0.00  0.00    +0.015 C 
ATOM     17  C   UNL     1      37.542 -25.621 -12.616  0.00  0.00    +0.001 C 
ATOM     18  C   UNL     1      35.932 -24.033 -11.770  0.00  0.00    +0.001 C 
ATOM     19  C   UNL     1      36.626 -25.234 -11.638  0.00  0.00    +0.000 C 
ENDBRANCH   5  14
BRANCH   6  20
ATOM     20  O   UNL     1      33.247 -23.362 -17.281  0.00  0.00    -0.453 OA
BRANCH  20  21
ATOM     21  C   UNL     1      32.220 -22.781 -16.500  0.00  0.00    +0.208 C 
BRANCH  21  22
ATOM     22  C   UNL     1      31.745 -23.813 -15.479  0.00  0.00    +0.044 C 
ATOM     23  C   UNL     1      32.561 -23.711 -14.184  0.00  0.00    +0.004 C 
ATOM     24  C   UNL     1      30.246 -23.646 -15.196  0.00  0.00    +0.004 C 
ATOM     25  C   UNL     1      32.070 -24.698 -13.128  0.00  0.00    +0.000 C 
ATOM     26  C   UNL     1      29.759 -24.632 -14.138  0.00  0.00    +0.000 C 
ATOM     27  C   UNL     1      30.578 -24.533 -12.855  0.00  0.00    +0.000 C 
ENDBRANCH  21  22
ENDBRANCH  20  21
ENDBRANCH   6  20
TORSDOF 4
ENDMDL
MODEL 9
REMARK VINA RESULT:     -10.1      2.163      5.628
REMARK  Name = 1540
REMARK  4 active torsions:
REMARK  status: ('A' for Active; 'I' for Inactive)
REMARK    1  A    between atoms: N_5  and  C_14
REMARK    2  A    between atoms: C_6  and  O_20
REMARK    3  A    between atoms: O_20  and  C_21
REMARK    4  A    between atoms: C_21  and  C_22
REMARK                            x       y       z     vdW  Elec       q    Type
REMARK                         _______ _______ _______ _____ _____    ______ ____
ROOT
ATOM      1  N   UNL     1      33.608 -22.937 -16.411  0.00  0.00    -0.293 NA
ATOM      2  N   UNL     1      35.884 -21.516 -18.926  0.00  0.00    -0.266 NA
ATOM      3  N   UNL     1      32.477 -21.806 -18.253  0.00  0.00    -0.316 NA
ATOM      4  N   UNL     1      33.991 -20.870 -19.910  0.00  0.00    -0.296 N 
ATOM      5  N   UNL     1      31.272 -22.802 -16.513  0.00  0.00    -0.238 N 
ATOM      6  C   UNL     1      34.824 -22.666 -16.933  0.00  0.00    +0.288 C 
ATOM      7  C   UNL     1      34.876 -21.963 -18.120  0.00  0.00    +0.215 C 
ATOM      8  C   UNL     1      33.710 -21.550 -18.752  0.00  0.00    +0.196 C 
ATOM      9  C   UNL     1      32.524 -22.497 -17.093  0.00  0.00    +0.207 C 
ATOM     10  C   UNL     1      35.304 -20.868 -19.985  0.00  0.00    +0.164 C 
ATOM     11  H   UNL     1      36.849 -21.637 -18.774  0.00  0.00    +0.126 HD
ATOM     12  H   UNL     1      33.351 -20.473 -20.544  0.00  0.00    +0.150 HD
ATOM     13  H   UNL     1      30.503 -22.470 -17.030  0.00  0.00    +0.166 HD
ENDROOT
BRANCH   5  14
ATOM     14  C   UNL     1      30.911 -23.486 -15.339  0.00  0.00    +0.058 C 
ATOM     15  C   UNL     1      31.251 -22.965 -14.089  0.00  0.00    +0.015 C 
ATOM     16  C   UNL     1      30.208 -24.692 -15.417  0.00  0.00    +0.015 C 
ATOM     17  C   UNL     1      30.893 -23.644 -12.924  0.00  0.00    +0.001 C 
ATOM     18  C   UNL     1      29.850 -25.371 -14.252  0.00  0.00    +0.001 C 
ATOM     19  C   UNL     1      30.192 -24.847 -13.007  0.00  0.00    +0.000 C 
ENDBRANCH   5  14
BRANCH   6  20
ATOM     20  O   UNL     1      35.944 -23.097 -16.266  0.00  0.00    -0.453 OA
BRANCH  20  21
ATOM     21  C   UNL     1      36.051 -22.751 -14.898  0.00  0.00    +0.208 C 
BRANCH  21  22
ATOM     22  C   UNL     1      36.978 -23.754 -14.215  0.00  0.00    +0.044 C 
ATOM     23  C   UNL     1      37.109 -23.440 -12.719  0.00  0.00    +0.004 C 
ATOM     24  C   UNL     1      36.478 -25.189 -14.432  0.00  0.00    +0.004 C 
ATOM     25  C   UNL     1      37.990 -24.462 -12.004  0.00  0.00    +0.000 C 
ATOM     26  C   UNL     1      37.360 -26.207 -13.713  0.00  0.00    +0.000 C 
ATOM     27  C   UNL     1      37.495 -25.887 -12.228  0.00  0.00    +0.000 C 
ENDBRANCH  21  22
ENDBRANCH  20  21
ENDBRANCH   6  20
TORSDOF 4
ENDMDL
