MODEL 1
REMARK VINA RESULT:     -12.2      0.000      0.000
REMARK  Name = 446399
REMARK  4 active torsions:
REMARK  status: ('A' for Active; 'I' for Inactive)
REMARK    1  A    between atoms: N_3  and  S_21
REMARK    2  A    between atoms: C_4  and  C_10
REMARK    3  A    between atoms: N_9  and  C_16
REMARK    4  A    between atoms: S_21  and  C_25
REMARK                            x       y       z     vdW  Elec       q    Type
REMARK                         _______ _______ _______ _____ _____    ______ ____
ROOT
ATOM      1  O   UNL     1      33.190 -13.461 -25.421  0.00  0.00    -0.275 OA
ATOM      2  N   UNL     1      33.703 -14.787 -23.585  0.00  0.00    -0.277 N 
ATOM      3  N   UNL     1      34.945 -17.201 -22.735  0.00  0.00    -0.152 NA
ATOM      4  C   UNL     1      33.526 -13.569 -24.239  0.00  0.00    +0.225 C 
ATOM      5  C   UNL     1      34.102 -14.950 -22.182  0.00  0.00    +0.113 C 
ATOM      6  C   UNL     1      33.421 -16.041 -24.284  0.00  0.00    +0.113 C 
ATOM      7  C   UNL     1      35.283 -15.910 -22.064  0.00  0.00    +0.117 C 
ATOM      8  C   UNL     1      34.599 -17.001 -24.175  0.00  0.00    +0.117 C 
ENDROOT
BRANCH   4  10
ATOM      9  N   UNL     1      33.081  -9.618 -22.692  0.00  0.00    -0.307 N 
ATOM     10  C   UNL     1      33.770 -12.324 -23.424  0.00  0.00    +0.080 C 
ATOM     11  C   UNL     1      32.536 -12.018 -22.581  0.00  0.00    +0.031 C 
ATOM     12  C   UNL     1      34.079 -11.146 -24.345  0.00  0.00    +0.031 C 
ATOM     13  C   UNL     1      32.702 -10.717 -21.796  0.00  0.00    +0.091 C 
ATOM     14  C   UNL     1      34.248  -9.851 -23.554  0.00  0.00    +0.091 C 
BRANCH   9  16
ATOM     15  N   UNL     1      32.277  -5.635 -21.547  0.00  0.00    -0.242 NA
ATOM     16  C   UNL     1      32.814  -8.297 -22.312  0.00  0.00    +0.051 C 
ATOM     17  C   UNL     1      33.505  -7.223 -22.894  0.00  0.00    +0.035 C 
ATOM     18  C   UNL     1      31.847  -8.006 -21.337  0.00  0.00    +0.035 C 
ATOM     19  C   UNL     1      33.204  -5.934 -22.483  0.00  0.00    +0.100 C 
ATOM     20  C   UNL     1      31.620  -6.682 -20.997  0.00  0.00    +0.100 C 
ENDBRANCH   9  16
ENDBRANCH   4  10
BRANCH   3  21
ATOM     21  S   UNL     1      36.017 -18.498 -22.412  0.00  0.00    +0.063 S 
ATOM     22  O   UNL     1      37.175 -17.990 -21.711  0.00  0.00    -0.153 OA
ATOM     23  O   UNL     1      36.160 -19.296 -23.611  0.00  0.00    -0.153 OA
BRANCH  21  25
ATOM     24 CL   UNL     1      32.438 -23.308 -16.434  0.00  0.00    -0.082 Cl
ATOM     25  C   UNL     1      35.047 -19.418 -21.259  0.00  0.00    +0.122 C 
ATOM     26  C   UNL     1      35.684 -20.211 -20.319  0.00  0.00    +0.020 C 
ATOM     27  C   UNL     1      33.669 -19.330 -21.314  0.00  0.00    +0.020 C 
ATOM     28  C   UNL     1      34.927 -20.950 -19.395  0.00  0.00    +0.001 C 
ATOM     29  C   UNL     1      33.514 -20.871 -19.437  0.00  0.00    +0.001 C 
ATOM     30  C   UNL     1      32.901 -20.057 -20.403  0.00  0.00    +0.001 C 
ATOM     31  C   UNL     1      35.541 -21.764 -18.429  0.00  0.00    +0.001 C 
ATOM     32  C   UNL     1      32.757 -21.608 -18.512  0.00  0.00    +0.011 C 
ATOM     33  C   UNL     1      34.772 -22.490 -17.518  0.00  0.00    +0.011 C 
ATOM     34  C   UNL     1      33.383 -22.413 -17.560  0.00  0.00    +0.058 C 
ENDBRANCH  21  25
ENDBRANCH   3  21
TORSDOF 4
ENDMDL
MODEL 2
REMARK VINA RESULT:     -11.7      4.480     11.500
REMARK  Name = 446399
REMARK  4 active torsions:
REMARK  status: ('A' for Active; 'I' for Inactive)
REMARK    1  A    between atoms: N_3  and  S_21
REMARK    2  A    between atoms: C_4  and  C_10
REMARK    3  A    between atoms: N_9  and  C_16
REMARK    4  A    between atoms: S_21  and  C_25
REMARK                            x       y       z     vdW  Elec       q    Type
REMARK                         _______ _______ _______ _____ _____    ______ ____
ROOT
ATOM      1  O   UNL     1      33.746 -16.108 -25.204  0.00  0.00    -0.275 OA
ATOM      2  N   UNL     1      34.092 -14.591 -23.479  0.00  0.00    -0.277 N 
ATOM      3  N   UNL     1      32.948 -12.438 -22.012  0.00  0.00    -0.152 NA
ATOM      4  C   UNL     1      34.209 -15.837 -24.093  0.00  0.00    +0.225 C 
ATOM      5  C   UNL     1      34.630 -14.237 -22.161  0.00  0.00    +0.113 C 
ATOM      6  C   UNL     1      33.445 -13.485 -24.186  0.00  0.00    +0.113 C 
ATOM      7  C   UNL     1      33.550 -13.600 -21.290  0.00  0.00    +0.117 C 
ATOM      8  C   UNL     1      32.361 -12.849 -23.324  0.00  0.00    +0.117 C 
ENDROOT
BRANCH   4  10
ATOM      9  N   UNL     1      35.012 -18.993 -21.338  0.00  0.00    -0.307 N 
ATOM     10  C   UNL     1      34.952 -16.900 -23.325  0.00  0.00    +0.080 C 
ATOM     11  C   UNL     1      34.305 -18.259 -23.580  0.00  0.00    +0.031 C 
ATOM     12  C   UNL     1      34.929 -16.582 -21.832  0.00  0.00    +0.031 C 
ATOM     13  C   UNL     1      34.973 -19.361 -22.758  0.00  0.00    +0.091 C 
ATOM     14  C   UNL     1      35.601 -17.685 -21.018  0.00  0.00    +0.091 C 
BRANCH   9  16
ATOM     15  N   UNL     1      35.316 -22.025 -18.416  0.00  0.00    -0.242 NA
ATOM     16  C   UNL     1      35.113 -20.000 -20.369  0.00  0.00    +0.051 C 
ATOM     17  C   UNL     1      33.973 -20.671 -19.902  0.00  0.00    +0.035 C 
ATOM     18  C   UNL     1      36.358 -20.366 -19.834  0.00  0.00    +0.035 C 
ATOM     19  C   UNL     1      34.126 -21.659 -18.943  0.00  0.00    +0.100 C 
ATOM     20  C   UNL     1      36.404 -21.368 -18.877  0.00  0.00    +0.100 C 
ENDBRANCH   9  16
ENDBRANCH   4  10
BRANCH   3  21
ATOM     21  S   UNL     1      31.963 -11.412 -21.058  0.00  0.00    +0.063 S 
ATOM     22  O   UNL     1      32.493 -11.366 -19.713  0.00  0.00    -0.153 OA
ATOM     23  O   UNL     1      30.574 -11.737 -21.302  0.00  0.00    -0.153 OA
BRANCH  21  25
ATOM     24 CL   UNL     1      32.539  -3.584 -24.233  0.00  0.00    -0.082 Cl
ATOM     25  C   UNL     1      32.302  -9.860 -21.826  0.00  0.00    +0.122 C 
ATOM     26  C   UNL     1      31.413  -8.811 -21.657  0.00  0.00    +0.020 C 
ATOM     27  C   UNL     1      33.449  -9.717 -22.584  0.00  0.00    +0.020 C 
ATOM     28  C   UNL     1      31.668  -7.569 -22.262  0.00  0.00    +0.001 C 
ATOM     29  C   UNL     1      32.838  -7.407 -23.041  0.00  0.00    +0.001 C 
ATOM     30  C   UNL     1      33.718  -8.490 -23.192  0.00  0.00    +0.001 C 
ATOM     31  C   UNL     1      30.787  -6.486 -22.111  0.00  0.00    +0.001 C 
ATOM     32  C   UNL     1      33.094  -6.165 -23.645  0.00  0.00    +0.011 C 
ATOM     33  C   UNL     1      31.057  -5.259 -22.719  0.00  0.00    +0.011 C 
ATOM     34  C   UNL     1      32.208  -5.099 -23.485  0.00  0.00    +0.058 C 
ENDBRANCH  21  25
ENDBRANCH   3  21
TORSDOF 4
ENDMDL
MODEL 3
REMARK VINA RESULT:     -11.3      2.964      4.795
REMARK  Name = 446399
REMARK  4 active torsions:
REMARK  status: ('A' for Active; 'I' for Inactive)
REMARK    1  A    between atoms: N_3  and  S_21
REMARK    2  A    between atoms: C_4  and  C_10
REMARK    3  A    between atoms: N_9  and  C_16
REMARK    4  A    between atoms: S_21  and  C_25
REMARK                            x       y       z     vdW  Elec       q    Type
REMARK                         _______ _______ _______ _____ _____    ______ ____
ROOT
ATOM      1  O   UNL     1      31.508 -10.317 -20.762  0.00  0.00    -0.275 OA
ATOM      2  N   UNL     1      33.051 -11.139 -22.291  0.00  0.00    -0.277 N 
ATOM      3  N   UNL     1      33.630 -13.257 -24.100  0.00  0.00    -0.152 NA
ATOM      4  C   UNL     1      32.341 -10.124 -21.652  0.00  0.00    +0.225 C 
ATOM      5  C   UNL     1      34.047 -10.944 -23.351  0.00  0.00    +0.113 C 
ATOM      6  C   UNL     1      32.881 -12.530 -21.869  0.00  0.00    +0.113 C 
ATOM      7  C   UNL     1      33.741 -11.837 -24.551  0.00  0.00    +0.117 C 
ATOM      8  C   UNL     1      32.568 -13.425 -23.062  0.00  0.00    +0.117 C 
ENDROOT
BRANCH   4  10
ATOM      9  N   UNL     1      31.927  -5.917 -22.221  0.00  0.00    -0.307 N 
ATOM     10  C   UNL     1      32.630  -8.713 -22.099  0.00  0.00    +0.080 C 
ATOM     11  C   UNL     1      32.754  -7.807 -20.877  0.00  0.00    +0.031 C 
ATOM     12  C   UNL     1      31.512  -8.213 -23.010  0.00  0.00    +0.031 C 
ATOM     13  C   UNL     1      32.967  -6.348 -21.281  0.00  0.00    +0.091 C 
ATOM     14  C   UNL     1      31.733  -6.756 -23.412  0.00  0.00    +0.091 C 
BRANCH   9  16
ATOM     15  N   UNL     1      31.025  -1.808 -22.575  0.00  0.00    -0.242 NA
ATOM     16  C   UNL     1      31.628  -4.553 -22.339  0.00  0.00    +0.051 C 
ATOM     17  C   UNL     1      31.906  -3.659 -21.294  0.00  0.00    +0.035 C 
ATOM     18  C   UNL     1      31.039  -4.040 -23.505  0.00  0.00    +0.035 C 
ATOM     19  C   UNL     1      31.591  -2.319 -21.460  0.00  0.00    +0.100 C 
ATOM     20  C   UNL     1      30.763  -2.684 -23.572  0.00  0.00    +0.100 C 
ENDBRANCH   9  16
ENDBRANCH   4  10
BRANCH   3  21
ATOM     21  S   UNL     1      33.621 -14.425 -25.353  0.00  0.00    +0.063 S 
ATOM     22  O   UNL     1      34.724 -14.162 -26.251  0.00  0.00    -0.153 OA
ATOM     23  O   UNL     1      32.270 -14.567 -25.851  0.00  0.00    -0.153 OA
BRANCH  21  25
ATOM     24 CL   UNL     1      35.948 -20.604 -20.052  0.00  0.00    -0.082 Cl
ATOM     25  C   UNL     1      34.013 -15.874 -24.424  0.00  0.00    +0.122 C 
ATOM     26  C   UNL     1      34.626 -15.742 -23.189  0.00  0.00    +0.020 C 
ATOM     27  C   UNL     1      33.702 -17.116 -24.946  0.00  0.00    +0.020 C 
ATOM     28  C   UNL     1      34.945 -16.885 -22.437  0.00  0.00    +0.001 C 
ATOM     29  C   UNL     1      34.632 -18.164 -22.957  0.00  0.00    +0.001 C 
ATOM     30  C   UNL     1      34.011 -18.262 -24.212  0.00  0.00    +0.001 C 
ATOM     31  C   UNL     1      35.565 -16.787 -21.182  0.00  0.00    +0.001 C 
ATOM     32  C   UNL     1      34.950 -19.307 -22.205  0.00  0.00    +0.011 C 
ATOM     33  C   UNL     1      35.875 -17.933 -20.449  0.00  0.00    +0.011 C 
ATOM     34  C   UNL     1      35.568 -19.191 -20.960  0.00  0.00    +0.058 C 
ENDBRANCH  21  25
ENDBRANCH   3  21
TORSDOF 4
ENDMDL
MODEL 4
REMARK VINA RESULT:     -11.2      1.699      2.197
REMARK  Name = 446399
REMARK  4 active torsions:
REMARK  status: ('A' for Active; 'I' for Inactive)
REMARK    1  A    between atoms: N_3  and  S_21
REMARK    2  A    between atoms: C_4  and  C_10
REMARK    3  A    between atoms: N_9  and  C_16
REMARK    4  A    between atoms: S_21  and  C_25
REMARK                            x       y       z     vdW  Elec       q    Type
REMARK                         _______ _______ _______ _____ _____    ______ ____
ROOT
ATOM      1  O   UNL     1      32.394 -13.543 -19.345  0.00  0.00    -0.275 OA
ATOM      2  N   UNL     1      34.009 -14.307 -20.830  0.00  0.00    -0.277 N 
ATOM      3  N   UNL     1      35.376 -16.607 -21.797  0.00  0.00    -0.152 NA
ATOM      4  C   UNL     1      32.957 -13.479 -20.442  0.00  0.00    +0.225 C 
ATOM      5  C   UNL     1      34.699 -14.258 -22.124  0.00  0.00    +0.113 C 
ATOM      6  C   UNL     1      34.559 -15.283 -19.888  0.00  0.00    +0.113 C 
ATOM      7  C   UNL     1      34.757 -15.645 -22.758  0.00  0.00    +0.117 C 
ATOM      8  C   UNL     1      34.613 -16.672 -20.514  0.00  0.00    +0.117 C 
ENDROOT
BRANCH   4  10
ATOM      9  N   UNL     1      32.422  -9.736 -22.417  0.00  0.00    -0.307 N 
ATOM     10  C   UNL     1      32.499 -12.454 -21.448  0.00  0.00    +0.080 C 
ATOM     11  C   UNL     1      33.715 -11.809 -22.107  0.00  0.00    +0.031 C 
ATOM     12  C   UNL     1      31.649 -11.388 -20.761  0.00  0.00    +0.031 C 
ATOM     13  C   UNL     1      33.305 -10.703 -23.079  0.00  0.00    +0.091 C 
ATOM     14  C   UNL     1      31.241 -10.288 -21.739  0.00  0.00    +0.091 C 
BRANCH   9  16
ATOM     15  N   UNL     1      32.127  -5.811 -23.941  0.00  0.00    -0.242 NA
ATOM     16  C   UNL     1      32.324  -8.434 -22.923  0.00  0.00    +0.051 C 
ATOM     17  C   UNL     1      33.473  -7.670 -23.179  0.00  0.00    +0.035 C 
ATOM     18  C   UNL     1      31.074  -7.853 -23.188  0.00  0.00    +0.035 C 
ATOM     19  C   UNL     1      33.322  -6.386 -23.680  0.00  0.00    +0.100 C 
ATOM     20  C   UNL     1      31.031  -6.562 -23.688  0.00  0.00    +0.100 C 
ENDBRANCH   9  16
ENDBRANCH   4  10
BRANCH   3  21
ATOM     21  S   UNL     1      35.821 -18.122 -22.461  0.00  0.00    +0.063 S 
ATOM     22  O   UNL     1      37.251 -18.293 -22.329  0.00  0.00    -0.153 OA
ATOM     23  O   UNL     1      35.165 -18.284 -23.740  0.00  0.00    -0.153 OA
BRANCH  21  25
ATOM     24 CL   UNL     1      33.198 -23.529 -16.497  0.00  0.00    -0.082 Cl
ATOM     25  C   UNL     1      35.039 -19.205 -21.307  0.00  0.00    +0.122 C 
ATOM     26  C   UNL     1      35.814 -19.888 -20.385  0.00  0.00    +0.020 C 
ATOM     27  C   UNL     1      33.665 -19.352 -21.343  0.00  0.00    +0.020 C 
ATOM     28  C   UNL     1      35.207 -20.753 -19.460  0.00  0.00    +0.001 C 
ATOM     29  C   UNL     1      33.801 -20.915 -19.484  0.00  0.00    +0.001 C 
ATOM     30  C   UNL     1      33.045 -20.207 -20.431  0.00  0.00    +0.001 C 
ATOM     31  C   UNL     1      35.964 -21.461 -18.512  0.00  0.00    +0.001 C 
ATOM     32  C   UNL     1      33.193 -21.779 -18.558  0.00  0.00    +0.011 C 
ATOM     33  C   UNL     1      35.344 -22.316 -17.601  0.00  0.00    +0.011 C 
ATOM     34  C   UNL     1      33.961 -22.475 -17.624  0.00  0.00    +0.058 C 
ENDBRANCH  21  25
ENDBRANCH   3  21
TORSDOF 4
ENDMDL
MODEL 5
REMARK VINA RESULT:     -11.0      2.123      3.301
REMARK  Name = 446399
REMARK  4 active torsions:
REMARK  status: ('A' for Active; 'I' for Inactive)
REMARK    1  A    between atoms: N_3  and  S_21
REMARK    2  A    between atoms: C_4  and  C_10
REMARK    3  A    between atoms: N_9  and  C_16
REMARK    4  A    between atoms: S_21  and  C_25
REMARK                            x       y       z     vdW  Elec       q    Type
REMARK                         _______ _______ _______ _____ _____    ______ ____
ROOT
ATOM      1  O   UNL     1      32.806 -11.993 -20.036  0.00  0.00    -0.275 OA
ATOM      2  N   UNL     1      33.681 -12.833 -22.017  0.00  0.00    -0.277 N 
ATOM      3  N   UNL     1      34.349 -15.203 -23.443  0.00  0.00    -0.152 NA
ATOM      4  C   UNL     1      32.936 -11.929 -21.262  0.00  0.00    +0.225 C 
ATOM      5  C   UNL     1      33.855 -12.787 -23.474  0.00  0.00    +0.113 C 
ATOM      6  C   UNL     1      34.428 -13.902 -21.352  0.00  0.00    +0.113 C 
ATOM      7  C   UNL     1      33.531 -14.140 -24.100  0.00  0.00    +0.117 C 
ATOM      8  C   UNL     1      34.103 -15.258 -21.970  0.00  0.00    +0.117 C 
ENDROOT
BRANCH   4  10
ATOM      9  N   UNL     1      31.628  -8.020 -22.361  0.00  0.00    -0.307 N 
ATOM     10  C   UNL     1      32.256 -10.817 -22.019  0.00  0.00    +0.080 C 
ATOM     11  C   UNL     1      33.304  -9.820 -22.507  0.00  0.00    +0.031 C 
ATOM     12  C   UNL     1      31.243 -10.113 -21.120  0.00  0.00    +0.031 C 
ATOM     13  C   UNL     1      32.657  -8.628 -23.213  0.00  0.00    +0.091 C 
ATOM     14  C   UNL     1      30.598  -8.926 -21.834  0.00  0.00    +0.091 C 
BRANCH   9  16
ATOM     15  N   UNL     1      30.536  -3.990 -22.980  0.00  0.00    -0.242 NA
ATOM     16  C   UNL     1      31.266  -6.683 -22.566  0.00  0.00    +0.051 C 
ATOM     17  C   UNL     1      30.841  -5.877 -21.500  0.00  0.00    +0.035 C 
ATOM     18  C   UNL     1      31.316  -6.109 -23.846  0.00  0.00    +0.035 C 
ATOM     19  C   UNL     1      30.494  -4.559 -21.755  0.00  0.00    +0.100 C 
ATOM     20  C   UNL     1      30.947  -4.781 -23.997  0.00  0.00    +0.100 C 
ENDBRANCH   9  16
ENDBRANCH   4  10
BRANCH   3  21
ATOM     21  S   UNL     1      34.359 -16.720 -24.240  0.00  0.00    +0.063 S 
ATOM     22  O   UNL     1      35.369 -16.702 -25.275  0.00  0.00    -0.153 OA
ATOM     23  O   UNL     1      32.995 -17.103 -24.533  0.00  0.00    -0.153 OA
BRANCH  21  25
ATOM     24 CL   UNL     1      35.997 -22.029 -17.851  0.00  0.00    -0.082 Cl
ATOM     25  C   UNL     1      34.944 -17.750 -22.932  0.00  0.00    +0.122 C 
ATOM     26  C   UNL     1      34.046 -18.555 -22.250  0.00  0.00    +0.020 C 
ATOM     27  C   UNL     1      36.288 -17.738 -22.611  0.00  0.00    +0.020 C 
ATOM     28  C   UNL     1      34.495 -19.381 -21.206  0.00  0.00    +0.001 C 
ATOM     29  C   UNL     1      35.869 -19.380 -20.865  0.00  0.00    +0.001 C 
ATOM     30  C   UNL     1      36.752 -18.553 -21.577  0.00  0.00    +0.001 C 
ATOM     31  C   UNL     1      33.611 -20.209 -20.495  0.00  0.00    +0.001 C 
ATOM     32  C   UNL     1      36.318 -20.207 -19.822  0.00  0.00    +0.011 C 
ATOM     33  C   UNL     1      34.076 -21.023 -19.461  0.00  0.00    +0.011 C 
ATOM     34  C   UNL     1      35.426 -21.022 -19.125  0.00  0.00    +0.058 C 
ENDBRANCH  21  25
ENDBRANCH   3  21
TORSDOF 4
ENDMDL
MODEL 6
REMARK VINA RESULT:     -10.7      4.845     11.778
REMARK  Name = 446399
REMARK  4 active torsions:
REMARK  status: ('A' for Active; 'I' for Inactive)
REMARK    1  A    between atoms: N_3  and  S_21
REMARK    2  A    between atoms: C_4  and  C_10
REMARK    3  A    between atoms: N_9  and  C_16
REMARK    4  A    between atoms: S_21  and  C_25
REMARK                            x       y       z     vdW  Elec       q    Type
REMARK                         _______ _______ _______ _____ _____    ______ ____
ROOT
ATOM      1  O   UNL     1      32.208 -21.442 -17.906  0.00  0.00    -0.275 OA
ATOM      2  N   UNL     1      34.075 -21.384 -19.288  0.00  0.00    -0.277 N 
ATOM      3  N   UNL     1      35.639 -19.753 -21.016  0.00  0.00    -0.152 NA
ATOM      4  C   UNL     1      33.367 -21.785 -18.156  0.00  0.00    +0.225 C 
ATOM      5  C   UNL     1      35.452 -21.774 -19.614  0.00  0.00    +0.113 C 
ATOM      6  C   UNL     1      33.422 -20.559 -20.305  0.00  0.00    +0.113 C 
ATOM      7  C   UNL     1      36.299 -20.545 -19.935  0.00  0.00    +0.117 C 
ATOM      8  C   UNL     1      34.261 -19.326 -20.625  0.00  0.00    +0.117 C 
ENDROOT
BRANCH   4  10
ATOM      9  N   UNL     1      35.152 -23.247 -14.568  0.00  0.00    -0.307 N 
ATOM     10  C   UNL     1      34.091 -22.693 -17.194  0.00  0.00    +0.080 C 
ATOM     11  C   UNL     1      33.174 -23.024 -16.019  0.00  0.00    +0.031 C 
ATOM     12  C   UNL     1      35.364 -22.017 -16.691  0.00  0.00    +0.031 C 
ATOM     13  C   UNL     1      33.891 -23.878 -14.973  0.00  0.00    +0.091 C 
ATOM     14  C   UNL     1      36.075 -22.878 -15.650  0.00  0.00    +0.091 C 
BRANCH   9  16
ATOM     15  N   UNL     1      36.839 -24.203 -10.818  0.00  0.00    -0.242 NA
ATOM     16  C   UNL     1      35.712 -23.564 -13.324  0.00  0.00    +0.051 C 
ATOM     17  C   UNL     1      37.047 -23.248 -13.029  0.00  0.00    +0.035 C 
ATOM     18  C   UNL     1      34.954 -24.209 -12.333  0.00  0.00    +0.035 C 
ATOM     19  C   UNL     1      37.553 -23.583 -11.783  0.00  0.00    +0.100 C 
ATOM     20  C   UNL     1      35.555 -24.500 -11.119  0.00  0.00    +0.100 C 
ENDBRANCH   9  16
ENDBRANCH   4  10
BRANCH   3  21
ATOM     21  S   UNL     1      36.609 -18.533 -21.727  0.00  0.00    +0.063 S 
ATOM     22  O   UNL     1      36.615 -18.711 -23.162  0.00  0.00    -0.153 OA
ATOM     23  O   UNL     1      37.845 -18.424 -20.982  0.00  0.00    -0.153 OA
BRANCH  21  25
ATOM     24 CL   UNL     1      31.844 -11.554 -21.197  0.00  0.00    -0.082 Cl
ATOM     25  C   UNL     1      35.629 -17.111 -21.363  0.00  0.00    +0.122 C 
ATOM     26  C   UNL     1      35.144 -16.337 -22.404  0.00  0.00    +0.020 C 
ATOM     27  C   UNL     1      35.360 -16.794 -20.044  0.00  0.00    +0.020 C 
ATOM     28  C   UNL     1      34.363 -15.202 -22.131  0.00  0.00    +0.001 C 
ATOM     29  C   UNL     1      34.079 -14.864 -20.787  0.00  0.00    +0.001 C 
ATOM     30  C   UNL     1      34.585 -15.671 -19.755  0.00  0.00    +0.001 C 
ATOM     31  C   UNL     1      33.856 -14.396 -23.164  0.00  0.00    +0.001 C 
ATOM     32  C   UNL     1      33.296 -13.730 -20.513  0.00  0.00    +0.011 C 
ATOM     33  C   UNL     1      33.081 -13.272 -22.874  0.00  0.00    +0.011 C 
ATOM     34  C   UNL     1      32.802 -12.940 -21.551  0.00  0.00    +0.058 C 
ENDBRANCH  21  25
ENDBRANCH   3  21
TORSDOF 4
ENDMDL
MODEL 7
REMARK VINA RESULT:     -10.3      3.615      6.347
REMARK  Name = 446399
REMARK  4 active torsions:
REMARK  status: ('A' for Active; 'I' for Inactive)
REMARK    1  A    between atoms: N_3  and  S_21
REMARK    2  A    between atoms: C_4  and  C_10
REMARK    3  A    between atoms: N_9  and  C_16
REMARK    4  A    between atoms: S_21  and  C_25
REMARK                            x       y       z     vdW  Elec       q    Type
REMARK                         _______ _______ _______ _____ _____    ______ ____
ROOT
ATOM      1  O   UNL     1      36.923 -17.908 -20.280  0.00  0.00    -0.275 OA
ATOM      2  N   UNL     1      35.323 -19.583 -20.442  0.00  0.00    -0.277 N 
ATOM      3  N   UNL     1      34.187 -21.847 -19.145  0.00  0.00    -0.152 NA
ATOM      4  C   UNL     1      35.801 -18.288 -20.627  0.00  0.00    +0.225 C 
ATOM      5  C   UNL     1      33.996 -20.067 -20.842  0.00  0.00    +0.113 C 
ATOM      6  C   UNL     1      36.192 -20.610 -19.865  0.00  0.00    +0.113 C 
ATOM      7  C   UNL     1      33.302 -20.767 -19.677  0.00  0.00    +0.117 C 
ATOM      8  C   UNL     1      35.506 -21.308 -18.696  0.00  0.00    +0.117 C 
ENDROOT
BRANCH   4  10
ATOM      9  N   UNL     1      34.408 -14.926 -22.854  0.00  0.00    -0.307 N 
ATOM     10  C   UNL     1      34.866 -17.311 -21.294  0.00  0.00    +0.080 C 
ATOM     11  C   UNL     1      35.154 -17.273 -22.792  0.00  0.00    +0.031 C 
ATOM     12  C   UNL     1      35.042 -15.920 -20.691  0.00  0.00    +0.031 C 
ATOM     13  C   UNL     1      34.284 -16.236 -23.504  0.00  0.00    +0.091 C 
ATOM     14  C   UNL     1      34.168 -14.891 -21.404  0.00  0.00    +0.091 C 
BRANCH   9  16
ATOM     15  N   UNL     1      33.535 -11.429 -25.051  0.00  0.00    -0.242 NA
ATOM     16  C   UNL     1      34.119 -13.766 -23.583  0.00  0.00    +0.051 C 
ATOM     17  C   UNL     1      34.305 -12.494 -23.022  0.00  0.00    +0.035 C 
ATOM     18  C   UNL     1      33.631 -13.841 -24.897  0.00  0.00    +0.035 C 
ATOM     19  C   UNL     1      34.004 -11.376 -23.785  0.00  0.00    +0.100 C 
ATOM     20  C   UNL     1      33.361 -12.663 -25.576  0.00  0.00    +0.100 C 
ENDBRANCH   9  16
ENDBRANCH   4  10
BRANCH   3  21
ATOM     21  S   UNL     1      33.437 -22.944 -18.064  0.00  0.00    +0.063 S 
ATOM     22  O   UNL     1      33.490 -24.274 -18.629  0.00  0.00    -0.153 OA
ATOM     23  O   UNL     1      32.186 -22.374 -17.612  0.00  0.00    -0.153 OA
BRANCH  21  25
ATOM     24 CL   UNL     1      38.032 -23.163 -10.956  0.00  0.00    -0.082 Cl
ATOM     25  C   UNL     1      34.580 -22.880 -16.721  0.00  0.00    +0.122 C 
ATOM     26  C   UNL     1      34.197 -23.365 -15.481  0.00  0.00    +0.020 C 
ATOM     27  C   UNL     1      35.840 -22.350 -16.930  0.00  0.00    +0.020 C 
ATOM     28  C   UNL     1      35.096 -23.322 -14.402  0.00  0.00    +0.001 C 
ATOM     29  C   UNL     1      36.388 -22.781 -14.599  0.00  0.00    +0.001 C 
ATOM     30  C   UNL     1      36.745 -22.300 -15.869  0.00  0.00    +0.001 C 
ATOM     31  C   UNL     1      34.739 -23.804 -13.132  0.00  0.00    +0.001 C 
ATOM     32  C   UNL     1      37.287 -22.739 -13.520  0.00  0.00    +0.011 C 
ATOM     33  C   UNL     1      35.644 -23.753 -12.071  0.00  0.00    +0.011 C 
ATOM     34  C   UNL     1      36.916 -23.222 -12.265  0.00  0.00    +0.058 C 
ENDBRANCH  21  25
ENDBRANCH   3  21
TORSDOF 4
ENDMDL
MODEL 8
REMARK VINA RESULT:     -10.1      4.576     11.405
REMARK  Name = 446399
REMARK  4 active torsions:
REMARK  status: ('A' for Active; 'I' for Inactive)
REMARK    1  A    between atoms: N_3  and  S_21
REMARK    2  A    between atoms: C_4  and  C_10
REMARK    3  A    between atoms: N_9  and  C_16
REMARK    4  A    between atoms: S_21  and  C_25
REMARK                            x       y       z     vdW  Elec       q    Type
REMARK                         _______ _______ _______ _____ _____    ______ ____
ROOT
ATOM      1  O   UNL     1      36.940 -21.177 -19.290  0.00  0.00    -0.275 OA
ATOM      2  N   UNL     1      35.228 -19.945 -20.263  0.00  0.00    -0.277 N 
ATOM      3  N   UNL     1      34.451 -18.454 -22.559  0.00  0.00    -0.152 NA
ATOM      4  C   UNL     1      35.737 -20.991 -19.496  0.00  0.00    +0.225 C 
ATOM      5  C   UNL     1      33.806 -19.696 -20.527  0.00  0.00    +0.113 C 
ATOM      6  C   UNL     1      36.133 -18.942 -20.826  0.00  0.00    +0.113 C 
ATOM      7  C   UNL     1      33.556 -19.524 -22.023  0.00  0.00    +0.117 C 
ATOM      8  C   UNL     1      35.893 -18.770 -22.322  0.00  0.00    +0.117 C 
ENDROOT
BRANCH   4  10
ATOM      9  N   UNL     1      32.875 -22.645 -16.799  0.00  0.00    -0.307 N 
ATOM     10  C   UNL     1      34.730 -21.939 -18.895  0.00  0.00    +0.080 C 
ATOM     11  C   UNL     1      33.387 -21.228 -18.748  0.00  0.00    +0.031 C 
ATOM     12  C   UNL     1      35.216 -22.425 -17.532  0.00  0.00    +0.031 C 
ATOM     13  C   UNL     1      32.352 -22.123 -18.067  0.00  0.00    +0.091 C 
ATOM     14  C   UNL     1      34.178 -23.321 -16.860  0.00  0.00    +0.091 C 
BRANCH   9  16
ATOM     15  N   UNL     1      30.180 -23.887 -13.797  0.00  0.00    -0.242 NA
ATOM     16  C   UNL     1      31.981 -23.057 -15.803  0.00  0.00    +0.051 C 
ATOM     17  C   UNL     1      32.444 -23.614 -14.601  0.00  0.00    +0.035 C 
ATOM     18  C   UNL     1      30.594 -22.925 -15.977  0.00  0.00    +0.035 C 
ATOM     19  C   UNL     1      31.518 -24.006 -13.647  0.00  0.00    +0.100 C 
ATOM     20  C   UNL     1      29.752 -23.348 -14.960  0.00  0.00    +0.100 C 
ENDBRANCH   9  16
ENDBRANCH   4  10
BRANCH   3  21
ATOM     21  S   UNL     1      34.073 -17.902 -24.136  0.00  0.00    +0.063 S 
ATOM     22  O   UNL     1      32.709 -18.266 -24.448  0.00  0.00    -0.153 OA
ATOM     23  O   UNL     1      35.160 -18.247 -25.026  0.00  0.00    -0.153 OA
BRANCH  21  25
ATOM     24 CL   UNL     1      33.842  -9.440 -23.998  0.00  0.00    -0.082 Cl
ATOM     25  C   UNL     1      34.120 -16.158 -23.870  0.00  0.00    +0.122 C 
ATOM     26  C   UNL     1      33.694 -15.308 -24.877  0.00  0.00    +0.020 C 
ATOM     27  C   UNL     1      34.581 -15.671 -22.661  0.00  0.00    +0.020 C 
ATOM     28  C   UNL     1      33.725 -13.917 -24.681  0.00  0.00    +0.001 C 
ATOM     29  C   UNL     1      34.194 -13.402 -23.449  0.00  0.00    +0.001 C 
ATOM     30  C   UNL     1      34.618 -14.292 -22.450  0.00  0.00    +0.001 C 
ATOM     31  C   UNL     1      33.300 -13.027 -25.681  0.00  0.00    +0.001 C 
ATOM     32  C   UNL     1      34.224 -12.011 -23.253  0.00  0.00    +0.011 C 
ATOM     33  C   UNL     1      33.338 -11.648 -25.469  0.00  0.00    +0.011 C 
ATOM     34  C   UNL     1      33.799 -11.141 -24.258  0.00  0.00    +0.058 C 
ENDBRANCH  21  25
ENDBRANCH   3  21
TORSDOF 4
ENDMDL
MODEL 9
REMARK VINA RESULT:     -10.0      3.332      5.307
REMARK  Name = 446399
REMARK  4 active torsions:
REMARK  status: ('A' for Active; 'I' for Inactive)
REMARK    1  A    between atoms: N_3  and  S_21
REMARK    2  A    between atoms: C_4  and  C_10
REMARK    3  A    between atoms: N_9  and  C_16
REMARK    4  A    between atoms: S_21  and  C_25
REMARK                            x       y       z     vdW  Elec       q    Type
REMARK                         _______ _______ _______ _____ _____    ______ ____
ROOT
ATOM      1  O   UNL     1      31.146  -9.977 -20.471  0.00  0.00    -0.275 OA
ATOM      2  N   UNL     1      32.688 -10.574 -22.102  0.00  0.00    -0.277 N 
ATOM      3  N   UNL     1      33.375 -12.534 -24.046  0.00  0.00    -0.152 NA
ATOM      4  C   UNL     1      31.918  -9.663 -21.380  0.00  0.00    +0.225 C 
ATOM      5  C   UNL     1      33.614 -10.234 -23.189  0.00  0.00    +0.113 C 
ATOM      6  C   UNL     1      32.663 -11.994 -21.751  0.00  0.00    +0.113 C 
ATOM      7  C   UNL     1      33.337 -11.089 -24.422  0.00  0.00    +0.117 C 
ATOM      8  C   UNL     1      32.379 -12.853 -22.978  0.00  0.00    +0.117 C 
ENDROOT
BRANCH   4  10
ATOM      9  N   UNL     1      32.973  -6.160 -23.574  0.00  0.00    -0.307 N 
ATOM     10  C   UNL     1      32.058  -8.211 -21.761  0.00  0.00    +0.080 C 
ATOM     11  C   UNL     1      31.368  -7.968 -23.101  0.00  0.00    +0.031 C 
ATOM     12  C   UNL     1      33.534  -7.833 -21.857  0.00  0.00    +0.031 C 
ATOM     13  C   UNL     1      31.552  -6.525 -23.572  0.00  0.00    +0.091 C 
ATOM     14  C   UNL     1      33.709  -6.390 -22.323  0.00  0.00    +0.091 C 
BRANCH   9  16
ATOM     15  N   UNL     1      34.304  -3.018 -26.060  0.00  0.00    -0.242 NA
ATOM     16  C   UNL     1      33.414  -5.118 -24.399  0.00  0.00    +0.051 C 
ATOM     17  C   UNL     1      34.592  -5.240 -25.152  0.00  0.00    +0.035 C 
ATOM     18  C   UNL     1      32.693  -3.918 -24.497  0.00  0.00    +0.035 C 
ATOM     19  C   UNL     1      34.986  -4.180 -25.953  0.00  0.00    +0.100 C 
ATOM     20  C   UNL     1      33.172  -2.917 -25.328  0.00  0.00    +0.100 C 
ENDBRANCH   9  16
ENDBRANCH   4  10
BRANCH   3  21
ATOM     21  S   UNL     1      33.416 -13.633 -25.360  0.00  0.00    +0.063 S 
ATOM     22  O   UNL     1      34.488 -13.258 -26.255  0.00  0.00    -0.153 OA
ATOM     23  O   UNL     1      32.068 -13.828 -25.849  0.00  0.00    -0.153 OA
BRANCH  21  25
ATOM     24 CL   UNL     1      36.004 -19.951 -20.352  0.00  0.00    -0.082 Cl
ATOM     25  C   UNL     1      33.906 -15.103 -24.515  0.00  0.00    +0.122 C 
ATOM     26  C   UNL     1      34.358 -15.016 -23.209  0.00  0.00    +0.020 C 
ATOM     27  C   UNL     1      33.828 -16.318 -25.171  0.00  0.00    +0.020 C 
ATOM     28  C   UNL     1      34.751 -16.177 -22.522  0.00  0.00    +0.001 C 
ATOM     29  C   UNL     1      34.678 -17.428 -23.180  0.00  0.00    +0.001 C 
ATOM     30  C   UNL     1      34.215 -17.481 -24.504  0.00  0.00    +0.001 C 
ATOM     31  C   UNL     1      35.215 -16.123 -21.197  0.00  0.00    +0.001 C 
ATOM     32  C   UNL     1      35.071 -18.589 -22.493  0.00  0.00    +0.011 C 
ATOM     33  C   UNL     1      35.601 -17.287 -20.531  0.00  0.00    +0.011 C 
ATOM     34  C   UNL     1      35.529 -18.517 -21.178  0.00  0.00    +0.058 C 
ENDBRANCH  21  25
ENDBRANCH   3  21
TORSDOF 4
ENDMDL
