MODEL 1
REMARK VINA RESULT:     -11.7      0.000      0.000
REMARK  Name = 447734
REMARK  5 active torsions:
REMARK  status: ('A' for Active; 'I' for Inactive)
REMARK    1  A    between atoms: C_3  and  C_19
REMARK    2  A    between atoms: C_9  and  C_13
REMARK    3  A    between atoms: N_18  and  C_24
REMARK    4  A    between atoms: C_21  and  O_27
REMARK    5  A    between atoms: O_27  and  C_28
REMARK                            x       y       z     vdW  Elec       q    Type
REMARK                         _______ _______ _______ _____ _____    ______ ____
ROOT
ATOM      1  C   UNL     1      35.194 -20.165 -20.090  0.00  0.00    +0.000 C 
ATOM      2  C   UNL     1      33.992 -19.745 -20.707  0.00  0.00    +0.000 C 
ATOM      3  C   UNL     1      33.934 -21.747 -18.739  0.00  0.00    +0.054 C 
ATOM      4  C   UNL     1      35.148 -21.167 -19.107  0.00  0.00    +0.005 C 
ATOM      5  C   UNL     1      32.779 -20.340 -20.325  0.00  0.00    +0.000 C 
ATOM      6  C   UNL     1      32.752 -21.334 -19.347  0.00  0.00    +0.005 C 
ATOM      7  C   UNL     1      34.039 -18.742 -21.691  0.00  0.00    +0.003 C 
ATOM      8  C   UNL     1      36.408 -19.570 -20.473  0.00  0.00    +0.000 C 
ATOM      9  C   UNL     1      35.253 -18.163 -22.059  0.00  0.00    +0.031 C 
ATOM     10  C   UNL     1      36.436 -18.576 -21.451  0.00  0.00    +0.003 C 
ENDROOT
BRANCH   9  13
ATOM     11  N   UNL     1      34.692 -17.318 -24.325  0.00  0.00    -0.343 N 
ATOM     12  N   UNL     1      35.889 -15.978 -22.831  0.00  0.00    -0.285 NA
ATOM     13  C   UNL     1      35.285 -17.126 -23.078  0.00  0.00    +0.117 C 
ATOM     14  H   UNL     1      34.725 -16.602 -25.001  0.00  0.00    +0.144 HD
ATOM     15  H   UNL     1      34.240 -18.168 -24.530  0.00  0.00    +0.144 HD
ATOM     16  H   UNL     1      35.911 -15.274 -23.519  0.00  0.00    +0.188 HD
ENDBRANCH   9  13
BRANCH   3  19
ATOM     17  O   UNL     1      33.780 -23.970 -18.067  0.00  0.00    -0.270 OA
ATOM     18  N   UNL     1      34.041 -22.343 -16.395  0.00  0.00    -0.280 N 
ATOM     19  C   UNL     1      33.902 -22.784 -17.719  0.00  0.00    +0.249 C 
ATOM     20  H   UNL     1      34.129 -21.371 -16.275  0.00  0.00    +0.155 HD
BRANCH  18  24
ATOM     21  C   UNL     1      35.317 -24.122 -13.423  0.00  0.00    +0.140 C 
ATOM     22  C   UNL     1      35.287 -23.360 -14.591  0.00  0.00    +0.052 C 
ATOM     23  C   UNL     1      34.131 -24.628 -12.891  0.00  0.00    +0.037 C 
ATOM     24  C   UNL     1      34.072 -23.116 -15.208  0.00  0.00    +0.054 C 
ATOM     25  C   UNL     1      32.916 -24.373 -13.526  0.00  0.00    +0.004 C 
ATOM     26  C   UNL     1      32.886 -23.612 -14.693  0.00  0.00    +0.015 C 
BRANCH  21  27
ATOM     27  O   UNL     1      36.502 -24.371 -12.803  0.00  0.00    -0.479 OA
BRANCH  27  28
ATOM     28  C   UNL     1      36.888 -25.733 -12.668  0.00  0.00    +0.166 C 
ATOM     29  C   UNL     1      38.229 -25.811 -11.954  0.00  0.00    +0.044 C 
ATOM     30  C   UNL     1      37.190 -26.335 -14.032  0.00  0.00    +0.044 C 
ATOM     31  C   UNL     1      39.259 -25.501 -13.039  0.00  0.00    +0.004 C 
ATOM     32  C   UNL     1      38.581 -25.808 -14.374  0.00  0.00    +0.004 C 
ENDBRANCH  27  28
ENDBRANCH  21  27
ENDBRANCH  18  24
ENDBRANCH   3  19
TORSDOF 5
ENDMDL
MODEL 2
REMARK VINA RESULT:     -11.7      7.832     12.066
REMARK  Name = 447734
REMARK  5 active torsions:
REMARK  status: ('A' for Active; 'I' for Inactive)
REMARK    1  A    between atoms: C_3  and  C_19
REMARK    2  A    between atoms: C_9  and  C_13
REMARK    3  A    between atoms: N_18  and  C_24
REMARK    4  A    between atoms: C_21  and  O_27
REMARK    5  A    between atoms: O_27  and  C_28
REMARK                            x       y       z     vdW  Elec       q    Type
REMARK                         _______ _______ _______ _____ _____    ______ ____
ROOT
ATOM      1  C   UNL     1      32.098  -8.767 -22.107  0.00  0.00    +0.000 C 
ATOM      2  C   UNL     1      31.678  -8.324 -20.830  0.00  0.00    +0.000 C 
ATOM      3  C   UNL     1      32.207 -11.047 -21.267  0.00  0.00    +0.054 C 
ATOM      4  C   UNL     1      32.358 -10.132 -22.309  0.00  0.00    +0.005 C 
ATOM      5  C   UNL     1      31.532  -9.258 -19.793  0.00  0.00    +0.000 C 
ATOM      6  C   UNL     1      31.795 -10.611 -20.011  0.00  0.00    +0.005 C 
ATOM      7  C   UNL     1      31.418  -6.958 -20.629  0.00  0.00    +0.003 C 
ATOM      8  C   UNL     1      32.244  -7.832 -23.145  0.00  0.00    +0.000 C 
ATOM      9  C   UNL     1      31.568  -6.043 -21.671  0.00  0.00    +0.031 C 
ATOM     10  C   UNL     1      31.980  -6.479 -22.927  0.00  0.00    +0.003 C 
ENDROOT
BRANCH   9  13
ATOM     11  N   UNL     1      30.050  -4.080 -21.741  0.00  0.00    -0.343 N 
ATOM     12  N   UNL     1      32.238  -3.849 -20.956  0.00  0.00    -0.285 NA
ATOM     13  C   UNL     1      31.294  -4.633 -21.445  0.00  0.00    +0.117 C 
ATOM     14  H   UNL     1      29.885  -3.122 -21.580  0.00  0.00    +0.144 HD
ATOM     15  H   UNL     1      29.334  -4.647 -22.110  0.00  0.00    +0.144 HD
ATOM     16  H   UNL     1      32.055  -2.894 -20.803  0.00  0.00    +0.188 HD
ENDBRANCH   9  13
BRANCH   3  19
ATOM     17  O   UNL     1      31.909 -13.304 -20.786  0.00  0.00    -0.270 OA
ATOM     18  N   UNL     1      33.377 -12.748 -22.531  0.00  0.00    -0.280 N 
ATOM     19  C   UNL     1      32.482 -12.457 -21.492  0.00  0.00    +0.249 C 
ATOM     20  H   UNL     1      33.753 -11.970 -23.002  0.00  0.00    +0.155 HD
BRANCH  18  24
ATOM     21  C   UNL     1      34.937 -16.093 -22.583  0.00  0.00    +0.140 C 
ATOM     22  C   UNL     1      34.508 -14.846 -22.129  0.00  0.00    +0.052 C 
ATOM     23  C   UNL     1      34.662 -16.491 -23.891  0.00  0.00    +0.037 C 
ATOM     24  C   UNL     1      33.811 -14.016 -22.991  0.00  0.00    +0.054 C 
ATOM     25  C   UNL     1      33.960 -15.642 -24.746  0.00  0.00    +0.004 C 
ATOM     26  C   UNL     1      33.531 -14.395 -24.293  0.00  0.00    +0.015 C 
BRANCH  21  27
ATOM     27  O   UNL     1      35.623 -16.921 -21.750  0.00  0.00    -0.479 OA
BRANCH  27  28
ATOM     28  C   UNL     1      36.092 -18.147 -22.299  0.00  0.00    +0.166 C 
ATOM     29  C   UNL     1      35.092 -19.252 -21.996  0.00  0.00    +0.044 C 
ATOM     30  C   UNL     1      37.345 -18.608 -21.570  0.00  0.00    +0.044 C 
ATOM     31  C   UNL     1      35.385 -19.648 -20.549  0.00  0.00    +0.004 C 
ATOM     32  C   UNL     1      36.821 -19.207 -20.266  0.00  0.00    +0.004 C 
ENDBRANCH  27  28
ENDBRANCH  21  27
ENDBRANCH  18  24
ENDBRANCH   3  19
TORSDOF 5
ENDMDL
MODEL 3
REMARK VINA RESULT:     -11.6      8.392     12.879
REMARK  Name = 447734
REMARK  5 active torsions:
REMARK  status: ('A' for Active; 'I' for Inactive)
REMARK    1  A    between atoms: C_3  and  C_19
REMARK    2  A    between atoms: C_9  and  C_13
REMARK    3  A    between atoms: N_18  and  C_24
REMARK    4  A    between atoms: C_21  and  O_27
REMARK    5  A    between atoms: O_27  and  C_28
REMARK                            x       y       z     vdW  Elec       q    Type
REMARK                         _______ _______ _______ _____ _____    ______ ____
ROOT
ATOM      1  C   UNL     1      33.173  -7.544 -23.039  0.00  0.00    +0.000 C 
ATOM      2  C   UNL     1      32.206  -7.639 -22.010  0.00  0.00    +0.000 C 
ATOM      3  C   UNL     1      33.327  -9.971 -23.101  0.00  0.00    +0.054 C 
ATOM      4  C   UNL     1      33.724  -8.720 -23.573  0.00  0.00    +0.005 C 
ATOM      5  C   UNL     1      31.818  -8.906 -21.547  0.00  0.00    +0.000 C 
ATOM      6  C   UNL     1      32.375 -10.064 -22.090  0.00  0.00    +0.005 C 
ATOM      7  C   UNL     1      31.654  -6.462 -21.476  0.00  0.00    +0.003 C 
ATOM      8  C   UNL     1      33.561  -6.276 -23.502  0.00  0.00    +0.000 C 
ATOM      9  C   UNL     1      32.051  -5.211 -21.948  0.00  0.00    +0.031 C 
ATOM     10  C   UNL     1      33.002  -5.118 -22.960  0.00  0.00    +0.003 C 
ENDROOT
BRANCH   9  13
ATOM     11  N   UNL     1      30.127  -3.685 -21.578  0.00  0.00    -0.343 N 
ATOM     12  N   UNL     1      32.223  -3.179 -20.677  0.00  0.00    -0.285 NA
ATOM     13  C   UNL     1      31.470  -4.003 -21.384  0.00  0.00    +0.117 C 
ATOM     14  H   UNL     1      29.755  -2.862 -21.186  0.00  0.00    +0.144 HD
ATOM     15  H   UNL     1      29.550  -4.285 -22.105  0.00  0.00    +0.144 HD
ATOM     16  H   UNL     1      31.832  -2.361 -20.294  0.00  0.00    +0.188 HD
ENDBRANCH   9  13
BRANCH   3  19
ATOM     17  O   UNL     1      34.877 -11.080 -24.436  0.00  0.00    -0.270 OA
ATOM     18  N   UNL     1      33.323 -12.386 -23.258  0.00  0.00    -0.280 N 
ATOM     19  C   UNL     1      33.908 -11.179 -23.665  0.00  0.00    +0.249 C 
ATOM     20  H   UNL     1      32.560 -12.305 -22.643  0.00  0.00    +0.155 HD
BRANCH  18  24
ATOM     21  C   UNL     1      34.675 -15.814 -23.040  0.00  0.00    +0.140 C 
ATOM     22  C   UNL     1      34.316 -14.514 -22.685  0.00  0.00    +0.052 C 
ATOM     23  C   UNL     1      34.400 -16.287 -24.323  0.00  0.00    +0.037 C 
ATOM     24  C   UNL     1      33.687 -13.707 -23.618  0.00  0.00    +0.054 C 
ATOM     25  C   UNL     1      33.766 -15.461 -25.251  0.00  0.00    +0.004 C 
ATOM     26  C   UNL     1      33.407 -14.161 -24.896  0.00  0.00    +0.015 C 
BRANCH  21  27
ATOM     27  O   UNL     1      35.294 -16.620 -22.136  0.00  0.00    -0.479 OA
BRANCH  27  28
ATOM     28  C   UNL     1      35.706 -17.904 -22.589  0.00  0.00    +0.166 C 
ATOM     29  C   UNL     1      34.676 -18.942 -22.172  0.00  0.00    +0.044 C 
ATOM     30  C   UNL     1      36.960 -18.348 -21.852  0.00  0.00    +0.044 C 
ATOM     31  C   UNL     1      34.992 -19.227 -20.704  0.00  0.00    +0.004 C 
ATOM     32  C   UNL     1      36.449 -18.816 -20.491  0.00  0.00    +0.004 C 
ENDBRANCH  27  28
ENDBRANCH  21  27
ENDBRANCH  18  24
ENDBRANCH   3  19
TORSDOF 5
ENDMDL
MODEL 4
REMARK VINA RESULT:     -11.4      4.319     11.737
REMARK  Name = 447734
REMARK  5 active torsions:
REMARK  status: ('A' for Active; 'I' for Inactive)
REMARK    1  A    between atoms: C_3  and  C_19
REMARK    2  A    between atoms: C_9  and  C_13
REMARK    3  A    between atoms: N_18  and  C_24
REMARK    4  A    between atoms: C_21  and  O_27
REMARK    5  A    between atoms: O_27  and  C_28
REMARK                            x       y       z     vdW  Elec       q    Type
REMARK                         _______ _______ _______ _____ _____    ______ ____
ROOT
ATOM      1  C   UNL     1      34.777 -20.909 -19.392  0.00  0.00    +0.000 C 
ATOM      2  C   UNL     1      36.106 -20.826 -18.911  0.00  0.00    +0.000 C 
ATOM      3  C   UNL     1      35.341 -19.359 -21.180  0.00  0.00    +0.054 C 
ATOM      4  C   UNL     1      34.411 -20.169 -20.528  0.00  0.00    +0.005 C 
ATOM      5  C   UNL     1      37.029 -20.006 -19.580  0.00  0.00    +0.000 C 
ATOM      6  C   UNL     1      36.647 -19.278 -20.707  0.00  0.00    +0.005 C 
ATOM      7  C   UNL     1      36.472 -21.566 -17.774  0.00  0.00    +0.003 C 
ATOM      8  C   UNL     1      33.854 -21.729 -18.722  0.00  0.00    +0.000 C 
ATOM      9  C   UNL     1      35.542 -22.377 -17.122  0.00  0.00    +0.031 C 
ATOM     10  C   UNL     1      34.236 -22.458 -17.595  0.00  0.00    +0.003 C 
ENDROOT
BRANCH   9  13
ATOM     11  N   UNL     1      37.229 -23.053 -15.431  0.00  0.00    -0.343 N 
ATOM     12  N   UNL     1      35.065 -23.930 -15.352  0.00  0.00    -0.285 NA
ATOM     13  C   UNL     1      35.938 -23.136 -15.947  0.00  0.00    +0.117 C 
ATOM     14  H   UNL     1      37.476 -23.576 -14.633  0.00  0.00    +0.144 HD
ATOM     15  H   UNL     1      37.895 -22.470 -15.862  0.00  0.00    +0.144 HD
ATOM     16  H   UNL     1      35.330 -24.444 -14.556  0.00  0.00    +0.188 HD
ENDBRANCH   9  13
BRANCH   3  19
ATOM     17  O   UNL     1      34.650 -19.208 -23.397  0.00  0.00    -0.270 OA
ATOM     18  N   UNL     1      34.908 -17.206 -22.198  0.00  0.00    -0.280 N 
ATOM     19  C   UNL     1      34.946 -18.599 -22.355  0.00  0.00    +0.249 C 
ATOM     20  H   UNL     1      35.172 -16.869 -21.313  0.00  0.00    +0.155 HD
BRANCH  18  24
ATOM     21  C   UNL     1      34.233 -13.916 -23.728  0.00  0.00    +0.140 C 
ATOM     22  C   UNL     1      34.596 -14.885 -22.793  0.00  0.00    +0.052 C 
ATOM     23  C   UNL     1      33.824 -14.299 -25.005  0.00  0.00    +0.037 C 
ATOM     24  C   UNL     1      34.542 -16.222 -23.149  0.00  0.00    +0.054 C 
ATOM     25  C   UNL     1      33.775 -15.650 -25.347  0.00  0.00    +0.004 C 
ATOM     26  C   UNL     1      34.137 -16.619 -24.412  0.00  0.00    +0.015 C 
BRANCH  21  27
ATOM     27  O   UNL     1      34.280 -12.597 -23.395  0.00  0.00    -0.479 OA
BRANCH  27  28
ATOM     28  C   UNL     1      33.497 -11.705 -24.178  0.00  0.00    +0.166 C 
ATOM     29  C   UNL     1      34.318 -11.216 -25.362  0.00  0.00    +0.044 C 
ATOM     30  C   UNL     1      33.217 -10.427 -23.403  0.00  0.00    +0.044 C 
ATOM     31  C   UNL     1      35.209 -10.117 -24.782  0.00  0.00    +0.004 C 
ATOM     32  C   UNL     1      34.517  -9.633 -23.508  0.00  0.00    +0.004 C 
ENDBRANCH  27  28
ENDBRANCH  21  27
ENDBRANCH  18  24
ENDBRANCH   3  19
TORSDOF 5
ENDMDL
MODEL 5
REMARK VINA RESULT:     -11.4      3.458     10.792
REMARK  Name = 447734
REMARK  5 active torsions:
REMARK  status: ('A' for Active; 'I' for Inactive)
REMARK    1  A    between atoms: C_3  and  C_19
REMARK    2  A    between atoms: C_9  and  C_13
REMARK    3  A    between atoms: N_18  and  C_24
REMARK    4  A    between atoms: C_21  and  O_27
REMARK    5  A    between atoms: O_27  and  C_28
REMARK                            x       y       z     vdW  Elec       q    Type
REMARK                         _______ _______ _______ _____ _____    ______ ____
ROOT
ATOM      1  C   UNL     1      36.182 -21.771 -17.378  0.00  0.00    +0.000 C 
ATOM      2  C   UNL     1      34.912 -22.390 -17.288  0.00  0.00    +0.000 C 
ATOM      3  C   UNL     1      35.467 -20.625 -19.401  0.00  0.00    +0.054 C 
ATOM      4  C   UNL     1      36.443 -20.891 -18.441  0.00  0.00    +0.005 C 
ATOM      5  C   UNL     1      33.941 -22.111 -18.263  0.00  0.00    +0.000 C 
ATOM      6  C   UNL     1      34.218 -21.234 -19.313  0.00  0.00    +0.005 C 
ATOM      7  C   UNL     1      34.651 -23.270 -16.224  0.00  0.00    +0.003 C 
ATOM      8  C   UNL     1      37.153 -22.050 -16.402  0.00  0.00    +0.000 C 
ATOM      9  C   UNL     1      35.627 -23.535 -15.263  0.00  0.00    +0.031 C 
ATOM     10  C   UNL     1      36.875 -22.926 -15.352  0.00  0.00    +0.003 C 
ENDROOT
BRANCH   9  13
ATOM     11  N   UNL     1      35.673 -25.800 -14.247  0.00  0.00    -0.343 N 
ATOM     12  N   UNL     1      34.748 -24.001 -13.076  0.00  0.00    -0.285 NA
ATOM     13  C   UNL     1      35.340 -24.449 -14.169  0.00  0.00    +0.117 C 
ATOM     14  H   UNL     1      35.470 -26.401 -13.493  0.00  0.00    +0.144 HD
ATOM     15  H   UNL     1      36.112 -26.153 -15.055  0.00  0.00    +0.144 HD
ATOM     16  H   UNL     1      34.554 -24.618 -12.334  0.00  0.00    +0.188 HD
ENDBRANCH   9  13
BRANCH   3  19
ATOM     17  O   UNL     1      36.932 -19.386 -20.717  0.00  0.00    -0.270 OA
ATOM     18  N   UNL     1      34.647 -19.287 -21.244  0.00  0.00    -0.280 N 
ATOM     19  C   UNL     1      35.754 -19.712 -20.496  0.00  0.00    +0.249 C 
ATOM     20  H   UNL     1      33.774 -19.630 -20.948  0.00  0.00    +0.155 HD
BRANCH  18  24
ATOM     21  C   UNL     1      34.752 -16.218 -23.292  0.00  0.00    +0.140 C 
ATOM     22  C   UNL     1      34.779 -17.064 -22.184  0.00  0.00    +0.052 C 
ATOM     23  C   UNL     1      34.568 -16.748 -24.569  0.00  0.00    +0.037 C 
ATOM     24  C   UNL     1      34.621 -18.428 -22.370  0.00  0.00    +0.054 C 
ATOM     25  C   UNL     1      34.410 -18.123 -24.738  0.00  0.00    +0.004 C 
ATOM     26  C   UNL     1      34.437 -18.969 -23.631  0.00  0.00    +0.015 C 
BRANCH  21  27
ATOM     27  O   UNL     1      34.906 -14.876 -23.128  0.00  0.00    -0.479 OA
BRANCH  27  28
ATOM     28  C   UNL     1      33.759 -14.138 -22.724  0.00  0.00    +0.166 C 
ATOM     29  C   UNL     1      32.863 -13.898 -23.930  0.00  0.00    +0.044 C 
ATOM     30  C   UNL     1      34.155 -12.732 -22.304  0.00  0.00    +0.044 C 
ATOM     31  C   UNL     1      33.511 -12.722 -24.660  0.00  0.00    +0.004 C 
ATOM     32  C   UNL     1      34.365 -11.992 -23.624  0.00  0.00    +0.004 C 
ENDBRANCH  27  28
ENDBRANCH  21  27
ENDBRANCH  18  24
ENDBRANCH   3  19
TORSDOF 5
ENDMDL
MODEL 6
REMARK VINA RESULT:     -11.3      5.430     12.401
REMARK  Name = 447734
REMARK  5 active torsions:
REMARK  status: ('A' for Active; 'I' for Inactive)
REMARK    1  A    between atoms: C_3  and  C_19
REMARK    2  A    between atoms: C_9  and  C_13
REMARK    3  A    between atoms: N_18  and  C_24
REMARK    4  A    between atoms: C_21  and  O_27
REMARK    5  A    between atoms: O_27  and  C_28
REMARK                            x       y       z     vdW  Elec       q    Type
REMARK                         _______ _______ _______ _____ _____    ______ ____
ROOT
ATOM      1  C   UNL     1      34.145 -19.396 -20.869  0.00  0.00    +0.000 C 
ATOM      2  C   UNL     1      35.438 -19.729 -20.402  0.00  0.00    +0.000 C 
ATOM      3  C   UNL     1      35.113 -17.676 -22.291  0.00  0.00    +0.054 C 
ATOM      4  C   UNL     1      34.000 -18.367 -21.814  0.00  0.00    +0.005 C 
ATOM      5  C   UNL     1      36.549 -19.023 -20.893  0.00  0.00    +0.000 C 
ATOM      6  C   UNL     1      36.386 -18.004 -21.831  0.00  0.00    +0.005 C 
ATOM      7  C   UNL     1      35.583 -20.758 -19.457  0.00  0.00    +0.003 C 
ATOM      8  C   UNL     1      33.034 -20.102 -20.378  0.00  0.00    +0.000 C 
ATOM      9  C   UNL     1      34.470 -21.450 -18.980  0.00  0.00    +0.031 C 
ATOM     10  C   UNL     1      33.197 -21.122 -19.440  0.00  0.00    +0.003 C 
ENDROOT
BRANCH   9  13
ATOM     11  N   UNL     1      35.572 -22.411 -16.974  0.00  0.00    -0.343 N 
ATOM     12  N   UNL     1      33.897 -23.604 -18.083  0.00  0.00    -0.285 NA
ATOM     13  C   UNL     1      34.637 -22.513 -18.002  0.00  0.00    +0.117 C 
ATOM     14  H   UNL     1      35.669 -23.143 -16.322  0.00  0.00    +0.144 HD
ATOM     15  H   UNL     1      36.136 -21.607 -16.899  0.00  0.00    +0.144 HD
ATOM     16  H   UNL     1      34.009 -24.325 -17.422  0.00  0.00    +0.188 HD
ENDBRANCH   9  13
BRANCH   3  19
ATOM     17  O   UNL     1      35.297 -16.812 -24.443  0.00  0.00    -0.270 OA
ATOM     18  N   UNL     1      34.364 -15.430 -22.792  0.00  0.00    -0.280 N 
ATOM     19  C   UNL     1      34.946 -16.613 -23.269  0.00  0.00    +0.249 C 
ATOM     20  H   UNL     1      34.139 -15.420 -21.834  0.00  0.00    +0.155 HD
BRANCH  18  24
ATOM     21  C   UNL     1      33.850 -11.859 -23.572  0.00  0.00    +0.140 C 
ATOM     22  C   UNL     1      34.152 -13.023 -22.867  0.00  0.00    +0.052 C 
ATOM     23  C   UNL     1      33.459 -11.935 -24.909  0.00  0.00    +0.037 C 
ATOM     24  C   UNL     1      34.059 -14.247 -23.509  0.00  0.00    +0.054 C 
ATOM     25  C   UNL     1      33.370 -13.176 -25.540  0.00  0.00    +0.004 C 
ATOM     26  C   UNL     1      33.672 -14.340 -24.835  0.00  0.00    +0.015 C 
BRANCH  21  27
ATOM     27  O   UNL     1      33.936 -10.649 -22.956  0.00  0.00    -0.479 OA
BRANCH  27  28
ATOM     28  C   UNL     1      32.978  -9.665 -23.327  0.00  0.00    +0.166 C 
ATOM     29  C   UNL     1      33.662  -8.311 -23.443  0.00  0.00    +0.044 C 
ATOM     30  C   UNL     1      31.977  -9.449 -22.203  0.00  0.00    +0.044 C 
ATOM     31  C   UNL     1      33.785  -7.820 -22.000  0.00  0.00    +0.004 C 
ATOM     32  C   UNL     1      32.725  -8.574 -21.199  0.00  0.00    +0.004 C 
ENDBRANCH  27  28
ENDBRANCH  21  27
ENDBRANCH  18  24
ENDBRANCH   3  19
TORSDOF 5
ENDMDL
MODEL 7
REMARK VINA RESULT:     -11.1      7.882     12.383
REMARK  Name = 447734
REMARK  5 active torsions:
REMARK  status: ('A' for Active; 'I' for Inactive)
REMARK    1  A    between atoms: C_3  and  C_19
REMARK    2  A    between atoms: C_9  and  C_13
REMARK    3  A    between atoms: N_18  and  C_24
REMARK    4  A    between atoms: C_21  and  O_27
REMARK    5  A    between atoms: O_27  and  C_28
REMARK                            x       y       z     vdW  Elec       q    Type
REMARK                         _______ _______ _______ _____ _____    ______ ____
ROOT
ATOM      1  C   UNL     1      32.167  -8.480 -21.981  0.00  0.00    +0.000 C 
ATOM      2  C   UNL     1      33.089  -7.817 -22.825  0.00  0.00    +0.000 C 
ATOM      3  C   UNL     1      33.077 -10.622 -22.688  0.00  0.00    +0.054 C 
ATOM      4  C   UNL     1      32.174  -9.883 -21.924  0.00  0.00    +0.005 C 
ATOM      5  C   UNL     1      33.991  -8.576 -23.587  0.00  0.00    +0.000 C 
ATOM      6  C   UNL     1      33.984  -9.969 -23.518  0.00  0.00    +0.005 C 
ATOM      7  C   UNL     1      33.081  -6.413 -22.881  0.00  0.00    +0.003 C 
ATOM      8  C   UNL     1      31.264  -7.720 -21.218  0.00  0.00    +0.000 C 
ATOM      9  C   UNL     1      32.179  -5.674 -22.117  0.00  0.00    +0.031 C 
ATOM     10  C   UNL     1      31.272  -6.326 -21.286  0.00  0.00    +0.003 C 
ENDROOT
BRANCH   9  13
ATOM     11  N   UNL     1      32.024  -3.440 -21.044  0.00  0.00    -0.343 N 
ATOM     12  N   UNL     1      32.337  -3.619 -23.352  0.00  0.00    -0.285 NA
ATOM     13  C   UNL     1      32.184  -4.221 -22.187  0.00  0.00    +0.117 C 
ATOM     14  H   UNL     1      32.032  -2.458 -21.114  0.00  0.00    +0.144 HD
ATOM     15  H   UNL     1      31.905  -3.870 -20.166  0.00  0.00    +0.144 HD
ATOM     16  H   UNL     1      32.342  -2.636 -23.402  0.00  0.00    +0.188 HD
ENDBRANCH   9  13
BRANCH   3  19
ATOM     17  O   UNL     1      32.347 -12.635 -21.781  0.00  0.00    -0.270 OA
ATOM     18  N   UNL     1      33.889 -12.734 -23.547  0.00  0.00    -0.280 N 
ATOM     19  C   UNL     1      33.071 -12.074 -22.619  0.00  0.00    +0.249 C 
ATOM     20  H   UNL     1      34.407 -12.154 -24.149  0.00  0.00    +0.155 HD
BRANCH  18  24
ATOM     21  C   UNL     1      34.898 -16.232 -22.938  0.00  0.00    +0.140 C 
ATOM     22  C   UNL     1      34.722 -14.861 -22.756  0.00  0.00    +0.052 C 
ATOM     23  C   UNL     1      34.416 -16.850 -24.092  0.00  0.00    +0.037 C 
ATOM     24  C   UNL     1      34.066 -14.127 -23.731  0.00  0.00    +0.054 C 
ATOM     25  C   UNL     1      33.758 -16.096 -25.064  0.00  0.00    +0.004 C 
ATOM     26  C   UNL     1      33.582 -14.725 -24.882  0.00  0.00    +0.015 C 
BRANCH  21  27
ATOM     27  O   UNL     1      35.540 -16.967 -21.990  0.00  0.00    -0.479 OA
BRANCH  27  28
ATOM     28  C   UNL     1      36.069 -18.224 -22.395  0.00  0.00    +0.166 C 
ATOM     29  C   UNL     1      35.089 -19.328 -22.026  0.00  0.00    +0.044 C 
ATOM     30  C   UNL     1      37.301 -18.570 -21.574  0.00  0.00    +0.044 C 
ATOM     31  C   UNL     1      35.329 -19.571 -20.536  0.00  0.00    +0.004 C 
ATOM     32  C   UNL     1      36.738 -19.055 -20.240  0.00  0.00    +0.004 C 
ENDBRANCH  27  28
ENDBRANCH  21  27
ENDBRANCH  18  24
ENDBRANCH   3  19
TORSDOF 5
ENDMDL
MODEL 8
REMARK VINA RESULT:     -11.0      1.747      3.793
REMARK  Name = 447734
REMARK  5 active torsions:
REMARK  status: ('A' for Active; 'I' for Inactive)
REMARK    1  A    between atoms: C_3  and  C_19
REMARK    2  A    between atoms: C_9  and  C_13
REMARK    3  A    between atoms: N_18  and  C_24
REMARK    4  A    between atoms: C_21  and  O_27
REMARK    5  A    between atoms: O_27  and  C_28
REMARK                            x       y       z     vdW  Elec       q    Type
REMARK                         _______ _______ _______ _____ _____    ______ ____
ROOT
ATOM      1  C   UNL     1      34.666 -19.602 -21.388  0.00  0.00    +0.000 C 
ATOM      2  C   UNL     1      35.805 -18.763 -21.358  0.00  0.00    +0.000 C 
ATOM      3  C   UNL     1      35.549 -20.851 -19.498  0.00  0.00    +0.054 C 
ATOM      4  C   UNL     1      34.553 -20.641 -20.451  0.00  0.00    +0.005 C 
ATOM      5  C   UNL     1      36.799 -18.988 -20.392  0.00  0.00    +0.000 C 
ATOM      6  C   UNL     1      36.670 -20.026 -19.468  0.00  0.00    +0.005 C 
ATOM      7  C   UNL     1      35.917 -17.723 -22.296  0.00  0.00    +0.003 C 
ATOM      8  C   UNL     1      33.672 -19.376 -22.356  0.00  0.00    +0.000 C 
ATOM      9  C   UNL     1      34.921 -17.512 -23.249  0.00  0.00    +0.031 C 
ATOM     10  C   UNL     1      33.800 -18.338 -23.279  0.00  0.00    +0.003 C 
ENDROOT
BRANCH   9  13
ATOM     11  N   UNL     1      35.692 -15.238 -23.880  0.00  0.00    -0.343 N 
ATOM     12  N   UNL     1      34.555 -16.569 -25.428  0.00  0.00    -0.285 NA
ATOM     13  C   UNL     1      35.052 -16.431 -24.212  0.00  0.00    +0.117 C 
ATOM     14  H   UNL     1      35.771 -14.519 -24.549  0.00  0.00    +0.144 HD
ATOM     15  H   UNL     1      36.067 -15.115 -22.978  0.00  0.00    +0.144 HD
ATOM     16  H   UNL     1      34.643 -15.839 -26.082  0.00  0.00    +0.188 HD
ENDBRANCH   9  13
BRANCH   3  19
ATOM     17  O   UNL     1      34.906 -23.005 -18.897  0.00  0.00    -0.270 OA
ATOM     18  N   UNL     1      35.918 -21.673 -17.251  0.00  0.00    -0.280 N 
ATOM     19  C   UNL     1      35.418 -21.933 -18.535  0.00  0.00    +0.249 C 
ATOM     20  H   UNL     1      36.295 -20.775 -17.113  0.00  0.00    +0.155 HD
BRANCH  18  24
ATOM     21  C   UNL     1      34.825 -24.042 -14.640  0.00  0.00    +0.140 C 
ATOM     22  C   UNL     1      34.794 -23.196 -15.748  0.00  0.00    +0.052 C 
ATOM     23  C   UNL     1      36.013 -24.215 -13.928  0.00  0.00    +0.037 C 
ATOM     24  C   UNL     1      35.950 -22.534 -16.127  0.00  0.00    +0.054 C 
ATOM     25  C   UNL     1      37.167 -23.540 -14.323  0.00  0.00    +0.004 C 
ATOM     26  C   UNL     1      37.136 -22.694 -15.430  0.00  0.00    +0.015 C 
BRANCH  21  27
ATOM     27  O   UNL     1      33.699 -24.701 -14.254  0.00  0.00    -0.479 OA
BRANCH  27  28
ATOM     28  C   UNL     1      32.892 -24.076 -13.263  0.00  0.00    +0.166 C 
ATOM     29  C   UNL     1      31.737 -24.996 -12.899  0.00  0.00    +0.044 C 
ATOM     30  C   UNL     1      32.191 -22.857 -13.843  0.00  0.00    +0.044 C 
ATOM     31  C   UNL     1      30.720 -24.798 -14.023  0.00  0.00    +0.004 C 
ATOM     32  C   UNL     1      31.032 -23.439 -14.649  0.00  0.00    +0.004 C 
ENDBRANCH  27  28
ENDBRANCH  21  27
ENDBRANCH  18  24
ENDBRANCH   3  19
TORSDOF 5
ENDMDL
MODEL 9
REMARK VINA RESULT:     -10.9      3.052      5.040
REMARK  Name = 447734
REMARK  5 active torsions:
REMARK  status: ('A' for Active; 'I' for Inactive)
REMARK    1  A    between atoms: C_3  and  C_19
REMARK    2  A    between atoms: C_9  and  C_13
REMARK    3  A    between atoms: N_18  and  C_24
REMARK    4  A    between atoms: C_21  and  O_27
REMARK    5  A    between atoms: O_27  and  C_28
REMARK                            x       y       z     vdW  Elec       q    Type
REMARK                         _______ _______ _______ _____ _____    ______ ____
ROOT
ATOM      1  C   UNL     1      34.938 -16.754 -22.219  0.00  0.00    +0.000 C 
ATOM      2  C   UNL     1      34.553 -17.355 -23.441  0.00  0.00    +0.000 C 
ATOM      3  C   UNL     1      35.354 -18.958 -21.278  0.00  0.00    +0.054 C 
ATOM      4  C   UNL     1      35.336 -17.570 -21.148  0.00  0.00    +0.005 C 
ATOM      5  C   UNL     1      34.577 -18.754 -23.555  0.00  0.00    +0.000 C 
ATOM      6  C   UNL     1      34.976 -19.550 -22.480  0.00  0.00    +0.005 C 
ATOM      7  C   UNL     1      34.155 -16.539 -24.513  0.00  0.00    +0.003 C 
ATOM      8  C   UNL     1      34.914 -15.354 -22.105  0.00  0.00    +0.000 C 
ATOM      9  C   UNL     1      34.138 -15.150 -24.382  0.00  0.00    +0.031 C 
ATOM     10  C   UNL     1      34.517 -14.559 -23.180  0.00  0.00    +0.003 C 
ENDROOT
BRANCH   9  13
ATOM     11  N   UNL     1      32.542 -13.580 -25.457  0.00  0.00    -0.343 N 
ATOM     12  N   UNL     1      34.469 -14.261 -26.590  0.00  0.00    -0.285 NA
ATOM     13  C   UNL     1      33.723 -14.319 -25.502  0.00  0.00    +0.117 C 
ATOM     14  H   UNL     1      32.281 -13.024 -26.226  0.00  0.00    +0.144 HD
ATOM     15  H   UNL     1      31.971 -13.613 -24.656  0.00  0.00    +0.144 HD
ATOM     16  H   UNL     1      34.191 -13.699 -27.349  0.00  0.00    +0.188 HD
ENDBRANCH   9  13
BRANCH   3  19
ATOM     17  O   UNL     1      36.954 -19.759 -19.792  0.00  0.00    -0.270 OA
ATOM     18  N   UNL     1      34.759 -20.555 -19.559  0.00  0.00    -0.280 N 
ATOM     19  C   UNL     1      35.768 -19.789 -20.159  0.00  0.00    +0.249 C 
ATOM     20  H   UNL     1      33.865 -20.474 -19.963  0.00  0.00    +0.155 HD
BRANCH  18  24
ATOM     21  C   UNL     1      33.815 -22.925 -16.892  0.00  0.00    +0.140 C 
ATOM     22  C   UNL     1      33.718 -22.066 -17.986  0.00  0.00    +0.052 C 
ATOM     23  C   UNL     1      35.050 -23.135 -16.278  0.00  0.00    +0.037 C 
ATOM     24  C   UNL     1      34.857 -21.429 -18.449  0.00  0.00    +0.054 C 
ATOM     25  C   UNL     1      36.187 -22.485 -16.757  0.00  0.00    +0.004 C 
ATOM     26  C   UNL     1      36.090 -21.626 -17.850  0.00  0.00    +0.015 C 
BRANCH  21  27
ATOM     27  O   UNL     1      32.706 -23.559 -16.424  0.00  0.00    -0.479 OA
BRANCH  27  28
ATOM     28  C   UNL     1      31.893 -22.845 -15.501  0.00  0.00    +0.166 C 
ATOM     29  C   UNL     1      32.134 -23.377 -14.097  0.00  0.00    +0.044 C 
ATOM     30  C   UNL     1      30.424 -23.156 -15.739  0.00  0.00    +0.044 C 
ATOM     31  C   UNL     1      31.301 -24.657 -14.024  0.00  0.00    +0.004 C 
ATOM     32  C   UNL     1      30.223 -24.528 -15.100  0.00  0.00    +0.004 C 
ENDBRANCH  27  28
ENDBRANCH  21  27
ENDBRANCH  18  24
ENDBRANCH   3  19
TORSDOF 5
ENDMDL
