MODEL 1
REMARK VINA RESULT:     -11.7      0.000      0.000
REMARK  Name = 16122642
REMARK  7 active torsions:
REMARK  status: ('A' for Active; 'I' for Inactive)
REMARK    1  A    between atoms: C_2  and  C_10
REMARK    2  A    between atoms: C_3  and  O_18
REMARK    3  A    between atoms: O_18  and  C_19
REMARK    4  A    between atoms: C_19  and  C_20
REMARK    5  A    between atoms: C_20  and  N_21
REMARK    6  A    between atoms: C_20  and  C_25
REMARK    7  A    between atoms: C_25  and  C_27
REMARK                            x       y       z     vdW  Elec       q    Type
REMARK                         _______ _______ _______ _____ _____    ______ ____
ROOT
ATOM      1  N   UNL     1      33.504 -14.500 -25.532  0.00  0.00    -0.239 NA
ATOM      2  C   UNL     1      33.375 -13.780 -23.234  0.00  0.00    +0.022 C 
ATOM      3  C   UNL     1      34.633 -15.745 -23.794  0.00  0.00    +0.158 C 
ATOM      4  C   UNL     1      34.168 -14.847 -22.840  0.00  0.00    +0.040 C 
ATOM      5  C   UNL     1      33.072 -13.647 -24.575  0.00  0.00    +0.099 C 
ATOM      6  C   UNL     1      34.276 -15.528 -25.116  0.00  0.00    +0.136 C 
ENDROOT
BRANCH   2  10
ATOM      7  N   UNL     1      31.536  -9.045 -20.435  0.00  0.00    -0.280 N 
ATOM      8  N   UNL     1      31.477 -10.081 -19.576  0.00  0.00    -0.173 NA
ATOM      9  C   UNL     1      32.245 -10.703 -21.622  0.00  0.00    +0.032 A 
ATOM     10  C   UNL     1      32.876 -12.826 -22.261  0.00  0.00    +0.002 C 
ATOM     11  C   UNL     1      31.914 -11.137 -20.286  0.00  0.00    +0.102 A 
ATOM     12  C   UNL     1      32.730 -11.484 -22.663  0.00  0.00    +0.003 C 
ATOM     13  C   UNL     1      31.992  -9.362 -21.682  0.00  0.00    +0.053 A 
ATOM     14  C   UNL     1      32.562 -13.306 -20.950  0.00  0.00    +0.002 C 
ATOM     15  C   UNL     1      32.069 -12.485 -19.912  0.00  0.00    +0.021 C 
ATOM     16  C   UNL     1      32.120  -8.353 -22.746  0.00  0.00    +0.051 C 
ATOM     17  H   UNL     1      31.273  -8.131 -20.183  0.00  0.00    +0.189 HD
ENDBRANCH   2  10
BRANCH   3  18
ATOM     18  O   UNL     1      35.411 -16.798 -23.443  0.00  0.00    -0.476 OA
BRANCH  18  19
ATOM     19  C   UNL     1      35.482 -17.126 -22.054  0.00  0.00    +0.184 C 
BRANCH  19  20
ATOM     20  C   UNL     1      34.997 -18.562 -21.821  0.00  0.00    -0.017 C 
BRANCH  20  21
ATOM     21  N   UNL     1      34.866 -19.222 -23.124  0.00  0.00    +0.384 N 
ATOM     22  H   UNL     1      35.350 -20.119 -23.100  0.00  0.00    -0.089 HD
ATOM     23  H   UNL     1      35.279 -18.632 -23.846  0.00  0.00    -0.089 HD
ATOM     24  H   UNL     1      33.879 -19.373 -23.331  0.00  0.00    -0.089 HD
ENDBRANCH  20  21
BRANCH  20  25
ATOM     25  C   UNL     1      35.962 -19.395 -20.951  0.00  0.00    +0.008 C 
BRANCH  25  27
ATOM     26 BR   UNL     1      33.199 -23.239 -16.993  0.00  0.00    -0.049 Br
ATOM     27  C   UNL     1      35.286 -20.336 -19.984  0.00  0.00    -0.024 C 
ATOM     28  C   UNL     1      33.902 -20.421 -19.974  0.00  0.00    -0.004 C 
ATOM     29  C   UNL     1      36.061 -21.096 -19.124  0.00  0.00    -0.004 C 
ATOM     30  C   UNL     1      33.278 -21.290 -19.079  0.00  0.00    +0.006 C 
ATOM     31  C   UNL     1      35.436 -21.964 -18.229  0.00  0.00    +0.006 C 
ATOM     32  C   UNL     1      34.045 -22.062 -18.207  0.00  0.00    +0.035 C 
ENDBRANCH  25  27
ENDBRANCH  20  25
ENDBRANCH  19  20
ENDBRANCH  18  19
ENDBRANCH   3  18
TORSDOF 7
ENDMDL
MODEL 2
REMARK VINA RESULT:     -11.6      1.238      2.159
REMARK  Name = 16122642
REMARK  7 active torsions:
REMARK  status: ('A' for Active; 'I' for Inactive)
REMARK    1  A    between atoms: C_2  and  C_10
REMARK    2  A    between atoms: C_3  and  O_18
REMARK    3  A    between atoms: O_18  and  C_19
REMARK    4  A    between atoms: C_19  and  C_20
REMARK    5  A    between atoms: C_20  and  N_21
REMARK    6  A    between atoms: C_20  and  C_25
REMARK    7  A    between atoms: C_25  and  C_27
REMARK                            x       y       z     vdW  Elec       q    Type
REMARK                         _______ _______ _______ _____ _____    ______ ____
ROOT
ATOM      1  N   UNL     1      33.539 -15.026 -25.107  0.00  0.00    -0.239 NA
ATOM      2  C   UNL     1      33.777 -13.218 -23.529  0.00  0.00    +0.022 C 
ATOM      3  C   UNL     1      34.862 -15.316 -23.105  0.00  0.00    +0.158 C 
ATOM      4  C   UNL     1      34.578 -14.010 -22.720  0.00  0.00    +0.040 C 
ATOM      5  C   UNL     1      33.286 -13.762 -24.700  0.00  0.00    +0.099 C 
ATOM      6  C   UNL     1      34.323 -15.772 -24.297  0.00  0.00    +0.136 C 
ENDROOT
BRANCH   2  10
ATOM      7  N   UNL     1      31.771  -8.403 -20.994  0.00  0.00    -0.280 N 
ATOM      8  N   UNL     1      32.537  -8.032 -22.039  0.00  0.00    -0.173 NA
ATOM      9  C   UNL     1      32.428 -10.289 -21.813  0.00  0.00    +0.032 A 
ATOM     10  C   UNL     1      33.464 -11.852 -23.154  0.00  0.00    +0.002 C 
ATOM     11  C   UNL     1      32.966  -9.188 -22.575  0.00  0.00    +0.102 A 
ATOM     12  C   UNL     1      32.630 -11.645 -22.038  0.00  0.00    +0.003 C 
ATOM     13  C   UNL     1      31.670  -9.751 -20.812  0.00  0.00    +0.053 A 
ATOM     14  C   UNL     1      34.022 -10.795 -23.941  0.00  0.00    +0.002 C 
ATOM     15  C   UNL     1      33.797  -9.425 -23.685  0.00  0.00    +0.021 C 
ATOM     16  C   UNL     1      30.874 -10.334 -19.719  0.00  0.00    +0.051 C 
ATOM     17  H   UNL     1      31.320  -7.753 -20.410  0.00  0.00    +0.189 HD
ENDBRANCH   2  10
BRANCH   3  18
ATOM     18  O   UNL     1      35.641 -16.117 -22.338  0.00  0.00    -0.476 OA
BRANCH  18  19
ATOM     19  C   UNL     1      35.719 -17.498 -22.699  0.00  0.00    +0.184 C 
BRANCH  19  20
ATOM     20  C   UNL     1      35.575 -18.382 -21.454  0.00  0.00    -0.017 C 
BRANCH  20  21
ATOM     21  N   UNL     1      35.314 -17.516 -20.301  0.00  0.00    +0.384 N 
ATOM     22  H   UNL     1      35.907 -16.689 -20.356  0.00  0.00    -0.089 HD
ATOM     23  H   UNL     1      35.519 -18.024 -19.441  0.00  0.00    -0.089 HD
ATOM     24  H   UNL     1      34.334 -17.233 -20.303  0.00  0.00    -0.089 HD
ENDBRANCH  20  21
BRANCH  20  25
ATOM     25  C   UNL     1      34.422 -19.402 -21.564  0.00  0.00    +0.008 C 
BRANCH  25  27
ATOM     26 BR   UNL     1      33.817 -23.146 -16.697  0.00  0.00    -0.049 Br
ATOM     27  C   UNL     1      34.275 -20.317 -20.373  0.00  0.00    -0.024 C 
ATOM     28  C   UNL     1      35.401 -20.918 -19.834  0.00  0.00    -0.004 C 
ATOM     29  C   UNL     1      33.015 -20.541 -19.842  0.00  0.00    -0.004 C 
ATOM     30  C   UNL     1      35.264 -21.764 -18.734  0.00  0.00    +0.006 C 
ATOM     31  C   UNL     1      32.878 -21.387 -18.742  0.00  0.00    +0.006 C 
ATOM     32  C   UNL     1      34.002 -21.999 -18.188  0.00  0.00    +0.035 C 
ENDBRANCH  25  27
ENDBRANCH  20  25
ENDBRANCH  19  20
ENDBRANCH  18  19
ENDBRANCH   3  18
TORSDOF 7
ENDMDL
MODEL 3
REMARK VINA RESULT:     -11.5      3.959      9.725
REMARK  Name = 16122642
REMARK  7 active torsions:
REMARK  status: ('A' for Active; 'I' for Inactive)
REMARK    1  A    between atoms: C_2  and  C_10
REMARK    2  A    between atoms: C_3  and  O_18
REMARK    3  A    between atoms: O_18  and  C_19
REMARK    4  A    between atoms: C_19  and  C_20
REMARK    5  A    between atoms: C_20  and  N_21
REMARK    6  A    between atoms: C_20  and  C_25
REMARK    7  A    between atoms: C_25  and  C_27
REMARK                            x       y       z     vdW  Elec       q    Type
REMARK                         _______ _______ _______ _____ _____    ______ ____
ROOT
ATOM      1  N   UNL     1      33.361 -17.804 -25.141  0.00  0.00    -0.239 NA
ATOM      2  C   UNL     1      34.611 -17.798 -23.079  0.00  0.00    +0.022 C 
ATOM      3  C   UNL     1      34.173 -15.727 -24.209  0.00  0.00    +0.158 C 
ATOM      4  C   UNL     1      34.737 -16.418 -23.142  0.00  0.00    +0.040 C 
ATOM      5  C   UNL     1      33.921 -18.442 -24.088  0.00  0.00    +0.099 C 
ATOM      6  C   UNL     1      33.501 -16.460 -25.173  0.00  0.00    +0.136 C 
ENDROOT
BRANCH   2  10
ATOM      7  N   UNL     1      35.585 -21.316 -18.573  0.00  0.00    -0.280 N 
ATOM      8  N   UNL     1      36.741 -20.689 -18.864  0.00  0.00    -0.173 NA
ATOM      9  C   UNL     1      35.051 -20.064 -20.248  0.00  0.00    +0.032 A 
ATOM     10  C   UNL     1      35.188 -18.547 -21.978  0.00  0.00    +0.002 C 
ATOM     11  C   UNL     1      36.444 -19.897 -19.909  0.00  0.00    +0.102 A 
ATOM     12  C   UNL     1      34.351 -19.428 -21.265  0.00  0.00    +0.003 C 
ATOM     13  C   UNL     1      34.534 -20.978 -19.374  0.00  0.00    +0.053 A 
ATOM     14  C   UNL     1      36.573 -18.345 -21.682  0.00  0.00    +0.002 C 
ATOM     15  C   UNL     1      37.256 -19.009 -20.639  0.00  0.00    +0.021 C 
ATOM     16  C   UNL     1      33.196 -21.567 -19.198  0.00  0.00    +0.051 C 
ATOM     17  H   UNL     1      35.504 -21.966 -17.839  0.00  0.00    +0.189 HD
ENDBRANCH   2  10
BRANCH   3  18
ATOM     18  O   UNL     1      34.277 -14.379 -24.301  0.00  0.00    -0.476 OA
BRANCH  18  19
ATOM     19  C   UNL     1      33.138 -13.605 -23.920  0.00  0.00    +0.184 C 
BRANCH  19  20
ATOM     20  C   UNL     1      33.546 -12.514 -22.922  0.00  0.00    -0.017 C 
BRANCH  20  21
ATOM     21  N   UNL     1      34.677 -13.010 -22.132  0.00  0.00    +0.384 N 
ATOM     22  H   UNL     1      35.540 -12.586 -22.471  0.00  0.00    -0.089 HD
ATOM     23  H   UNL     1      34.738 -14.024 -22.226  0.00  0.00    -0.089 HD
ATOM     24  H   UNL     1      34.540 -12.767 -21.151  0.00  0.00    -0.089 HD
ENDBRANCH  20  21
BRANCH  20  25
ATOM     25  C   UNL     1      33.974 -11.197 -23.604  0.00  0.00    +0.008 C 
BRANCH  25  27
ATOM     26 BR   UNL     1      31.434  -6.109 -21.209  0.00  0.00    -0.049 Br
ATOM     27  C   UNL     1      33.353  -9.953 -23.017  0.00  0.00    -0.024 C 
ATOM     28  C   UNL     1      32.264 -10.072 -22.168  0.00  0.00    -0.004 C 
ATOM     29  C   UNL     1      33.882  -8.714 -23.340  0.00  0.00    -0.004 C 
ATOM     30  C   UNL     1      31.690  -8.922 -21.627  0.00  0.00    +0.006 C 
ATOM     31  C   UNL     1      33.308  -7.564 -22.799  0.00  0.00    +0.006 C 
ATOM     32  C   UNL     1      32.213  -7.668 -21.942  0.00  0.00    +0.035 C 
ENDBRANCH  25  27
ENDBRANCH  20  25
ENDBRANCH  19  20
ENDBRANCH  18  19
ENDBRANCH   3  18
TORSDOF 7
ENDMDL
MODEL 4
REMARK VINA RESULT:     -11.3      5.947     12.045
REMARK  Name = 16122642
REMARK  7 active torsions:
REMARK  status: ('A' for Active; 'I' for Inactive)
REMARK    1  A    between atoms: C_2  and  C_10
REMARK    2  A    between atoms: C_3  and  O_18
REMARK    3  A    between atoms: O_18  and  C_19
REMARK    4  A    between atoms: C_19  and  C_20
REMARK    5  A    between atoms: C_20  and  N_21
REMARK    6  A    between atoms: C_20  and  C_25
REMARK    7  A    between atoms: C_25  and  C_27
REMARK                            x       y       z     vdW  Elec       q    Type
REMARK                         _______ _______ _______ _____ _____    ______ ____
ROOT
ATOM      1  N   UNL     1      31.437 -23.547 -14.916  0.00  0.00    -0.239 NA
ATOM      2  C   UNL     1      33.843 -23.395 -14.949  0.00  0.00    +0.022 C 
ATOM      3  C   UNL     1      32.589 -22.803 -16.907  0.00  0.00    +0.158 C 
ATOM      4  C   UNL     1      33.812 -22.951 -16.263  0.00  0.00    +0.040 C 
ATOM      5  C   UNL     1      32.645 -23.677 -14.322  0.00  0.00    +0.099 C 
ATOM      6  C   UNL     1      31.440 -23.111 -16.195  0.00  0.00    +0.136 C 
ENDROOT
BRANCH   2  10
ATOM      7  N   UNL     1      38.027 -24.176 -11.009  0.00  0.00    -0.280 N 
ATOM      8  N   UNL     1      38.615 -24.026 -12.212  0.00  0.00    -0.173 NA
ATOM      9  C   UNL     1      36.351 -23.899 -12.341  0.00  0.00    +0.032 A 
ATOM     10  C   UNL     1      35.105 -23.559 -14.250  0.00  0.00    +0.002 C 
ATOM     11  C   UNL     1      37.595 -23.851 -13.070  0.00  0.00    +0.102 A 
ATOM     12  C   UNL     1      35.068 -23.763 -12.856  0.00  0.00    +0.003 C 
ATOM     13  C   UNL     1      36.664 -24.109 -11.028  0.00  0.00    +0.053 A 
ATOM     14  C   UNL     1      36.310 -23.502 -15.018  0.00  0.00    +0.002 C 
ATOM     15  C   UNL     1      37.601 -23.645 -14.463  0.00  0.00    +0.021 C 
ATOM     16  C   UNL     1      35.858 -24.253  -9.804  0.00  0.00    +0.051 C 
ATOM     17  H   UNL     1      38.539 -24.322 -10.182  0.00  0.00    +0.189 HD
ENDBRANCH   2  10
BRANCH   3  18
ATOM     18  O   UNL     1      32.522 -22.372 -18.190  0.00  0.00    -0.476 OA
BRANCH  18  19
ATOM     19  C   UNL     1      33.757 -22.214 -18.893  0.00  0.00    +0.184 C 
BRANCH  19  20
ATOM     20  C   UNL     1      33.644 -21.079 -19.918  0.00  0.00    -0.017 C 
BRANCH  20  21
ATOM     21  N   UNL     1      32.503 -20.235 -19.548  0.00  0.00    +0.384 N 
ATOM     22  H   UNL     1      31.655 -20.602 -19.978  0.00  0.00    -0.089 HD
ATOM     23  H   UNL     1      32.665 -19.283 -19.875  0.00  0.00    -0.089 HD
ATOM     24  H   UNL     1      32.397 -20.233 -18.533  0.00  0.00    -0.089 HD
ENDBRANCH  20  21
BRANCH  20  25
ATOM     25  C   UNL     1      34.904 -20.189 -19.980  0.00  0.00    +0.008 C 
BRANCH  25  27
ATOM     26 BR   UNL     1      34.876 -16.004 -24.514  0.00  0.00    -0.049 Br
ATOM     27  C   UNL     1      34.898 -19.165 -21.088  0.00  0.00    -0.024 C 
ATOM     28  C   UNL     1      35.308 -17.869 -20.819  0.00  0.00    -0.004 C 
ATOM     29  C   UNL     1      34.481 -19.540 -22.355  0.00  0.00    -0.004 C 
ATOM     30  C   UNL     1      35.301 -16.923 -21.844  0.00  0.00    +0.006 C 
ATOM     31  C   UNL     1      34.475 -18.594 -23.380  0.00  0.00    +0.006 C 
ATOM     32  C   UNL     1      34.885 -17.286 -23.125  0.00  0.00    +0.035 C 
ENDBRANCH  25  27
ENDBRANCH  20  25
ENDBRANCH  19  20
ENDBRANCH  18  19
ENDBRANCH   3  18
TORSDOF 7
ENDMDL
MODEL 5
REMARK VINA RESULT:     -11.3      3.683      6.600
REMARK  Name = 16122642
REMARK  7 active torsions:
REMARK  status: ('A' for Active; 'I' for Inactive)
REMARK    1  A    between atoms: C_2  and  C_10
REMARK    2  A    between atoms: C_3  and  O_18
REMARK    3  A    between atoms: O_18  and  C_19
REMARK    4  A    between atoms: C_19  and  C_20
REMARK    5  A    between atoms: C_20  and  N_21
REMARK    6  A    between atoms: C_20  and  C_25
REMARK    7  A    between atoms: C_25  and  C_27
REMARK                            x       y       z     vdW  Elec       q    Type
REMARK                         _______ _______ _______ _____ _____    ______ ____
ROOT
ATOM      1  N   UNL     1      37.236 -19.422 -19.587  0.00  0.00    -0.239 NA
ATOM      2  C   UNL     1      35.505 -19.095 -21.233  0.00  0.00    +0.022 C 
ATOM      3  C   UNL     1      35.313 -20.886 -19.647  0.00  0.00    +0.158 C 
ATOM      4  C   UNL     1      34.800 -20.177 -20.728  0.00  0.00    +0.040 C 
ATOM      5  C   UNL     1      36.705 -18.757 -20.638  0.00  0.00    +0.099 C 
ATOM      6  C   UNL     1      36.525 -20.471 -19.118  0.00  0.00    +0.136 C 
ENDROOT
BRANCH   2  10
ATOM      7  N   UNL     1      33.780 -14.941 -24.894  0.00  0.00    -0.280 N 
ATOM      8  N   UNL     1      33.570 -16.130 -25.491  0.00  0.00    -0.173 NA
ATOM      9  C   UNL     1      34.466 -16.356 -23.416  0.00  0.00    +0.032 A 
ATOM     10  C   UNL     1      34.994 -18.336 -22.360  0.00  0.00    +0.002 C 
ATOM     11  C   UNL     1      33.989 -17.040 -24.594  0.00  0.00    +0.102 A 
ATOM     12  C   UNL     1      34.982 -16.931 -22.261  0.00  0.00    +0.003 C 
ATOM     13  C   UNL     1      34.318 -15.017 -23.642  0.00  0.00    +0.053 A 
ATOM     14  C   UNL     1      34.533 -19.060 -23.504  0.00  0.00    +0.002 C 
ATOM     15  C   UNL     1      34.014 -18.445 -24.664  0.00  0.00    +0.021 C 
ATOM     16  C   UNL     1      34.614 -13.815 -22.845  0.00  0.00    +0.051 C 
ATOM     17  H   UNL     1      33.561 -14.084 -25.326  0.00  0.00    +0.189 HD
ENDBRANCH   2  10
BRANCH   3  18
ATOM     18  O   UNL     1      34.649 -21.947 -19.129  0.00  0.00    -0.476 OA
BRANCH  18  19
ATOM     19  C   UNL     1      33.266 -21.767 -18.815  0.00  0.00    +0.184 C 
BRANCH  19  20
ATOM     20  C   UNL     1      32.988 -22.199 -17.370  0.00  0.00    -0.017 C 
BRANCH  20  21
ATOM     21  N   UNL     1      31.547 -22.418 -17.224  0.00  0.00    +0.384 N 
ATOM     22  H   UNL     1      31.043 -21.801 -17.860  0.00  0.00    -0.089 HD
ATOM     23  H   UNL     1      31.268 -22.217 -16.263  0.00  0.00    -0.089 HD
ATOM     24  H   UNL     1      31.326 -23.389 -17.445  0.00  0.00    -0.089 HD
ENDBRANCH  20  21
BRANCH  20  25
ATOM     25  C   UNL     1      33.719 -23.499 -16.974  0.00  0.00    +0.008 C 
BRANCH  25  27
ATOM     26 BR   UNL     1      37.000 -23.121 -11.762  0.00  0.00    -0.049 Br
ATOM     27  C   UNL     1      34.521 -23.408 -15.699  0.00  0.00    -0.024 C 
ATOM     28  C   UNL     1      34.008 -23.953 -14.533  0.00  0.00    -0.004 C 
ATOM     29  C   UNL     1      35.755 -22.779 -15.719  0.00  0.00    -0.004 C 
ATOM     30  C   UNL     1      34.750 -23.868 -13.355  0.00  0.00    +0.006 C 
ATOM     31  C   UNL     1      36.497 -22.694 -14.541  0.00  0.00    +0.006 C 
ATOM     32  C   UNL     1      35.995 -23.238 -13.359  0.00  0.00    +0.035 C 
ENDBRANCH  25  27
ENDBRANCH  20  25
ENDBRANCH  19  20
ENDBRANCH  18  19
ENDBRANCH   3  18
TORSDOF 7
ENDMDL
MODEL 6
REMARK VINA RESULT:     -11.3      3.971      7.362
REMARK  Name = 16122642
REMARK  7 active torsions:
REMARK  status: ('A' for Active; 'I' for Inactive)
REMARK    1  A    between atoms: C_2  and  C_10
REMARK    2  A    between atoms: C_3  and  O_18
REMARK    3  A    between atoms: O_18  and  C_19
REMARK    4  A    between atoms: C_19  and  C_20
REMARK    5  A    between atoms: C_20  and  N_21
REMARK    6  A    between atoms: C_20  and  C_25
REMARK    7  A    between atoms: C_25  and  C_27
REMARK                            x       y       z     vdW  Elec       q    Type
REMARK                         _______ _______ _______ _____ _____    ______ ____
ROOT
ATOM      1  N   UNL     1      33.068 -21.769 -19.005  0.00  0.00    -0.239 NA
ATOM      2  C   UNL     1      34.538 -20.235 -20.145  0.00  0.00    +0.022 C 
ATOM      3  C   UNL     1      35.431 -21.734 -18.497  0.00  0.00    +0.158 C 
ATOM      4  C   UNL     1      35.623 -20.720 -19.429  0.00  0.00    +0.040 C 
ATOM      5  C   UNL     1      33.294 -20.784 -19.903  0.00  0.00    +0.099 C 
ATOM      6  C   UNL     1      34.144 -22.220 -18.324  0.00  0.00    +0.136 C 
ENDROOT
BRANCH   2  10
ATOM      7  N   UNL     1      35.133 -15.167 -22.901  0.00  0.00    -0.280 N 
ATOM      8  N   UNL     1      35.180 -16.147 -23.824  0.00  0.00    -0.173 NA
ATOM      9  C   UNL     1      34.900 -16.960 -21.722  0.00  0.00    +0.032 A 
ATOM     10  C   UNL     1      34.708 -19.178 -21.125  0.00  0.00    +0.002 C 
ATOM     11  C   UNL     1      35.038 -17.285 -23.121  0.00  0.00    +0.102 A 
ATOM     12  C   UNL     1      34.732 -17.846 -20.665  0.00  0.00    +0.003 C 
ATOM     13  C   UNL     1      34.966 -15.600 -21.618  0.00  0.00    +0.053 A 
ATOM     14  C   UNL     1      34.840 -19.552 -22.499  0.00  0.00    +0.002 C 
ATOM     15  C   UNL     1      35.009 -18.625 -23.551  0.00  0.00    +0.021 C 
ATOM     16  C   UNL     1      34.894 -14.665 -20.482  0.00  0.00    +0.051 C 
ATOM     17  H   UNL     1      35.213 -14.215 -23.134  0.00  0.00    +0.189 HD
ENDBRANCH   2  10
BRANCH   3  18
ATOM     18  O   UNL     1      36.468 -22.230 -17.780  0.00  0.00    -0.476 OA
BRANCH  18  19
ATOM     19  C   UNL     1      36.536 -21.881 -16.396  0.00  0.00    +0.184 C 
BRANCH  19  20
ATOM     20  C   UNL     1      36.249 -23.110 -15.523  0.00  0.00    -0.017 C 
BRANCH  20  21
ATOM     21  N   UNL     1      37.530 -23.679 -15.094  0.00  0.00    +0.384 N 
ATOM     22  H   UNL     1      37.559 -24.669 -15.336  0.00  0.00    -0.089 HD
ATOM     23  H   UNL     1      37.627 -23.573 -14.084  0.00  0.00    -0.089 HD
ATOM     24  H   UNL     1      38.293 -23.191 -15.562  0.00  0.00    -0.089 HD
ENDBRANCH  20  21
BRANCH  20  25
ATOM     25  C   UNL     1      35.420 -22.780 -14.264  0.00  0.00    +0.008 C 
BRANCH  25  27
ATOM     26 BR   UNL     1      29.709 -25.119 -14.253  0.00  0.00    -0.049 Br
ATOM     27  C   UNL     1      34.023 -23.352 -14.263  0.00  0.00    -0.024 C 
ATOM     28  C   UNL     1      33.170 -23.067 -15.317  0.00  0.00    -0.004 C 
ATOM     29  C   UNL     1      33.620 -24.152 -13.206  0.00  0.00    -0.004 C 
ATOM     30  C   UNL     1      31.879 -23.595 -15.314  0.00  0.00    +0.006 C 
ATOM     31  C   UNL     1      32.329 -24.680 -13.203  0.00  0.00    +0.006 C 
ATOM     32  C   UNL     1      31.459 -24.403 -14.257  0.00  0.00    +0.035 C 
ENDBRANCH  25  27
ENDBRANCH  20  25
ENDBRANCH  19  20
ENDBRANCH  18  19
ENDBRANCH   3  18
TORSDOF 7
ENDMDL
MODEL 7
REMARK VINA RESULT:     -11.2      5.379     10.962
REMARK  Name = 16122642
REMARK  7 active torsions:
REMARK  status: ('A' for Active; 'I' for Inactive)
REMARK    1  A    between atoms: C_2  and  C_10
REMARK    2  A    between atoms: C_3  and  O_18
REMARK    3  A    between atoms: O_18  and  C_19
REMARK    4  A    between atoms: C_19  and  C_20
REMARK    5  A    between atoms: C_20  and  N_21
REMARK    6  A    between atoms: C_20  and  C_25
REMARK    7  A    between atoms: C_25  and  C_27
REMARK                            x       y       z     vdW  Elec       q    Type
REMARK                         _______ _______ _______ _____ _____    ______ ____
ROOT
ATOM      1  N   UNL     1      36.822 -22.102 -16.355  0.00  0.00    -0.239 NA
ATOM      2  C   UNL     1      34.512 -22.789 -16.269  0.00  0.00    +0.022 C 
ATOM      3  C   UNL     1      35.404 -21.870 -18.299  0.00  0.00    +0.158 C 
ATOM      4  C   UNL     1      34.334 -22.407 -17.591  0.00  0.00    +0.040 C 
ATOM      5  C   UNL     1      35.760 -22.621 -15.699  0.00  0.00    +0.099 C 
ATOM      6  C   UNL     1      36.616 -21.740 -17.641  0.00  0.00    +0.136 C 
ENDROOT
BRANCH   2  10
ATOM      7  N   UNL     1      29.333 -24.429 -14.240  0.00  0.00    -0.280 N 
ATOM      8  N   UNL     1      30.275 -24.910 -13.405  0.00  0.00    -0.173 NA
ATOM      9  C   UNL     1      31.174 -23.736 -15.130  0.00  0.00    +0.032 A 
ATOM     10  C   UNL     1      33.415 -23.354 -15.505  0.00  0.00    +0.002 C 
ATOM     11  C   UNL     1      31.440 -24.496 -13.932  0.00  0.00    +0.102 A 
ATOM     12  C   UNL     1      32.103 -23.135 -15.969  0.00  0.00    +0.003 C 
ATOM     13  C   UNL     1      29.818 -23.714 -15.296  0.00  0.00    +0.053 A 
ATOM     14  C   UNL     1      33.732 -24.098 -14.326  0.00  0.00    +0.002 C 
ATOM     15  C   UNL     1      32.762 -24.698 -13.493  0.00  0.00    +0.021 C 
ATOM     16  C   UNL     1      28.930 -23.116 -16.307  0.00  0.00    +0.051 C 
ATOM     17  H   UNL     1      28.371 -24.580 -14.098  0.00  0.00    +0.189 HD
ENDBRANCH   2  10
BRANCH   3  18
ATOM     18  O   UNL     1      35.264 -21.487 -19.591  0.00  0.00    -0.476 OA
BRANCH  18  19
ATOM     19  C   UNL     1      34.393 -20.385 -19.858  0.00  0.00    +0.184 C 
BRANCH  19  20
ATOM     20  C   UNL     1      35.150 -19.275 -20.597  0.00  0.00    -0.017 C 
BRANCH  20  21
ATOM     21  N   UNL     1      36.522 -19.231 -20.082  0.00  0.00    +0.384 N 
ATOM     22  H   UNL     1      36.590 -19.810 -19.246  0.00  0.00    -0.089 HD
ATOM     23  H   UNL     1      36.767 -18.269 -19.850  0.00  0.00    -0.089 HD
ATOM     24  H   UNL     1      37.163 -19.584 -20.793  0.00  0.00    -0.089 HD
ENDBRANCH  20  21
BRANCH  20  25
ATOM     25  C   UNL     1      35.213 -19.496 -22.123  0.00  0.00    +0.008 C 
BRANCH  25  27
ATOM     26 BR   UNL     1      33.638 -14.578 -25.502  0.00  0.00    -0.049 Br
ATOM     27  C   UNL     1      34.829 -18.293 -22.950  0.00  0.00    -0.024 C 
ATOM     28  C   UNL     1      35.287 -17.038 -22.578  0.00  0.00    -0.004 C 
ATOM     29  C   UNL     1      34.024 -18.465 -24.064  0.00  0.00    -0.004 C 
ATOM     30  C   UNL     1      34.931 -15.927 -23.342  0.00  0.00    +0.006 C 
ATOM     31  C   UNL     1      33.668 -17.353 -24.828  0.00  0.00    +0.006 C 
ATOM     32  C   UNL     1      34.122 -16.085 -24.467  0.00  0.00    +0.035 C 
ENDBRANCH  25  27
ENDBRANCH  20  25
ENDBRANCH  19  20
ENDBRANCH  18  19
ENDBRANCH   3  18
TORSDOF 7
ENDMDL
MODEL 8
REMARK VINA RESULT:     -11.2      5.111      7.857
REMARK  Name = 16122642
REMARK  7 active torsions:
REMARK  status: ('A' for Active; 'I' for Inactive)
REMARK    1  A    between atoms: C_2  and  C_10
REMARK    2  A    between atoms: C_3  and  O_18
REMARK    3  A    between atoms: O_18  and  C_19
REMARK    4  A    between atoms: C_19  and  C_20
REMARK    5  A    between atoms: C_20  and  N_21
REMARK    6  A    between atoms: C_20  and  C_25
REMARK    7  A    between atoms: C_25  and  C_27
REMARK                            x       y       z     vdW  Elec       q    Type
REMARK                         _______ _______ _______ _____ _____    ______ ____
ROOT
ATOM      1  N   UNL     1      33.050 -21.910 -18.937  0.00  0.00    -0.239 NA
ATOM      2  C   UNL     1      34.568 -20.396 -20.041  0.00  0.00    +0.022 C 
ATOM      3  C   UNL     1      35.393 -21.873 -18.340  0.00  0.00    +0.158 C 
ATOM      4  C   UNL     1      35.623 -20.873 -19.278  0.00  0.00    +0.040 C 
ATOM      5  C   UNL     1      33.313 -20.939 -19.840  0.00  0.00    +0.099 C 
ATOM      6  C   UNL     1      34.099 -22.354 -18.210  0.00  0.00    +0.136 C 
ENDROOT
BRANCH   2  10
ATOM      7  N   UNL     1      34.389 -16.952 -24.704  0.00  0.00    -0.280 N 
ATOM      8  N   UNL     1      35.311 -16.453 -23.857  0.00  0.00    -0.173 NA
ATOM      9  C   UNL     1      34.328 -18.334 -23.047  0.00  0.00    +0.032 A 
ATOM     10  C   UNL     1      34.777 -19.353 -21.029  0.00  0.00    +0.002 C 
ATOM     11  C   UNL     1      35.299 -17.293 -22.807  0.00  0.00    +0.102 A 
ATOM     12  C   UNL     1      34.010 -19.396 -22.210  0.00  0.00    +0.003 C 
ATOM     13  C   UNL     1      33.767 -18.085 -24.267  0.00  0.00    +0.053 A 
ATOM     14  C   UNL     1      35.750 -18.345 -20.745  0.00  0.00    +0.002 C 
ATOM     15  C   UNL     1      36.051 -17.277 -21.618  0.00  0.00    +0.021 C 
ATOM     16  C   UNL     1      32.732 -18.764 -25.065  0.00  0.00    +0.051 C 
ATOM     17  H   UNL     1      34.183 -16.533 -25.570  0.00  0.00    +0.189 HD
ENDBRANCH   2  10
BRANCH   3  18
ATOM     18  O   UNL     1      36.401 -22.362 -17.578  0.00  0.00    -0.476 OA
BRANCH  18  19
ATOM     19  C   UNL     1      36.378 -22.053 -16.183  0.00  0.00    +0.184 C 
BRANCH  19  20
ATOM     20  C   UNL     1      36.032 -23.305 -15.367  0.00  0.00    -0.017 C 
BRANCH  20  21
ATOM     21  N   UNL     1      37.284 -23.939 -14.942  0.00  0.00    +0.384 N 
ATOM     22  H   UNL     1      37.584 -24.606 -15.652  0.00  0.00    -0.089 HD
ATOM     23  H   UNL     1      37.136 -24.426 -14.059  0.00  0.00    -0.089 HD
ATOM     24  H   UNL     1      38.003 -23.225 -14.821  0.00  0.00    -0.089 HD
ENDBRANCH  20  21
BRANCH  20  25
ATOM     25  C   UNL     1      35.195 -22.996 -14.107  0.00  0.00    +0.008 C 
BRANCH  25  27
ATOM     26 BR   UNL     1      29.384 -25.062 -14.315  0.00  0.00    -0.049 Br
ATOM     27  C   UNL     1      33.774 -23.501 -14.157  0.00  0.00    -0.024 C 
ATOM     28  C   UNL     1      33.324 -24.364 -13.170  0.00  0.00    -0.004 C 
ATOM     29  C   UNL     1      32.946 -23.094 -15.189  0.00  0.00    -0.004 C 
ATOM     30  C   UNL     1      32.010 -24.831 -13.217  0.00  0.00    +0.006 C 
ATOM     31  C   UNL     1      31.632 -23.561 -15.237  0.00  0.00    +0.006 C 
ATOM     32  C   UNL     1      31.164 -24.429 -14.251  0.00  0.00    +0.035 C 
ENDBRANCH  25  27
ENDBRANCH  20  25
ENDBRANCH  19  20
ENDBRANCH  18  19
ENDBRANCH   3  18
TORSDOF 7
ENDMDL
MODEL 9
REMARK VINA RESULT:     -11.1      5.978     12.276
REMARK  Name = 16122642
REMARK  7 active torsions:
REMARK  status: ('A' for Active; 'I' for Inactive)
REMARK    1  A    between atoms: C_2  and  C_10
REMARK    2  A    between atoms: C_3  and  O_18
REMARK    3  A    between atoms: O_18  and  C_19
REMARK    4  A    between atoms: C_19  and  C_20
REMARK    5  A    between atoms: C_20  and  N_21
REMARK    6  A    between atoms: C_20  and  C_25
REMARK    7  A    between atoms: C_25  and  C_27
REMARK                            x       y       z     vdW  Elec       q    Type
REMARK                         _______ _______ _______ _____ _____    ______ ____
ROOT
ATOM      1  N   UNL     1      31.495 -23.001 -15.473  0.00  0.00    -0.239 NA
ATOM      2  C   UNL     1      33.751 -23.637 -14.905  0.00  0.00    +0.022 C 
ATOM      3  C   UNL     1      33.229 -22.991 -17.157  0.00  0.00    +0.158 C 
ATOM      4  C   UNL     1      34.157 -23.420 -16.214  0.00  0.00    +0.040 C 
ATOM      5  C   UNL     1      32.425 -23.416 -14.584  0.00  0.00    +0.099 C 
ATOM      6  C   UNL     1      31.922 -22.798 -16.739  0.00  0.00    +0.136 C 
ENDROOT
BRANCH   2  10
ATOM      7  N   UNL     1      38.364 -25.654 -12.028  0.00  0.00    -0.280 N 
ATOM      8  N   UNL     1      37.411 -25.358 -11.123  0.00  0.00    -0.173 NA
ATOM      9  C   UNL     1      36.741 -24.928 -13.251  0.00  0.00    +0.032 A 
ATOM     10  C   UNL     1      34.696 -24.083 -13.899  0.00  0.00    +0.002 C 
ATOM     11  C   UNL     1      36.379 -24.899 -11.854  0.00  0.00    +0.102 A 
ATOM     12  C   UNL     1      35.958 -24.538 -14.330  0.00  0.00    +0.003 C 
ATOM     13  C   UNL     1      38.015 -25.415 -13.325  0.00  0.00    +0.053 A 
ATOM     14  C   UNL     1      34.290 -24.036 -12.528  0.00  0.00    +0.002 C 
ATOM     15  C   UNL     1      35.111 -24.440 -11.453  0.00  0.00    +0.021 C 
ATOM     16  C   UNL     1      38.935 -25.680 -14.443  0.00  0.00    +0.051 C 
ATOM     17  H   UNL     1      39.243 -26.016 -11.773  0.00  0.00    +0.189 HD
ENDBRANCH   2  10
BRANCH   3  18
ATOM     18  O   UNL     1      33.592 -22.769 -18.444  0.00  0.00    -0.476 OA
BRANCH  18  19
ATOM     19  C   UNL     1      34.717 -21.916 -18.670  0.00  0.00    +0.184 C 
BRANCH  19  20
ATOM     20  C   UNL     1      34.475 -21.033 -19.900  0.00  0.00    -0.017 C 
BRANCH  20  21
ATOM     21  N   UNL     1      33.212 -20.314 -19.710  0.00  0.00    +0.384 N 
ATOM     22  H   UNL     1      33.397 -19.314 -19.644  0.00  0.00    -0.089 HD
ATOM     23  H   UNL     1      32.764 -20.634 -18.852  0.00  0.00    -0.089 HD
ATOM     24  H   UNL     1      32.595 -20.494 -20.503  0.00  0.00    -0.089 HD
ENDBRANCH  20  21
BRANCH  20  25
ATOM     25  C   UNL     1      35.593 -19.994 -20.131  0.00  0.00    +0.008 C 
BRANCH  25  27
ATOM     26 BR   UNL     1      34.483 -15.978 -24.682  0.00  0.00    -0.049 Br
ATOM     27  C   UNL     1      35.320 -19.013 -21.244  0.00  0.00    -0.024 C 
ATOM     28  C   UNL     1      34.839 -19.477 -22.458  0.00  0.00    -0.004 C 
ATOM     29  C   UNL     1      35.558 -17.665 -21.032  0.00  0.00    -0.004 C 
ATOM     30  C   UNL     1      34.588 -18.569 -23.487  0.00  0.00    +0.006 C 
ATOM     31  C   UNL     1      35.308 -16.757 -22.061  0.00  0.00    +0.006 C 
ATOM     32  C   UNL     1      34.822 -17.209 -23.288  0.00  0.00    +0.035 C 
ENDBRANCH  25  27
ENDBRANCH  20  25
ENDBRANCH  19  20
ENDBRANCH  18  19
ENDBRANCH   3  18
TORSDOF 7
ENDMDL
