MODEL 1
REMARK VINA RESULT:     -11.2      0.000      0.000
REMARK  Name = 5327686
REMARK  3 active torsions:
REMARK  status: ('A' for Active; 'I' for Inactive)
REMARK    1  A    between atoms: C_4  and  C_10
REMARK    2  A    between atoms: C_5  and  C_23
REMARK    3  A    between atoms: C_17  and  N_21
REMARK                            x       y       z     vdW  Elec       q    Type
REMARK                         _______ _______ _______ _____ _____    ______ ____
ROOT
ATOM      1  O   UNL     1      31.613 -22.829 -17.132  0.00  0.00    -0.270 OA
ATOM      2  O   UNL     1      31.541 -25.062 -13.136  0.00  0.00    -0.270 OA
ATOM      3  N   UNL     1      31.189 -24.003 -15.173  0.00  0.00    -0.248 N 
ATOM      4  C   UNL     1      33.349 -23.370 -15.551  0.00  0.00    +0.059 C 
ATOM      5  C   UNL     1      33.325 -24.016 -14.371  0.00  0.00    +0.059 C 
ATOM      6  C   UNL     1      31.963 -23.349 -16.085  0.00  0.00    +0.252 C 
ATOM      7  C   UNL     1      31.926 -24.438 -14.111  0.00  0.00    +0.252 C 
ATOM      8  H   UNL     1      30.219 -24.143 -15.268  0.00  0.00    +0.158 HD
ENDROOT
BRANCH   4  10
ATOM      9  N   UNL     1      36.517 -22.089 -16.687  0.00  0.00    -0.284 N 
ATOM     10  C   UNL     1      34.448 -22.761 -16.233  0.00  0.00    +0.021 C 
ATOM     11  C   UNL     1      34.430 -22.059 -17.473  0.00  0.00    +0.015 C 
ATOM     12  C   UNL     1      35.740 -21.649 -17.734  0.00  0.00    +0.053 C 
ATOM     13  C   UNL     1      35.747 -22.761 -15.776  0.00  0.00    +0.066 C 
ATOM     14  C   UNL     1      33.420 -21.733 -18.401  0.00  0.00    +0.003 C 
ATOM     15  C   UNL     1      36.091 -20.928 -18.880  0.00  0.00    +0.039 C 
ATOM     16  C   UNL     1      37.944 -21.881 -16.553  0.00  0.00    +0.117 C 
ATOM     17  C   UNL     1      35.073 -20.616 -19.786  0.00  0.00    +0.144 C 
ATOM     18  C   UNL     1      33.758 -21.012 -19.552  0.00  0.00    +0.024 C 
BRANCH  17  21
ATOM     19  O   UNL     1      34.571 -19.888 -21.915  0.00  0.00    -0.126 OA
ATOM     20  O   UNL     1      36.469 -19.252 -21.014  0.00  0.00    -0.126 OA
ATOM     21  N   UNL     1      35.386 -19.883 -20.962  0.00  0.00    +0.058 N 
ENDBRANCH  17  21
ENDBRANCH   4  10
BRANCH   5  23
ATOM     22  N   UNL     1      35.668 -24.287 -11.652  0.00  0.00    -0.284 N 
ATOM     23  C   UNL     1      34.399 -24.312 -13.473  0.00  0.00    +0.021 C 
ATOM     24  C   UNL     1      35.505 -25.180 -13.690  0.00  0.00    +0.015 C 
ATOM     25  C   UNL     1      36.285 -25.146 -12.532  0.00  0.00    +0.052 C 
ATOM     26  C   UNL     1      34.527 -23.776 -12.212  0.00  0.00    +0.066 C 
ATOM     27  C   UNL     1      35.918 -25.995 -14.763  0.00  0.00    +0.001 C 
ATOM     28  C   UNL     1      37.463 -25.889 -12.394  0.00  0.00    +0.015 C 
ATOM     29  C   UNL     1      36.144 -23.954 -10.327  0.00  0.00    +0.117 C 
ATOM     30  C   UNL     1      37.094 -26.743 -14.638  0.00  0.00    +0.000 C 
ATOM     31  C   UNL     1      37.853 -26.690 -13.471  0.00  0.00    +0.001 C 
ENDBRANCH   5  23
TORSDOF 3
ENDMDL
MODEL 2
REMARK VINA RESULT:     -10.6      8.767     12.928
REMARK  Name = 5327686
REMARK  3 active torsions:
REMARK  status: ('A' for Active; 'I' for Inactive)
REMARK    1  A    between atoms: C_4  and  C_10
REMARK    2  A    between atoms: C_5  and  C_23
REMARK    3  A    between atoms: C_17  and  N_21
REMARK                            x       y       z     vdW  Elec       q    Type
REMARK                         _______ _______ _______ _____ _____    ______ ____
ROOT
ATOM      1  O   UNL     1      32.765 -12.273 -26.210  0.00  0.00    -0.270 OA
ATOM      2  O   UNL     1      34.817 -16.320 -25.607  0.00  0.00    -0.270 OA
ATOM      3  N   UNL     1      33.805 -14.348 -26.299  0.00  0.00    -0.248 N 
ATOM      4  C   UNL     1      33.439 -13.464 -24.227  0.00  0.00    +0.059 C 
ATOM      5  C   UNL     1      34.032 -14.659 -24.050  0.00  0.00    +0.059 C 
ATOM      6  C   UNL     1      33.280 -13.248 -25.688  0.00  0.00    +0.252 C 
ATOM      7  C   UNL     1      34.280 -15.247 -25.391  0.00  0.00    +0.252 C 
ATOM      8  H   UNL     1      33.837 -14.478 -27.275  0.00  0.00    +0.158 HD
ENDROOT
BRANCH   4  10
ATOM      9  N   UNL     1      31.924 -11.671 -21.496  0.00  0.00    -0.284 N 
ATOM     10  C   UNL     1      32.987 -12.519 -23.254  0.00  0.00    +0.021 C 
ATOM     11  C   UNL     1      33.313 -11.136 -23.158  0.00  0.00    +0.015 C 
ATOM     12  C   UNL     1      32.635 -10.629 -22.046  0.00  0.00    +0.053 C 
ATOM     13  C   UNL     1      32.130 -12.816 -22.217  0.00  0.00    +0.066 C 
ATOM     14  C   UNL     1      34.126 -10.265 -23.911  0.00  0.00    +0.003 C 
ATOM     15  C   UNL     1      32.728  -9.290 -21.651  0.00  0.00    +0.039 C 
ATOM     16  C   UNL     1      31.078 -11.586 -20.324  0.00  0.00    +0.117 C 
ATOM     17  C   UNL     1      33.539  -8.445 -22.414  0.00  0.00    +0.144 C 
ATOM     18  C   UNL     1      34.228  -8.923 -23.527  0.00  0.00    +0.024 C 
BRANCH  17  21
ATOM     19  O   UNL     1      33.444  -6.745 -20.859  0.00  0.00    -0.126 OA
ATOM     20  O   UNL     1      33.981  -6.241 -22.927  0.00  0.00    -0.126 OA
ATOM     21  N   UNL     1      33.661  -7.077 -22.049  0.00  0.00    +0.058 N 
ENDBRANCH  17  21
ENDBRANCH   4  10
BRANCH   5  23
ATOM     22  N   UNL     1      34.954 -15.618 -20.706  0.00  0.00    -0.284 N 
ATOM     23  C   UNL     1      34.413 -15.315 -22.838  0.00  0.00    +0.021 C 
ATOM     24  C   UNL     1      34.670 -16.699 -22.637  0.00  0.00    +0.015 C 
ATOM     25  C   UNL     1      35.007 -16.862 -21.291  0.00  0.00    +0.052 C 
ATOM     26  C   UNL     1      34.597 -14.676 -21.633  0.00  0.00    +0.066 C 
ATOM     27  C   UNL     1      34.647 -17.834 -23.473  0.00  0.00    +0.001 C 
ATOM     28  C   UNL     1      35.324 -18.108 -20.738  0.00  0.00    +0.015 C 
ATOM     29  C   UNL     1      35.237 -15.329 -19.317  0.00  0.00    +0.117 C 
ATOM     30  C   UNL     1      34.963 -19.086 -22.933  0.00  0.00    +0.000 C 
ATOM     31  C   UNL     1      35.295 -19.219 -21.586  0.00  0.00    +0.001 C 
ENDBRANCH   5  23
TORSDOF 3
ENDMDL
MODEL 3
REMARK VINA RESULT:     -10.6      0.848      2.025
REMARK  Name = 5327686
REMARK  3 active torsions:
REMARK  status: ('A' for Active; 'I' for Inactive)
REMARK    1  A    between atoms: C_4  and  C_10
REMARK    2  A    between atoms: C_5  and  C_23
REMARK    3  A    between atoms: C_17  and  N_21
REMARK                            x       y       z     vdW  Elec       q    Type
REMARK                         _______ _______ _______ _____ _____    ______ ____
ROOT
ATOM      1  O   UNL     1      31.397 -22.418 -16.835  0.00  0.00    -0.270 OA
ATOM      2  O   UNL     1      31.929 -25.413 -13.414  0.00  0.00    -0.270 OA
ATOM      3  N   UNL     1      31.272 -23.945 -15.089  0.00  0.00    -0.248 N 
ATOM      4  C   UNL     1      33.359 -23.355 -15.797  0.00  0.00    +0.059 C 
ATOM      5  C   UNL     1      33.515 -24.226 -14.784  0.00  0.00    +0.059 C 
ATOM      6  C   UNL     1      31.902 -23.157 -16.006  0.00  0.00    +0.252 C 
ATOM      7  C   UNL     1      32.164 -24.623 -14.313  0.00  0.00    +0.252 C 
ATOM      8  H   UNL     1      30.294 -24.014 -14.998  0.00  0.00    +0.158 HD
ENDROOT
BRANCH   4  10
ATOM      9  N   UNL     1      36.320 -21.869 -17.210  0.00  0.00    -0.284 N 
ATOM     10  C   UNL     1      34.349 -22.674 -16.573  0.00  0.00    +0.021 C 
ATOM     11  C   UNL     1      34.171 -21.970 -17.799  0.00  0.00    +0.015 C 
ATOM     12  C   UNL     1      35.422 -21.476 -18.176  0.00  0.00    +0.053 C 
ATOM     13  C   UNL     1      35.683 -22.592 -16.238  0.00  0.00    +0.066 C 
ATOM     14  C   UNL     1      33.061 -21.707 -18.626  0.00  0.00    +0.003 C 
ATOM     15  C   UNL     1      35.619 -20.730 -19.343  0.00  0.00    +0.039 C 
ATOM     16  C   UNL     1      37.737 -21.570 -17.207  0.00  0.00    +0.117 C 
ATOM     17  C   UNL     1      34.503 -20.481 -20.148  0.00  0.00    +0.144 C 
ATOM     18  C   UNL     1      33.243 -20.962 -19.797  0.00  0.00    +0.024 C 
BRANCH  17  21
ATOM     19  O   UNL     1      35.798 -19.304 -21.649  0.00  0.00    -0.126 OA
ATOM     20  O   UNL     1      33.649 -19.502 -22.052  0.00  0.00    -0.126 OA
ATOM     21  N   UNL     1      34.658 -19.726 -21.341  0.00  0.00    +0.058 N 
ENDBRANCH  17  21
ENDBRANCH   4  10
BRANCH   5  23
ATOM     22  N   UNL     1      36.572 -25.948 -13.981  0.00  0.00    -0.284 N 
ATOM     23  C   UNL     1      34.717 -24.751 -14.212  0.00  0.00    +0.021 C 
ATOM     24  C   UNL     1      35.301 -24.427 -12.957  0.00  0.00    +0.015 C 
ATOM     25  C   UNL     1      36.464 -25.192 -12.836  0.00  0.00    +0.052 C 
ATOM     26  C   UNL     1      35.520 -25.690 -14.818  0.00  0.00    +0.066 C 
ATOM     27  C   UNL     1      34.952 -23.553 -11.908  0.00  0.00    +0.001 C 
ATOM     28  C   UNL     1      37.298 -25.125 -11.714  0.00  0.00    +0.015 C 
ATOM     29  C   UNL     1      37.632 -26.888 -14.270  0.00  0.00    +0.117 C 
ATOM     30  C   UNL     1      35.777 -23.477 -10.779  0.00  0.00    +0.000 C 
ATOM     31  C   UNL     1      36.931 -24.252 -10.686  0.00  0.00    +0.001 C 
ENDBRANCH   5  23
TORSDOF 3
ENDMDL
MODEL 4
REMARK VINA RESULT:     -10.5      2.251      5.188
REMARK  Name = 5327686
REMARK  3 active torsions:
REMARK  status: ('A' for Active; 'I' for Inactive)
REMARK    1  A    between atoms: C_4  and  C_10
REMARK    2  A    between atoms: C_5  and  C_23
REMARK    3  A    between atoms: C_17  and  N_21
REMARK                            x       y       z     vdW  Elec       q    Type
REMARK                         _______ _______ _______ _____ _____    ______ ____
ROOT
ATOM      1  O   UNL     1      33.424 -22.227 -18.130  0.00  0.00    -0.270 OA
ATOM      2  O   UNL     1      37.731 -22.113 -16.581  0.00  0.00    -0.270 OA
ATOM      3  N   UNL     1      35.696 -22.006 -17.694  0.00  0.00    -0.248 N 
ATOM      4  C   UNL     1      34.410 -22.915 -16.042  0.00  0.00    +0.059 C 
ATOM      5  C   UNL     1      35.678 -22.892 -15.591  0.00  0.00    +0.059 C 
ATOM      6  C   UNL     1      34.405 -22.345 -17.413  0.00  0.00    +0.252 C 
ATOM      7  C   UNL     1      36.528 -22.300 -16.655  0.00  0.00    +0.252 C 
ATOM      8  H   UNL     1      35.990 -21.602 -18.542  0.00  0.00    +0.158 HD
ENDROOT
BRANCH   4  10
ATOM      9  N   UNL     1      31.911 -24.465 -13.963  0.00  0.00    -0.284 N 
ATOM     10  C   UNL     1      33.226 -23.400 -15.404  0.00  0.00    +0.021 C 
ATOM     11  C   UNL     1      31.871 -23.162 -15.773  0.00  0.00    +0.015 C 
ATOM     12  C   UNL     1      31.067 -23.840 -14.853  0.00  0.00    +0.053 C 
ATOM     13  C   UNL     1      33.216 -24.205 -14.286  0.00  0.00    +0.066 C 
ATOM     14  C   UNL     1      31.250 -22.430 -16.805  0.00  0.00    +0.003 C 
ATOM     15  C   UNL     1      29.670 -23.823 -14.914  0.00  0.00    +0.039 C 
ATOM     16  C   UNL     1      31.495 -25.280 -12.841  0.00  0.00    +0.117 C 
ATOM     17  C   UNL     1      29.076 -23.092 -15.947  0.00  0.00    +0.144 C 
ATOM     18  C   UNL     1      29.852 -22.405 -16.878  0.00  0.00    +0.024 C 
BRANCH  17  21
ATOM     19  O   UNL     1      26.987 -22.754 -15.031  0.00  0.00    -0.126 OA
ATOM     20  O   UNL     1      27.121 -23.309 -17.150  0.00  0.00    -0.126 OA
ATOM     21  N   UNL     1      27.659 -23.049 -16.047  0.00  0.00    +0.058 N 
ENDBRANCH  17  21
ENDBRANCH   4  10
BRANCH   5  23
ATOM     22  N   UNL     1      36.918 -23.230 -12.230  0.00  0.00    -0.284 N 
ATOM     23  C   UNL     1      36.203 -23.314 -14.329  0.00  0.00    +0.021 C 
ATOM     24  C   UNL     1      36.602 -24.623 -13.943  0.00  0.00    +0.015 C 
ATOM     25  C   UNL     1      37.046 -24.543 -12.621  0.00  0.00    +0.052 C 
ATOM     26  C   UNL     1      36.410 -22.479 -13.255  0.00  0.00    +0.066 C 
ATOM     27  C   UNL     1      36.626 -25.874 -14.593  0.00  0.00    +0.001 C 
ATOM     28  C   UNL     1      37.516 -25.655 -11.914  0.00  0.00    +0.015 C 
ATOM     29  C   UNL     1      37.269 -22.702 -10.930  0.00  0.00    +0.117 C 
ATOM     30  C   UNL     1      37.095 -26.995 -13.897  0.00  0.00    +0.000 C 
ATOM     31  C   UNL     1      37.532 -26.885 -12.578  0.00  0.00    +0.001 C 
ENDBRANCH   5  23
TORSDOF 3
ENDMDL
MODEL 5
REMARK VINA RESULT:     -10.1      2.650      6.426
REMARK  Name = 5327686
REMARK  3 active torsions:
REMARK  status: ('A' for Active; 'I' for Inactive)
REMARK    1  A    between atoms: C_4  and  C_10
REMARK    2  A    between atoms: C_5  and  C_23
REMARK    3  A    between atoms: C_17  and  N_21
REMARK                            x       y       z     vdW  Elec       q    Type
REMARK                         _______ _______ _______ _____ _____    ______ ____
ROOT
ATOM      1  O   UNL     1      31.963 -25.150 -12.428  0.00  0.00    -0.270 OA
ATOM      2  O   UNL     1      31.484 -23.189 -16.537  0.00  0.00    -0.270 OA
ATOM      3  N   UNL     1      31.340 -24.261 -14.482  0.00  0.00    -0.248 N 
ATOM      4  C   UNL     1      33.527 -24.026 -13.875  0.00  0.00    +0.059 C 
ATOM      5  C   UNL     1      33.388 -23.460 -15.088  0.00  0.00    +0.059 C 
ATOM      6  C   UNL     1      32.201 -24.557 -13.467  0.00  0.00    +0.252 C 
ATOM      7  C   UNL     1      31.968 -23.602 -15.496  0.00  0.00    +0.252 C 
ATOM      8  H   UNL     1      30.384 -24.496 -14.483  0.00  0.00    +0.158 HD
ENDROOT
BRANCH   4  10
ATOM      9  N   UNL     1      36.022 -24.114 -11.279  0.00  0.00    -0.284 N 
ATOM     10  C   UNL     1      34.695 -24.162 -13.062  0.00  0.00    +0.021 C 
ATOM     11  C   UNL     1      35.987 -24.618 -13.452  0.00  0.00    +0.015 C 
ATOM     12  C   UNL     1      36.799 -24.579 -12.316  0.00  0.00    +0.053 C 
ATOM     13  C   UNL     1      34.751 -23.859 -11.719  0.00  0.00    +0.066 C 
ATOM     14  C   UNL     1      36.544 -25.064 -14.667  0.00  0.00    +0.003 C 
ATOM     15  C   UNL     1      38.144 -24.964 -12.335  0.00  0.00    +0.039 C 
ATOM     16  C   UNL     1      36.469 -23.917  -9.916  0.00  0.00    +0.117 C 
ATOM     17  C   UNL     1      38.674 -25.402 -13.552  0.00  0.00    +0.144 C 
ATOM     18  C   UNL     1      37.888 -25.453 -14.701  0.00  0.00    +0.024 C 
BRANCH  17  21
ATOM     19  O   UNL     1      40.309 -26.983 -13.933  0.00  0.00    -0.126 OA
ATOM     20  O   UNL     1      40.929 -24.958 -13.355  0.00  0.00    -0.126 OA
ATOM     21  N   UNL     1      40.037 -25.801 -13.617  0.00  0.00    +0.058 N 
ENDBRANCH  17  21
ENDBRANCH   4  10
BRANCH   5  23
ATOM     22  N   UNL     1      36.278 -21.869 -16.526  0.00  0.00    -0.284 N 
ATOM     23  C   UNL     1      34.362 -22.799 -15.900  0.00  0.00    +0.021 C 
ATOM     24  C   UNL     1      34.218 -22.342 -17.239  0.00  0.00    +0.015 C 
ATOM     25  C   UNL     1      35.435 -21.763 -17.608  0.00  0.00    +0.052 C 
ATOM     26  C   UNL     1      35.639 -22.493 -15.488  0.00  0.00    +0.066 C 
ATOM     27  C   UNL     1      33.167 -22.368 -18.178  0.00  0.00    +0.001 C 
ATOM     28  C   UNL     1      35.653 -21.205 -18.873  0.00  0.00    +0.015 C 
ATOM     29  C   UNL     1      37.643 -21.391 -16.473  0.00  0.00    +0.117 C 
ATOM     30  C   UNL     1      33.371 -21.812 -19.446  0.00  0.00    +0.000 C 
ATOM     31  C   UNL     1      34.595 -21.241 -19.787  0.00  0.00    +0.001 C 
ENDBRANCH   5  23
TORSDOF 3
ENDMDL
MODEL 6
REMARK VINA RESULT:      -9.8      7.815     13.172
REMARK  Name = 5327686
REMARK  3 active torsions:
REMARK  status: ('A' for Active; 'I' for Inactive)
REMARK    1  A    between atoms: C_4  and  C_10
REMARK    2  A    between atoms: C_5  and  C_23
REMARK    3  A    between atoms: C_17  and  N_21
REMARK                            x       y       z     vdW  Elec       q    Type
REMARK                         _______ _______ _______ _____ _____    ______ ____
ROOT
ATOM      1  O   UNL     1      34.832 -16.407 -25.313  0.00  0.00    -0.270 OA
ATOM      2  O   UNL     1      32.747 -12.457 -26.316  0.00  0.00    -0.270 OA
ATOM      3  N   UNL     1      33.797 -14.524 -26.198  0.00  0.00    -0.248 N 
ATOM      4  C   UNL     1      34.045 -14.597 -23.930  0.00  0.00    +0.059 C 
ATOM      5  C   UNL     1      33.442 -13.432 -24.226  0.00  0.00    +0.059 C 
ATOM      6  C   UNL     1      34.287 -15.320 -25.205  0.00  0.00    +0.252 C 
ATOM      7  C   UNL     1      33.271 -13.370 -25.700  0.00  0.00    +0.252 C 
ATOM      8  H   UNL     1      33.822 -14.754 -27.155  0.00  0.00    +0.158 HD
ENDROOT
BRANCH   4  10
ATOM      9  N   UNL     1      34.967 -15.203 -20.502  0.00  0.00    -0.284 N 
ATOM     10  C   UNL     1      34.441 -15.120 -22.660  0.00  0.00    +0.021 C 
ATOM     11  C   UNL     1      34.761 -16.468 -22.328  0.00  0.00    +0.015 C 
ATOM     12  C   UNL     1      35.087 -16.492 -20.969  0.00  0.00    +0.053 C 
ATOM     13  C   UNL     1      34.578 -14.368 -21.514  0.00  0.00    +0.066 C 
ATOM     14  C   UNL     1      34.804 -17.674 -23.056  0.00  0.00    +0.003 C 
ATOM     15  C   UNL     1      35.454 -17.665 -20.301  0.00  0.00    +0.039 C 
ATOM     16  C   UNL     1      35.212 -14.776 -19.141  0.00  0.00    +0.117 C 
ATOM     17  C   UNL     1      35.491 -18.848 -21.044  0.00  0.00    +0.144 C 
ATOM     18  C   UNL     1      35.170 -18.855 -22.400  0.00  0.00    +0.024 C 
BRANCH  17  21
ATOM     19  O   UNL     1      35.023 -20.993 -20.339  0.00  0.00    -0.126 OA
ATOM     20  O   UNL     1      37.015 -20.169 -19.925  0.00  0.00    -0.126 OA
ATOM     21  N   UNL     1      35.861 -20.062 -20.405  0.00  0.00    +0.058 N 
ENDBRANCH  17  21
ENDBRANCH   4  10
BRANCH   5  23
ATOM     22  N   UNL     1      31.866 -11.356 -21.745  0.00  0.00    -0.284 N 
ATOM     23  C   UNL     1      32.991 -12.392 -23.353  0.00  0.00    +0.021 C 
ATOM     24  C   UNL     1      33.415 -11.036 -23.317  0.00  0.00    +0.015 C 
ATOM     25  C   UNL     1      32.694 -10.407 -22.299  0.00  0.00    +0.052 C 
ATOM     26  C   UNL     1      32.037 -12.559 -22.375  0.00  0.00    +0.066 C 
ATOM     27  C   UNL     1      34.348 -10.279 -24.055  0.00  0.00    +0.001 C 
ATOM     28  C   UNL     1      32.859  -9.054 -21.981  0.00  0.00    +0.015 C 
ATOM     29  C   UNL     1      30.938 -11.130 -20.658  0.00  0.00    +0.117 C 
ATOM     30  C   UNL     1      34.523  -8.925 -23.748  0.00  0.00    +0.000 C 
ATOM     31  C   UNL     1      33.790  -8.324 -22.726  0.00  0.00    +0.001 C 
ENDBRANCH   5  23
TORSDOF 3
ENDMDL
MODEL 7
REMARK VINA RESULT:      -9.7      2.818      6.150
REMARK  Name = 5327686
REMARK  3 active torsions:
REMARK  status: ('A' for Active; 'I' for Inactive)
REMARK    1  A    between atoms: C_4  and  C_10
REMARK    2  A    between atoms: C_5  and  C_23
REMARK    3  A    between atoms: C_17  and  N_21
REMARK                            x       y       z     vdW  Elec       q    Type
REMARK                         _______ _______ _______ _____ _____    ______ ____
ROOT
ATOM      1  O   UNL     1      32.414 -25.215 -11.994  0.00  0.00    -0.270 OA
ATOM      2  O   UNL     1      30.947 -23.911 -16.130  0.00  0.00    -0.270 OA
ATOM      3  N   UNL     1      31.318 -24.689 -13.974  0.00  0.00    -0.248 N 
ATOM      4  C   UNL     1      33.537 -24.170 -13.852  0.00  0.00    +0.059 C 
ATOM      5  C   UNL     1      33.108 -23.797 -15.072  0.00  0.00    +0.059 C 
ATOM      6  C   UNL     1      32.383 -24.757 -13.125  0.00  0.00    +0.252 C 
ATOM      7  C   UNL     1      31.663 -24.126 -15.166  0.00  0.00    +0.252 C 
ATOM      8  H   UNL     1      30.413 -25.008 -13.754  0.00  0.00    +0.158 HD
ENDROOT
BRANCH   4  10
ATOM      9  N   UNL     1      36.497 -23.489 -11.918  0.00  0.00    -0.284 N 
ATOM     10  C   UNL     1      34.844 -24.081 -13.281  0.00  0.00    +0.021 C 
ATOM     11  C   UNL     1      36.038 -24.723 -13.719  0.00  0.00    +0.015 C 
ATOM     12  C   UNL     1      37.059 -24.336 -12.846  0.00  0.00    +0.053 C 
ATOM     13  C   UNL     1      35.161 -23.329 -12.171  0.00  0.00    +0.066 C 
ATOM     14  C   UNL     1      36.348 -25.601 -14.776  0.00  0.00    +0.003 C 
ATOM     15  C   UNL     1      38.377 -24.784 -12.980  0.00  0.00    +0.039 C 
ATOM     16  C   UNL     1      37.202 -22.853 -10.825  0.00  0.00    +0.117 C 
ATOM     17  C   UNL     1      38.661 -25.653 -14.037  0.00  0.00    +0.144 C 
ATOM     18  C   UNL     1      37.664 -26.058 -14.922  0.00  0.00    +0.024 C 
BRANCH  17  21
ATOM     19  O   UNL     1      40.502 -26.092 -15.354  0.00  0.00    -0.126 OA
ATOM     20  O   UNL     1      40.607 -26.578 -13.216  0.00  0.00    -0.126 OA
ATOM     21  N   UNL     1      39.988 -26.131 -14.211  0.00  0.00    +0.058 N 
ENDBRANCH  17  21
ENDBRANCH   4  10
BRANCH   5  23
ATOM     22  N   UNL     1      34.323 -22.421 -18.167  0.00  0.00    -0.284 N 
ATOM     23  C   UNL     1      33.828 -23.172 -16.138  0.00  0.00    +0.021 C 
ATOM     24  C   UNL     1      35.103 -22.544 -16.081  0.00  0.00    +0.015 C 
ATOM     25  C   UNL     1      35.390 -22.081 -17.367  0.00  0.00    +0.052 C 
ATOM     26  C   UNL     1      33.374 -23.081 -17.434  0.00  0.00    +0.066 C 
ATOM     27  C   UNL     1      36.044 -22.323 -15.055  0.00  0.00    +0.001 C 
ATOM     28  C   UNL     1      36.576 -21.407 -17.680  0.00  0.00    +0.015 C 
ATOM     29  C   UNL     1      34.207 -22.135 -19.581  0.00  0.00    +0.117 C 
ATOM     30  C   UNL     1      37.234 -21.650 -15.354  0.00  0.00    +0.000 C 
ATOM     31  C   UNL     1      37.494 -21.200 -16.647  0.00  0.00    +0.001 C 
ENDBRANCH   5  23
TORSDOF 3
ENDMDL
MODEL 8
REMARK VINA RESULT:      -9.5      9.439     14.406
REMARK  Name = 5327686
REMARK  3 active torsions:
REMARK  status: ('A' for Active; 'I' for Inactive)
REMARK    1  A    between atoms: C_4  and  C_10
REMARK    2  A    between atoms: C_5  and  C_23
REMARK    3  A    between atoms: C_17  and  N_21
REMARK                            x       y       z     vdW  Elec       q    Type
REMARK                         _______ _______ _______ _____ _____    ______ ____
ROOT
ATOM      1  O   UNL     1      31.448 -13.752 -19.861  0.00  0.00    -0.270 OA
ATOM      2  O   UNL     1      31.656  -9.213 -20.417  0.00  0.00    -0.270 OA
ATOM      3  N   UNL     1      31.322 -11.433 -19.823  0.00  0.00    -0.248 N 
ATOM      4  C   UNL     1      32.578 -12.372 -21.480  0.00  0.00    +0.059 C 
ATOM      5  C   UNL     1      32.630 -11.038 -21.650  0.00  0.00    +0.059 C 
ATOM      6  C   UNL     1      31.725 -12.646 -20.295  0.00  0.00    +0.252 C 
ATOM      7  C   UNL     1      31.818 -10.411 -20.576  0.00  0.00    +0.252 C 
ATOM      8  H   UNL     1      30.742 -11.310 -19.036  0.00  0.00    +0.158 HD
ENDROOT
BRANCH   4  10
ATOM      9  N   UNL     1      33.774 -14.633 -24.016  0.00  0.00    -0.284 N 
ATOM     10  C   UNL     1      33.177 -13.412 -22.256  0.00  0.00    +0.021 C 
ATOM     11  C   UNL     1      33.970 -14.504 -21.797  0.00  0.00    +0.015 C 
ATOM     12  C   UNL     1      34.331 -15.253 -22.920  0.00  0.00    +0.053 C 
ATOM     13  C   UNL     1      33.076 -13.522 -23.626  0.00  0.00    +0.066 C 
ATOM     14  C   UNL     1      34.416 -14.926 -20.529  0.00  0.00    +0.003 C 
ATOM     15  C   UNL     1      35.118 -16.406 -22.837  0.00  0.00    +0.039 C 
ATOM     16  C   UNL     1      33.899 -15.079 -25.387  0.00  0.00    +0.117 C 
ATOM     17  C   UNL     1      35.549 -16.806 -21.569  0.00  0.00    +0.144 C 
ATOM     18  C   UNL     1      35.205 -16.078 -20.431  0.00  0.00    +0.024 C 
BRANCH  17  21
ATOM     19  O   UNL     1      36.702 -18.585 -22.475  0.00  0.00    -0.126 OA
ATOM     20  O   UNL     1      36.681 -18.356 -20.292  0.00  0.00    -0.126 OA
ATOM     21  N   UNL     1      36.349 -17.972 -21.439  0.00  0.00    +0.058 N 
ENDBRANCH  17  21
ENDBRANCH   4  10
BRANCH   5  23
ATOM     22  N   UNL     1      34.661  -9.780 -24.341  0.00  0.00    -0.284 N 
ATOM     23  C   UNL     1      33.328 -10.273 -22.637  0.00  0.00    +0.021 C 
ATOM     24  C   UNL     1      33.282  -8.867 -22.844  0.00  0.00    +0.015 C 
ATOM     25  C   UNL     1      34.128  -8.584 -23.920  0.00  0.00    +0.052 C 
ATOM     26  C   UNL     1      34.184 -10.807 -23.572  0.00  0.00    +0.066 C 
ATOM     27  C   UNL     1      32.600  -7.803 -22.219  0.00  0.00    +0.001 C 
ATOM     28  C   UNL     1      34.326  -7.285 -24.402  0.00  0.00    +0.015 C 
ATOM     29  C   UNL     1      35.595  -9.946 -25.433  0.00  0.00    +0.117 C 
ATOM     30  C   UNL     1      32.790  -6.499 -22.691  0.00  0.00    +0.000 C 
ATOM     31  C   UNL     1      33.640  -6.246 -23.767  0.00  0.00    +0.001 C 
ENDBRANCH   5  23
TORSDOF 3
ENDMDL
MODEL 9
REMARK VINA RESULT:      -9.5      8.163     13.347
REMARK  Name = 5327686
REMARK  3 active torsions:
REMARK  status: ('A' for Active; 'I' for Inactive)
REMARK    1  A    between atoms: C_4  and  C_10
REMARK    2  A    between atoms: C_5  and  C_23
REMARK    3  A    between atoms: C_17  and  N_21
REMARK                            x       y       z     vdW  Elec       q    Type
REMARK                         _______ _______ _______ _____ _____    ______ ____
ROOT
ATOM      1  O   UNL     1      34.273 -16.076 -25.469  0.00  0.00    -0.270 OA
ATOM      2  O   UNL     1      32.775 -11.919 -26.665  0.00  0.00    -0.270 OA
ATOM      3  N   UNL     1      33.477 -14.120 -26.439  0.00  0.00    -0.248 N 
ATOM      4  C   UNL     1      33.942 -14.051 -24.206  0.00  0.00    +0.059 C 
ATOM      5  C   UNL     1      33.513 -12.826 -24.560  0.00  0.00    +0.059 C 
ATOM      6  C   UNL     1      33.929 -14.906 -25.420  0.00  0.00    +0.252 C 
ATOM      7  C   UNL     1      33.202 -12.856 -26.012  0.00  0.00    +0.252 C 
ATOM      8  H   UNL     1      33.364 -14.428 -27.367  0.00  0.00    +0.158 HD
ENDROOT
BRANCH   4  10
ATOM      9  N   UNL     1      34.951 -14.541 -20.783  0.00  0.00    -0.284 N 
ATOM     10  C   UNL     1      34.376 -14.530 -22.930  0.00  0.00    +0.021 C 
ATOM     11  C   UNL     1      34.730 -15.862 -22.568  0.00  0.00    +0.015 C 
ATOM     12  C   UNL     1      35.086 -15.841 -21.217  0.00  0.00    +0.053 C 
ATOM     13  C   UNL     1      34.523 -13.742 -21.810  0.00  0.00    +0.066 C 
ATOM     14  C   UNL     1      34.781 -17.087 -23.262  0.00  0.00    +0.003 C 
ATOM     15  C   UNL     1      35.490 -16.987 -20.524  0.00  0.00    +0.039 C 
ATOM     16  C   UNL     1      35.218 -14.071 -19.440  0.00  0.00    +0.117 C 
ATOM     17  C   UNL     1      35.534 -18.190 -21.234  0.00  0.00    +0.144 C 
ATOM     18  C   UNL     1      35.184 -18.242 -22.582  0.00  0.00    +0.024 C 
BRANCH  17  21
ATOM     19  O   UNL     1      36.953 -19.344 -19.831  0.00  0.00    -0.126 OA
ATOM     20  O   UNL     1      35.277 -20.428 -20.742  0.00  0.00    -0.126 OA
ATOM     21  N   UNL     1      35.941 -19.378 -20.570  0.00  0.00    +0.058 N 
ENDBRANCH  17  21
ENDBRANCH   4  10
BRANCH   5  23
ATOM     22  N   UNL     1      33.487  -9.555 -23.060  0.00  0.00    -0.284 N 
ATOM     23  C   UNL     1      33.333 -11.657 -23.756  0.00  0.00    +0.021 C 
ATOM     24  C   UNL     1      32.594 -11.534 -22.547  0.00  0.00    +0.015 C 
ATOM     25  C   UNL     1      32.707 -10.205 -22.132  0.00  0.00    +0.052 C 
ATOM     26  C   UNL     1      33.871 -10.424 -24.046  0.00  0.00    +0.066 C 
ATOM     27  C   UNL     1      31.836 -12.428 -21.764  0.00  0.00    +0.001 C 
ATOM     28  C   UNL     1      32.099  -9.724 -20.966  0.00  0.00    +0.015 C 
ATOM     29  C   UNL     1      33.862  -8.159 -23.014  0.00  0.00    +0.117 C 
ATOM     30  C   UNL     1      31.223 -11.960 -20.596  0.00  0.00    +0.000 C 
ATOM     31  C   UNL     1      31.353 -10.628 -20.205  0.00  0.00    +0.001 C 
ENDBRANCH   5  23
TORSDOF 3
ENDMDL
