MODEL 1
REMARK VINA RESULT:     -11.2      0.000      0.000
REMARK  Name = 447649
REMARK  5 active torsions:
REMARK  status: ('A' for Active; 'I' for Inactive)
REMARK    1  A    between atoms: N_5  and  C_14
REMARK    2  A    between atoms: C_6  and  O_22
REMARK    3  A    between atoms: C_19  and  O_20
REMARK    4  A    between atoms: O_22  and  C_23
REMARK    5  A    between atoms: C_23  and  C_24
REMARK                            x       y       z     vdW  Elec       q    Type
REMARK                         _______ _______ _______ _____ _____    ______ ____
ROOT
ATOM      1  N   UNL     1      32.990 -23.265 -15.761  0.00  0.00    -0.293 NA
ATOM      2  N   UNL     1      29.491 -22.502 -16.602  0.00  0.00    -0.266 NA
ATOM      3  N   UNL     1      31.404 -23.748 -13.971  0.00  0.00    -0.316 NA
ATOM      4  N   UNL     1      29.096 -23.241 -14.537  0.00  0.00    -0.296 N 
ATOM      5  N   UNL     1      33.695 -24.139 -13.706  0.00  0.00    -0.238 N 
ATOM      6  C   UNL     1      32.002 -22.829 -16.574  0.00  0.00    +0.288 C 
ATOM      7  C   UNL     1      30.710 -22.850 -16.093  0.00  0.00    +0.215 C 
ATOM      8  C   UNL     1      30.437 -23.305 -14.810  0.00  0.00    +0.196 C 
ATOM      9  C   UNL     1      32.634 -23.691 -14.525  0.00  0.00    +0.207 C 
ATOM     10  C   UNL     1      28.555 -22.753 -15.635  0.00  0.00    +0.164 C 
ATOM     11  H   UNL     1      29.317 -22.136 -17.500  0.00  0.00    +0.126 HD
ATOM     12  H   UNL     1      28.637 -23.501 -13.706  0.00  0.00    +0.150 HD
ATOM     13  H   UNL     1      33.407 -24.443 -12.815  0.00  0.00    +0.166 HD
ENDROOT
BRANCH   5  14
ATOM     14  C   UNL     1      35.082 -24.232 -13.915  0.00  0.00    +0.059 C 
ATOM     15  C   UNL     1      35.639 -25.415 -14.408  0.00  0.00    +0.018 C 
ATOM     16  C   UNL     1      35.911 -23.144 -13.632  0.00  0.00    +0.018 C 
ATOM     17  C   UNL     1      37.016 -25.508 -14.615  0.00  0.00    +0.038 C 
ATOM     18  C   UNL     1      37.287 -23.237 -13.839  0.00  0.00    +0.038 C 
ATOM     19  C   UNL     1      37.840 -24.419 -14.331  0.00  0.00    +0.134 C 
BRANCH  19  20
ATOM     20  O   UNL     1      39.182 -24.510 -14.535  0.00  0.00    -0.506 OA
ATOM     21  H   UNL     1      39.741 -24.818 -13.849  0.00  0.00    +0.292 HD
ENDBRANCH  19  20
ENDBRANCH   5  14
BRANCH   6  22
ATOM     22  O   UNL     1      32.329 -22.388 -17.834  0.00  0.00    -0.453 OA
BRANCH  22  23
ATOM     23  C   UNL     1      33.644 -22.651 -18.287  0.00  0.00    +0.208 C 
BRANCH  23  24
ATOM     24  C   UNL     1      34.246 -21.347 -18.808  0.00  0.00    +0.044 C 
ATOM     25  C   UNL     1      35.684 -21.570 -19.294  0.00  0.00    +0.004 C 
ATOM     26  C   UNL     1      33.376 -20.758 -19.926  0.00  0.00    +0.004 C 
ATOM     27  C   UNL     1      36.289 -20.291 -19.868  0.00  0.00    +0.000 C 
ATOM     28  C   UNL     1      33.985 -19.481 -20.500  0.00  0.00    +0.000 C 
ATOM     29  C   UNL     1      35.418 -19.705 -20.974  0.00  0.00    +0.000 C 
ENDBRANCH  23  24
ENDBRANCH  22  23
ENDBRANCH   6  22
TORSDOF 5
ENDMDL
MODEL 2
REMARK VINA RESULT:     -11.1      1.851      5.731
REMARK  Name = 447649
REMARK  5 active torsions:
REMARK  status: ('A' for Active; 'I' for Inactive)
REMARK    1  A    between atoms: N_5  and  C_14
REMARK    2  A    between atoms: C_6  and  O_22
REMARK    3  A    between atoms: C_19  and  O_20
REMARK    4  A    between atoms: O_22  and  C_23
REMARK    5  A    between atoms: C_23  and  C_24
REMARK                            x       y       z     vdW  Elec       q    Type
REMARK                         _______ _______ _______ _____ _____    ______ ____
ROOT
ATOM      1  N   UNL     1      33.368 -23.477 -15.130  0.00  0.00    -0.293 NA
ATOM      2  N   UNL     1      36.996 -23.606 -14.545  0.00  0.00    -0.266 NA
ATOM      3  N   UNL     1      33.994 -24.285 -12.915  0.00  0.00    -0.316 NA
ATOM      4  N   UNL     1      36.393 -24.367 -12.539  0.00  0.00    -0.296 N 
ATOM      5  N   UNL     1      31.751 -24.102 -13.555  0.00  0.00    -0.238 N 
ATOM      6  C   UNL     1      34.662 -23.314 -15.482  0.00  0.00    +0.288 C 
ATOM      7  C   UNL     1      35.631 -23.636 -14.555  0.00  0.00    +0.215 C 
ATOM      8  C   UNL     1      35.281 -24.112 -13.299  0.00  0.00    +0.196 C 
ATOM      9  C   UNL     1      33.117 -23.947 -13.885  0.00  0.00    +0.207 C 
ATOM     10  C   UNL     1      37.408 -24.052 -13.318  0.00  0.00    +0.164 C 
ATOM     11  H   UNL     1      37.579 -23.316 -15.285  0.00  0.00    +0.126 HD
ATOM     12  H   UNL     1      36.427 -24.709 -11.617  0.00  0.00    +0.150 HD
ATOM     13  H   UNL     1      31.599 -24.444 -12.645  0.00  0.00    +0.166 HD
ENDROOT
BRANCH   5  14
ATOM     14  C   UNL     1      30.567 -23.865 -14.276  0.00  0.00    +0.059 C 
ATOM     15  C   UNL     1      29.986 -22.594 -14.270  0.00  0.00    +0.018 C 
ATOM     16  C   UNL     1      29.967 -24.896 -15.001  0.00  0.00    +0.018 C 
ATOM     17  C   UNL     1      28.811 -22.358 -14.984  0.00  0.00    +0.038 C 
ATOM     18  C   UNL     1      28.792 -24.660 -15.714  0.00  0.00    +0.038 C 
ATOM     19  C   UNL     1      28.214 -23.392 -15.707  0.00  0.00    +0.134 C 
BRANCH  19  20
ATOM     20  O   UNL     1      27.069 -23.160 -16.405  0.00  0.00    -0.506 OA
ATOM     21  H   UNL     1      27.091 -23.111 -17.340  0.00  0.00    +0.292 HD
ENDBRANCH  19  20
ENDBRANCH   5  14
BRANCH   6  22
ATOM     22  O   UNL     1      34.951 -22.840 -16.739  0.00  0.00    -0.453 OA
BRANCH  22  23
ATOM     23  C   UNL     1      33.884 -22.785 -17.667  0.00  0.00    +0.208 C 
BRANCH  23  24
ATOM     24  C   UNL     1      34.360 -22.029 -18.907  0.00  0.00    +0.044 C 
ATOM     25  C   UNL     1      33.347 -20.947 -19.303  0.00  0.00    +0.004 C 
ATOM     26  C   UNL     1      35.748 -21.419 -18.669  0.00  0.00    +0.004 C 
ATOM     27  C   UNL     1      33.827 -20.141 -20.509  0.00  0.00    +0.000 C 
ATOM     28  C   UNL     1      36.223 -20.613 -19.876  0.00  0.00    +0.000 C 
ATOM     29  C   UNL     1      35.210 -19.544 -20.272  0.00  0.00    +0.000 C 
ENDBRANCH  23  24
ENDBRANCH  22  23
ENDBRANCH   6  22
TORSDOF 5
ENDMDL
MODEL 3
REMARK VINA RESULT:     -10.9      1.338      2.054
REMARK  Name = 447649
REMARK  5 active torsions:
REMARK  status: ('A' for Active; 'I' for Inactive)
REMARK    1  A    between atoms: N_5  and  C_14
REMARK    2  A    between atoms: C_6  and  O_22
REMARK    3  A    between atoms: C_19  and  O_20
REMARK    4  A    between atoms: O_22  and  C_23
REMARK    5  A    between atoms: C_23  and  C_24
REMARK                            x       y       z     vdW  Elec       q    Type
REMARK                         _______ _______ _______ _____ _____    ______ ____
ROOT
ATOM      1  N   UNL     1      34.496 -23.997 -15.439  0.00  0.00    -0.293 NA
ATOM      2  N   UNL     1      31.250 -22.730 -16.615  0.00  0.00    -0.266 NA
ATOM      3  N   UNL     1      32.760 -23.959 -13.726  0.00  0.00    -0.316 NA
ATOM      4  N   UNL     1      30.619 -23.120 -14.513  0.00  0.00    -0.296 N 
ATOM      5  N   UNL     1      34.921 -24.718 -13.251  0.00  0.00    -0.238 N 
ATOM      6  C   UNL     1      33.650 -23.497 -16.367  0.00  0.00    +0.288 C 
ATOM      7  C   UNL     1      32.354 -23.224 -15.982  0.00  0.00    +0.215 C 
ATOM      8  C   UNL     1      31.937 -23.459 -14.679  0.00  0.00    +0.196 C 
ATOM      9  C   UNL     1      34.005 -24.193 -14.192  0.00  0.00    +0.207 C 
ATOM     10  C   UNL     1      30.235 -22.686 -15.696  0.00  0.00    +0.164 C 
ATOM     11  H   UNL     1      31.192 -22.456 -17.559  0.00  0.00    +0.126 HD
ATOM     12  H   UNL     1      30.078 -23.188 -13.693  0.00  0.00    +0.150 HD
ATOM     13  H   UNL     1      34.537 -24.851 -12.355  0.00  0.00    +0.166 HD
ENDROOT
BRANCH   5  14
ATOM     14  C   UNL     1      36.275 -25.084 -13.347  0.00  0.00    +0.059 C 
ATOM     15  C   UNL     1      37.250 -24.347 -12.670  0.00  0.00    +0.018 C 
ATOM     16  C   UNL     1      36.652 -26.185 -14.119  0.00  0.00    +0.018 C 
ATOM     17  C   UNL     1      38.594 -24.710 -12.766  0.00  0.00    +0.038 C 
ATOM     18  C   UNL     1      37.996 -26.547 -14.215  0.00  0.00    +0.038 C 
ATOM     19  C   UNL     1      38.967 -25.810 -13.538  0.00  0.00    +0.134 C 
BRANCH  19  20
ATOM     20  O   UNL     1      40.277 -26.164 -13.630  0.00  0.00    -0.506 OA
ATOM     21  H   UNL     1      40.903 -25.563 -13.983  0.00  0.00    +0.292 HD
ENDBRANCH  19  20
ENDBRANCH   5  14
BRANCH   6  22
ATOM     22  O   UNL     1      34.117 -23.283 -17.641  0.00  0.00    -0.453 OA
BRANCH  22  23
ATOM     23  C   UNL     1      35.132 -22.311 -17.800  0.00  0.00    +0.208 C 
BRANCH  23  24
ATOM     24  C   UNL     1      34.912 -21.595 -19.132  0.00  0.00    +0.044 C 
ATOM     25  C   UNL     1      33.522 -20.946 -19.175  0.00  0.00    +0.004 C 
ATOM     26  C   UNL     1      36.011 -20.551 -19.374  0.00  0.00    +0.004 C 
ATOM     27  C   UNL     1      33.299 -20.179 -20.477  0.00  0.00    +0.000 C 
ATOM     28  C   UNL     1      35.784 -19.785 -20.675  0.00  0.00    +0.000 C 
ATOM     29  C   UNL     1      34.397 -19.149 -20.718  0.00  0.00    +0.000 C 
ENDBRANCH  23  24
ENDBRANCH  22  23
ENDBRANCH   6  22
TORSDOF 5
ENDMDL
MODEL 4
REMARK VINA RESULT:     -10.6      2.217      5.818
REMARK  Name = 447649
REMARK  5 active torsions:
REMARK  status: ('A' for Active; 'I' for Inactive)
REMARK    1  A    between atoms: N_5  and  C_14
REMARK    2  A    between atoms: C_6  and  O_22
REMARK    3  A    between atoms: C_19  and  O_20
REMARK    4  A    between atoms: O_22  and  C_23
REMARK    5  A    between atoms: C_23  and  C_24
REMARK                            x       y       z     vdW  Elec       q    Type
REMARK                         _______ _______ _______ _____ _____    ______ ____
ROOT
ATOM      1  N   UNL     1      34.482 -23.809 -14.002  0.00  0.00    -0.293 NA
ATOM      2  N   UNL     1      37.965 -23.585 -12.843  0.00  0.00    -0.266 NA
ATOM      3  N   UNL     1      34.731 -23.843 -11.575  0.00  0.00    -0.316 NA
ATOM      4  N   UNL     1      37.036 -23.695 -10.820  0.00  0.00    -0.296 N 
ATOM      5  N   UNL     1      32.624 -23.972 -12.584  0.00  0.00    -0.238 N 
ATOM      6  C   UNL     1      35.818 -23.710 -14.179  0.00  0.00    +0.288 C 
ATOM      7  C   UNL     1      36.620 -23.677 -13.058  0.00  0.00    +0.215 C 
ATOM      8  C   UNL     1      36.065 -23.744 -11.787  0.00  0.00    +0.196 C 
ATOM      9  C   UNL     1      34.027 -23.870 -12.727  0.00  0.00    +0.207 C 
ATOM     10  C   UNL     1      38.167 -23.600 -11.488  0.00  0.00    +0.164 C 
ATOM     11  H   UNL     1      38.663 -23.521 -13.535  0.00  0.00    +0.126 HD
ATOM     12  H   UNL     1      36.916 -23.724  -9.843  0.00  0.00    +0.150 HD
ATOM     13  H   UNL     1      32.323 -24.013 -11.648  0.00  0.00    +0.166 HD
ENDROOT
BRANCH   5  14
ATOM     14  C   UNL     1      31.576 -24.028 -13.520  0.00  0.00    +0.059 C 
ATOM     15  C   UNL     1      30.844 -25.207 -13.683  0.00  0.00    +0.018 C 
ATOM     16  C   UNL     1      31.262 -22.908 -14.292  0.00  0.00    +0.018 C 
ATOM     17  C   UNL     1      29.805 -25.264 -14.612  0.00  0.00    +0.038 C 
ATOM     18  C   UNL     1      30.223 -22.964 -15.221  0.00  0.00    +0.038 C 
ATOM     19  C   UNL     1      29.494 -24.142 -15.381  0.00  0.00    +0.134 C 
BRANCH  19  20
ATOM     20  O   UNL     1      28.479 -24.197 -16.285  0.00  0.00    -0.506 OA
ATOM     21  H   UNL     1      27.615 -23.932 -16.039  0.00  0.00    +0.292 HD
ENDBRANCH  19  20
ENDBRANCH   5  14
BRANCH   6  22
ATOM     22  O   UNL     1      36.312 -23.648 -15.460  0.00  0.00    -0.453 OA
BRANCH  22  23
ATOM     23  C   UNL     1      36.508 -22.360 -16.012  0.00  0.00    +0.208 C 
BRANCH  23  24
ATOM     24  C   UNL     1      35.897 -22.337 -17.412  0.00  0.00    +0.044 C 
ATOM     25  C   UNL     1      34.365 -22.313 -17.335  0.00  0.00    +0.004 C 
ATOM     26  C   UNL     1      36.423 -21.137 -18.212  0.00  0.00    +0.004 C 
ATOM     27  C   UNL     1      33.732 -22.236 -18.723  0.00  0.00    +0.000 C 
ATOM     28  C   UNL     1      35.786 -21.061 -19.598  0.00  0.00    +0.000 C 
ATOM     29  C   UNL     1      34.263 -21.047 -19.517  0.00  0.00    +0.000 C 
ENDBRANCH  23  24
ENDBRANCH  22  23
ENDBRANCH   6  22
TORSDOF 5
ENDMDL
MODEL 5
REMARK VINA RESULT:     -10.6      2.521      5.585
REMARK  Name = 447649
REMARK  5 active torsions:
REMARK  status: ('A' for Active; 'I' for Inactive)
REMARK    1  A    between atoms: N_5  and  C_14
REMARK    2  A    between atoms: C_6  and  O_22
REMARK    3  A    between atoms: C_19  and  O_20
REMARK    4  A    between atoms: O_22  and  C_23
REMARK    5  A    between atoms: C_23  and  C_24
REMARK                            x       y       z     vdW  Elec       q    Type
REMARK                         _______ _______ _______ _____ _____    ______ ____
ROOT
ATOM      1  N   UNL     1      35.161 -23.012 -16.491  0.00  0.00    -0.293 NA
ATOM      2  N   UNL     1      34.161 -21.221 -19.543  0.00  0.00    -0.266 NA
ATOM      3  N   UNL     1      36.900 -21.578 -17.421  0.00  0.00    -0.316 NA
ATOM      4  N   UNL     1      36.230 -20.398 -19.438  0.00  0.00    -0.296 N 
ATOM      5  N   UNL     1      37.266 -22.833 -15.481  0.00  0.00    -0.238 N 
ATOM      6  C   UNL     1      34.297 -22.672 -17.473  0.00  0.00    +0.288 C 
ATOM      7  C   UNL     1      34.727 -21.783 -18.435  0.00  0.00    +0.215 C 
ATOM      8  C   UNL     1      36.011 -21.257 -18.391  0.00  0.00    +0.196 C 
ATOM      9  C   UNL     1      36.393 -22.452 -16.526  0.00  0.00    +0.207 C 
ATOM     10  C   UNL     1      35.098 -20.399 -20.111  0.00  0.00    +0.164 C 
ATOM     11  H   UNL     1      33.246 -21.377 -19.874  0.00  0.00    +0.126 HD
ATOM     12  H   UNL     1      37.050 -19.893 -19.641  0.00  0.00    +0.150 HD
ATOM     13  H   UNL     1      38.153 -22.410 -15.532  0.00  0.00    +0.166 HD
ENDROOT
BRANCH   5  14
ATOM     14  C   UNL     1      37.114 -23.701 -14.385  0.00  0.00    +0.059 C 
ATOM     15  C   UNL     1      37.805 -24.914 -14.350  0.00  0.00    +0.018 C 
ATOM     16  C   UNL     1      36.271 -23.355 -13.327  0.00  0.00    +0.018 C 
ATOM     17  C   UNL     1      37.653 -25.776 -13.264  0.00  0.00    +0.038 C 
ATOM     18  C   UNL     1      36.119 -24.216 -12.240  0.00  0.00    +0.038 C 
ATOM     19  C   UNL     1      36.811 -25.426 -12.208  0.00  0.00    +0.134 C 
BRANCH  19  20
ATOM     20  O   UNL     1      36.664 -26.266 -11.148  0.00  0.00    -0.506 OA
ATOM     21  H   UNL     1      36.814 -27.185 -11.253  0.00  0.00    +0.292 HD
ENDBRANCH  19  20
ENDBRANCH   5  14
BRANCH   6  22
ATOM     22  O   UNL     1      33.038 -23.224 -17.468  0.00  0.00    -0.453 OA
BRANCH  22  23
ATOM     23  C   UNL     1      32.097 -22.670 -16.569  0.00  0.00    +0.208 C 
BRANCH  23  24
ATOM     24  C   UNL     1      31.718 -23.740 -15.546  0.00  0.00    +0.044 C 
ATOM     25  C   UNL     1      32.549 -23.584 -14.265  0.00  0.00    +0.004 C 
ATOM     26  C   UNL     1      30.216 -23.683 -15.233  0.00  0.00    +0.004 C 
ATOM     27  C   UNL     1      32.151 -24.611 -13.207  0.00  0.00    +0.000 C 
ATOM     28  C   UNL     1      29.822 -24.708 -14.172  0.00  0.00    +0.000 C 
ATOM     29  C   UNL     1      30.657 -24.556 -12.905  0.00  0.00    +0.000 C 
ENDBRANCH  23  24
ENDBRANCH  22  23
ENDBRANCH   6  22
TORSDOF 5
ENDMDL
MODEL 6
REMARK VINA RESULT:     -10.4      8.109     11.302
REMARK  Name = 447649
REMARK  5 active torsions:
REMARK  status: ('A' for Active; 'I' for Inactive)
REMARK    1  A    between atoms: N_5  and  C_14
REMARK    2  A    between atoms: C_6  and  O_22
REMARK    3  A    between atoms: C_19  and  O_20
REMARK    4  A    between atoms: O_22  and  C_23
REMARK    5  A    between atoms: C_23  and  C_24
REMARK                            x       y       z     vdW  Elec       q    Type
REMARK                         _______ _______ _______ _____ _____    ______ ____
ROOT
ATOM      1  N   UNL     1      34.412 -15.386 -22.882  0.00  0.00    -0.293 NA
ATOM      2  N   UNL     1      33.417 -12.458 -24.872  0.00  0.00    -0.266 NA
ATOM      3  N   UNL     1      34.325 -15.795 -25.285  0.00  0.00    -0.316 NA
ATOM      4  N   UNL     1      33.667 -13.854 -26.591  0.00  0.00    -0.296 N 
ATOM      5  N   UNL     1      34.929 -17.485 -23.784  0.00  0.00    -0.238 N 
ATOM      6  C   UNL     1      34.034 -14.099 -23.045  0.00  0.00    +0.288 C 
ATOM      7  C   UNL     1      33.799 -13.650 -24.328  0.00  0.00    +0.215 C 
ATOM      8  C   UNL     1      33.948 -14.501 -25.416  0.00  0.00    +0.196 C 
ATOM      9  C   UNL     1      34.532 -16.145 -23.998  0.00  0.00    +0.207 C 
ATOM     10  C   UNL     1      33.351 -12.628 -26.229  0.00  0.00    +0.164 C 
ATOM     11  H   UNL     1      33.223 -11.627 -24.379  0.00  0.00    +0.126 HD
ATOM     12  H   UNL     1      33.695 -14.223 -27.503  0.00  0.00    +0.150 HD
ATOM     13  H   UNL     1      35.009 -18.011 -24.612  0.00  0.00    +0.166 HD
ENDROOT
BRANCH   5  14
ATOM     14  C   UNL     1      35.231 -18.212 -22.619  0.00  0.00    +0.059 C 
ATOM     15  C   UNL     1      36.485 -18.082 -22.017  0.00  0.00    +0.018 C 
ATOM     16  C   UNL     1      34.280 -19.067 -22.058  0.00  0.00    +0.018 C 
ATOM     17  C   UNL     1      36.785 -18.804 -20.862  0.00  0.00    +0.038 C 
ATOM     18  C   UNL     1      34.580 -19.788 -20.903  0.00  0.00    +0.038 C 
ATOM     19  C   UNL     1      35.832 -19.657 -20.304  0.00  0.00    +0.134 C 
BRANCH  19  20
ATOM     20  O   UNL     1      36.125 -20.359 -19.176  0.00  0.00    -0.506 OA
ATOM     21  H   UNL     1      36.545 -21.194 -19.239  0.00  0.00    +0.292 HD
ENDBRANCH  19  20
ENDBRANCH   5  14
BRANCH   6  22
ATOM     22  O   UNL     1      33.902 -13.302 -21.934  0.00  0.00    -0.453 OA
BRANCH  22  23
ATOM     23  C   UNL     1      32.761 -13.514 -21.123  0.00  0.00    +0.208 C 
BRANCH  23  24
ATOM     24  C   UNL     1      32.021 -12.186 -20.973  0.00  0.00    +0.044 C 
ATOM     25  C   UNL     1      32.085 -11.690 -19.523  0.00  0.00    +0.004 C 
ATOM     26  C   UNL     1      32.593 -11.136 -21.936  0.00  0.00    +0.004 C 
ATOM     27  C   UNL     1      31.397 -10.336 -19.359  0.00  0.00    +0.000 C 
ATOM     28  C   UNL     1      31.905  -9.784 -21.768  0.00  0.00    +0.000 C 
ATOM     29  C   UNL     1      31.962  -9.298 -20.323  0.00  0.00    +0.000 C 
ENDBRANCH  23  24
ENDBRANCH  22  23
ENDBRANCH   6  22
TORSDOF 5
ENDMDL
MODEL 7
REMARK VINA RESULT:     -10.4      1.980      6.311
REMARK  Name = 447649
REMARK  5 active torsions:
REMARK  status: ('A' for Active; 'I' for Inactive)
REMARK    1  A    between atoms: N_5  and  C_14
REMARK    2  A    between atoms: C_6  and  O_22
REMARK    3  A    between atoms: C_19  and  O_20
REMARK    4  A    between atoms: O_22  and  C_23
REMARK    5  A    between atoms: C_23  and  C_24
REMARK                            x       y       z     vdW  Elec       q    Type
REMARK                         _______ _______ _______ _____ _____    ______ ____
ROOT
ATOM      1  N   UNL     1      33.738 -22.733 -15.975  0.00  0.00    -0.293 NA
ATOM      2  N   UNL     1      32.601 -24.563 -12.994  0.00  0.00    -0.266 NA
ATOM      3  N   UNL     1      31.457 -23.583 -16.135  0.00  0.00    -0.316 NA
ATOM      4  N   UNL     1      30.715 -24.790 -14.160  0.00  0.00    -0.296 N 
ATOM      5  N   UNL     1      32.435 -22.382 -17.889  0.00  0.00    -0.238 N 
ATOM      6  C   UNL     1      33.886 -23.245 -14.733  0.00  0.00    +0.288 C 
ATOM      7  C   UNL     1      32.822 -23.928 -14.182  0.00  0.00    +0.215 C 
ATOM      8  C   UNL     1      31.636 -24.083 -14.889  0.00  0.00    +0.196 C 
ATOM      9  C   UNL     1      32.549 -22.932 -16.591  0.00  0.00    +0.207 C 
ATOM     10  C   UNL     1      31.327 -25.063 -13.026  0.00  0.00    +0.164 C 
ATOM     11  H   UNL     1      33.241 -24.646 -12.249  0.00  0.00    +0.126 HD
ATOM     12  H   UNL     1      29.800 -25.037 -14.424  0.00  0.00    +0.150 HD
ATOM     13  H   UNL     1      31.560 -22.541 -18.311  0.00  0.00    +0.166 HD
ENDROOT
BRANCH   5  14
ATOM     14  C   UNL     1      33.328 -21.653 -18.693  0.00  0.00    +0.059 C 
ATOM     15  C   UNL     1      34.697 -21.932 -18.651  0.00  0.00    +0.018 C 
ATOM     16  C   UNL     1      32.854 -20.647 -19.537  0.00  0.00    +0.018 C 
ATOM     17  C   UNL     1      35.584 -21.208 -19.447  0.00  0.00    +0.038 C 
ATOM     18  C   UNL     1      33.741 -19.923 -20.334  0.00  0.00    +0.038 C 
ATOM     19  C   UNL     1      35.106 -20.204 -20.290  0.00  0.00    +0.134 C 
BRANCH  19  20
ATOM     20  O   UNL     1      35.972 -19.499 -21.068  0.00  0.00    -0.506 OA
ATOM     21  H   UNL     1      35.856 -19.477 -21.997  0.00  0.00    +0.292 HD
ENDBRANCH  19  20
ENDBRANCH   5  14
BRANCH   6  22
ATOM     22  O   UNL     1      35.081 -23.062 -14.080  0.00  0.00    -0.453 OA
BRANCH  22  23
ATOM     23  C   UNL     1      36.262 -23.241 -14.838  0.00  0.00    +0.208 C 
BRANCH  23  24
ATOM     24  C   UNL     1      37.170 -24.220 -14.097  0.00  0.00    +0.044 C 
ATOM     25  C   UNL     1      37.357 -23.787 -12.637  0.00  0.00    +0.004 C 
ATOM     26  C   UNL     1      36.607 -25.646 -14.176  0.00  0.00    +0.004 C 
ATOM     27  C   UNL     1      38.219 -24.781 -11.860  0.00  0.00    +0.000 C 
ATOM     28  C   UNL     1      37.469 -26.637 -13.397  0.00  0.00    +0.000 C 
ATOM     29  C   UNL     1      37.661 -26.198 -11.948  0.00  0.00    +0.000 C 
ENDBRANCH  23  24
ENDBRANCH  22  23
ENDBRANCH   6  22
TORSDOF 5
ENDMDL
MODEL 8
REMARK VINA RESULT:      -9.9      2.573      6.825
REMARK  Name = 447649
REMARK  5 active torsions:
REMARK  status: ('A' for Active; 'I' for Inactive)
REMARK    1  A    between atoms: N_5  and  C_14
REMARK    2  A    between atoms: C_6  and  O_22
REMARK    3  A    between atoms: C_19  and  O_20
REMARK    4  A    between atoms: O_22  and  C_23
REMARK    5  A    between atoms: C_23  and  C_24
REMARK                            x       y       z     vdW  Elec       q    Type
REMARK                         _______ _______ _______ _____ _____    ______ ____
ROOT
ATOM      1  N   UNL     1      34.964 -23.155 -15.629  0.00  0.00    -0.293 NA
ATOM      2  N   UNL     1      35.481 -25.011 -12.496  0.00  0.00    -0.266 NA
ATOM      3  N   UNL     1      37.300 -23.340 -14.952  0.00  0.00    -0.316 NA
ATOM      4  N   UNL     1      37.631 -24.568 -12.881  0.00  0.00    -0.296 N 
ATOM      5  N   UNL     1      36.685 -22.210 -16.906  0.00  0.00    -0.238 N 
ATOM      6  C   UNL     1      34.552 -23.852 -14.547  0.00  0.00    +0.288 C 
ATOM      7  C   UNL     1      35.510 -24.299 -13.661  0.00  0.00    +0.215 C 
ATOM      8  C   UNL     1      36.855 -24.036 -13.879  0.00  0.00    +0.196 C 
ATOM      9  C   UNL     1      36.295 -22.944 -15.762  0.00  0.00    +0.207 C 
ATOM     10  C   UNL     1      36.774 -25.148 -12.066  0.00  0.00    +0.164 C 
ATOM     11  H   UNL     1      34.677 -25.362 -12.047  0.00  0.00    +0.126 HD
ATOM     12  H   UNL     1      38.611 -24.528 -12.793  0.00  0.00    +0.150 HD
ATOM     13  H   UNL     1      37.657 -22.074 -16.977  0.00  0.00    +0.166 HD
ENDROOT
BRANCH   5  14
ATOM     14  C   UNL     1      35.954 -21.637 -17.961  0.00  0.00    +0.059 C 
ATOM     15  C   UNL     1      36.588 -20.797 -18.879  0.00  0.00    +0.018 C 
ATOM     16  C   UNL     1      34.589 -21.904 -18.097  0.00  0.00    +0.018 C 
ATOM     17  C   UNL     1      35.863 -20.227 -19.926  0.00  0.00    +0.038 C 
ATOM     18  C   UNL     1      33.864 -21.335 -19.143  0.00  0.00    +0.038 C 
ATOM     19  C   UNL     1      34.500 -20.497 -20.058  0.00  0.00    +0.134 C 
BRANCH  19  20
ATOM     20  O   UNL     1      33.793 -19.942 -21.080  0.00  0.00    -0.506 OA
ATOM     21  H   UNL     1      34.168 -19.250 -21.589  0.00  0.00    +0.292 HD
ENDBRANCH  19  20
ENDBRANCH   5  14
BRANCH   6  22
ATOM     22  O   UNL     1      33.208 -24.082 -14.381  0.00  0.00    -0.453 OA
BRANCH  22  23
ATOM     23  C   UNL     1      32.451 -23.058 -13.764  0.00  0.00    +0.208 C 
BRANCH  23  24
ATOM     24  C   UNL     1      30.975 -23.286 -14.086  0.00  0.00    +0.044 C 
ATOM     25  C   UNL     1      30.644 -22.781 -15.497  0.00  0.00    +0.004 C 
ATOM     26  C   UNL     1      30.611 -24.770 -13.938  0.00  0.00    +0.004 C 
ATOM     27  C   UNL     1      29.184 -23.046 -15.862  0.00  0.00    +0.000 C 
ATOM     28  C   UNL     1      29.153 -25.032 -14.306  0.00  0.00    +0.000 C 
ATOM     29  C   UNL     1      28.825 -24.520 -15.705  0.00  0.00    +0.000 C 
ENDBRANCH  23  24
ENDBRANCH  22  23
ENDBRANCH   6  22
TORSDOF 5
ENDMDL
MODEL 9
REMARK VINA RESULT:      -9.9      7.734     10.801
REMARK  Name = 447649
REMARK  5 active torsions:
REMARK  status: ('A' for Active; 'I' for Inactive)
REMARK    1  A    between atoms: N_5  and  C_14
REMARK    2  A    between atoms: C_6  and  O_22
REMARK    3  A    between atoms: C_19  and  O_20
REMARK    4  A    between atoms: O_22  and  C_23
REMARK    5  A    between atoms: C_23  and  C_24
REMARK                            x       y       z     vdW  Elec       q    Type
REMARK                         _______ _______ _______ _____ _____    ______ ____
ROOT
ATOM      1  N   UNL     1      34.594 -15.764 -22.358  0.00  0.00    -0.293 NA
ATOM      2  N   UNL     1      33.523 -12.837 -24.310  0.00  0.00    -0.266 NA
ATOM      3  N   UNL     1      34.284 -16.209 -24.736  0.00  0.00    -0.316 NA
ATOM      4  N   UNL     1      33.577 -14.268 -26.017  0.00  0.00    -0.296 N 
ATOM      5  N   UNL     1      34.962 -17.893 -23.261  0.00  0.00    -0.238 N 
ATOM      6  C   UNL     1      34.244 -14.468 -22.513  0.00  0.00    +0.288 C 
ATOM      7  C   UNL     1      33.913 -14.032 -23.779  0.00  0.00    +0.215 C 
ATOM      8  C   UNL     1      33.939 -14.905 -24.858  0.00  0.00    +0.196 C 
ATOM      9  C   UNL     1      34.591 -16.544 -23.465  0.00  0.00    +0.207 C 
ATOM     10  C   UNL     1      33.333 -13.027 -25.653  0.00  0.00    +0.164 C 
ATOM     11  H   UNL     1      33.400 -11.992 -23.818  0.00  0.00    +0.126 HD
ATOM     12  H   UNL     1      33.513 -14.653 -26.921  0.00  0.00    +0.150 HD
ATOM     13  H   UNL     1      34.952 -18.436 -24.082  0.00  0.00    +0.166 HD
ENDROOT
BRANCH   5  14
ATOM     14  C   UNL     1      35.341 -18.610 -22.113  0.00  0.00    +0.059 C 
ATOM     15  C   UNL     1      34.436 -19.478 -21.497  0.00  0.00    +0.018 C 
ATOM     16  C   UNL     1      36.624 -18.459 -21.581  0.00  0.00    +0.018 C 
ATOM     17  C   UNL     1      34.811 -20.189 -20.357  0.00  0.00    +0.038 C 
ATOM     18  C   UNL     1      36.999 -19.170 -20.441  0.00  0.00    +0.038 C 
ATOM     19  C   UNL     1      36.093 -20.035 -19.829  0.00  0.00    +0.134 C 
BRANCH  19  20
ATOM     20  O   UNL     1      36.459 -20.730 -18.718  0.00  0.00    -0.506 OA
ATOM     21  H   UNL     1      37.152 -21.359 -18.764  0.00  0.00    +0.292 HD
ENDBRANCH  19  20
ENDBRANCH   5  14
BRANCH   6  22
ATOM     22  O   UNL     1      34.235 -13.648 -21.409  0.00  0.00    -0.453 OA
BRANCH  22  23
ATOM     23  C   UNL     1      33.019 -13.549 -20.692  0.00  0.00    +0.208 C 
BRANCH  23  24
ATOM     24  C   UNL     1      32.682 -12.070 -20.516  0.00  0.00    +0.044 C 
ATOM     25  C   UNL     1      31.637 -11.625 -21.548  0.00  0.00    +0.004 C 
ATOM     26  C   UNL     1      32.191 -11.792 -19.088  0.00  0.00    +0.004 C 
ATOM     27  C   UNL     1      31.244 -10.161 -21.357  0.00  0.00    +0.000 C 
ATOM     28  C   UNL     1      31.797 -10.329 -18.901  0.00  0.00    +0.000 C 
ATOM     29  C   UNL     1      30.766  -9.889 -19.936  0.00  0.00    +0.000 C 
ENDBRANCH  23  24
ENDBRANCH  22  23
ENDBRANCH   6  22
TORSDOF 5
ENDMDL
