MODEL 1
REMARK VINA RESULT:     -13.0      0.000      0.000
REMARK  Name = 204109
REMARK  5 active torsions:
REMARK  status: ('A' for Active; 'I' for Inactive)
REMARK    1  A    between atoms: C_1  and  C_20
REMARK    2  A    between atoms: C_9  and  O_11
REMARK    3  A    between atoms: O_11  and  C_12
REMARK    4  A    between atoms: C_12  and  C_14
REMARK    5  A    between atoms: C_20  and  C_25
REMARK                            x       y       z     vdW  Elec       q    Type
REMARK                         _______ _______ _______ _____ _____    ______ ____
ROOT
ATOM      1  C   UNL     1      35.910 -18.835 -21.112  0.00  0.00    -0.021 C 
ATOM      2  C   UNL     1      34.449 -20.364 -19.908  0.00  0.00    -0.000 C 
ATOM      3  C   UNL     1      34.633 -19.325 -20.835  0.00  0.00    -0.004 C 
ATOM      4  C   UNL     1      35.576 -20.914 -19.253  0.00  0.00    +0.003 C 
ATOM      5  C   UNL     1      37.018 -19.376 -20.467  0.00  0.00    -0.004 C 
ATOM      6  C   UNL     1      36.854 -20.410 -19.544  0.00  0.00    -0.000 C 
ATOM      7  C   UNL     1      35.392 -21.953 -18.327  0.00  0.00    +0.037 C 
ATOM      8  C   UNL     1      33.171 -20.869 -19.617  0.00  0.00    +0.003 C 
ATOM      9  C   UNL     1      34.115 -22.443 -18.050  0.00  0.00    +0.139 C 
ATOM     10  C   UNL     1      33.007 -21.902 -18.695  0.00  0.00    +0.037 C 
ENDROOT
BRANCH   9  11
ATOM     11  O   UNL     1      33.953 -23.452 -17.150  0.00  0.00    -0.471 OA
BRANCH  11  12
ATOM     12  C   UNL     1      34.030 -23.108 -15.768  0.00  0.00    +0.234 C 
BRANCH  12  14
ATOM     13  F   UNL     1      34.107 -24.625 -13.385  0.00  0.00    -0.204 F 
ATOM     14  C   UNL     1      32.802 -23.510 -15.025  0.00  0.00    +0.049 C 
ATOM     15  C   UNL     1      32.906 -24.260 -13.854  0.00  0.00    +0.140 C 
ATOM     16  C   UNL     1      31.547 -23.136 -15.504  0.00  0.00    +0.002 C 
ATOM     17  C   UNL     1      31.754 -24.634 -13.160  0.00  0.00    +0.029 C 
ATOM     18  C   UNL     1      30.395 -23.510 -14.812  0.00  0.00    -0.000 C 
ATOM     19  C   UNL     1      30.499 -24.259 -13.639  0.00  0.00    +0.002 C 
ENDBRANCH  12  14
ENDBRANCH  11  12
ENDBRANCH   9  11
BRANCH   1  20
ATOM     20  C   UNL     1      36.087 -17.731 -22.098  0.00  0.00    +0.047 C 
BRANCH  20  25
ATOM     21  S   UNL     1      34.255 -17.641 -24.163  0.00  0.00    -0.048 S 
ATOM     22  O   UNL     1      35.232 -14.884 -21.645  0.00  0.00    -0.274 OA
ATOM     23  O   UNL     1      33.807 -15.764 -25.948  0.00  0.00    -0.263 OA
ATOM     24  N   UNL     1      34.507 -15.122 -23.827  0.00  0.00    -0.246 N 
ATOM     25  C   UNL     1      34.758 -17.094 -22.502  0.00  0.00    +0.137 C 
ATOM     26  C   UNL     1      34.870 -15.588 -22.581  0.00  0.00    +0.239 C 
ATOM     27  C   UNL     1      34.149 -16.015 -24.802  0.00  0.00    +0.279 C 
ATOM     28  H   UNL     1      34.507 -14.156 -24.016  0.00  0.00    +0.158 HD
ENDBRANCH  20  25
ENDBRANCH   1  20
TORSDOF 5
ENDMDL
MODEL 2
REMARK VINA RESULT:     -12.7      4.511      9.950
REMARK  Name = 204109
REMARK  5 active torsions:
REMARK  status: ('A' for Active; 'I' for Inactive)
REMARK    1  A    between atoms: C_1  and  C_20
REMARK    2  A    between atoms: C_9  and  O_11
REMARK    3  A    between atoms: O_11  and  C_12
REMARK    4  A    between atoms: C_12  and  C_14
REMARK    5  A    between atoms: C_20  and  C_25
REMARK                            x       y       z     vdW  Elec       q    Type
REMARK                         _______ _______ _______ _____ _____    ______ ____
ROOT
ATOM      1  C   UNL     1      33.731 -22.205 -18.288  0.00  0.00    -0.021 C 
ATOM      2  C   UNL     1      35.336 -20.757 -19.406  0.00  0.00    -0.000 C 
ATOM      3  C   UNL     1      35.047 -21.798 -18.508  0.00  0.00    -0.004 C 
ATOM      4  C   UNL     1      34.274 -20.122 -20.091  0.00  0.00    +0.003 C 
ATOM      5  C   UNL     1      32.687 -21.579 -18.963  0.00  0.00    -0.004 C 
ATOM      6  C   UNL     1      32.955 -20.544 -19.860  0.00  0.00    -0.000 C 
ATOM      7  C   UNL     1      34.562 -19.082 -20.990  0.00  0.00    +0.037 C 
ATOM      8  C   UNL     1      36.655 -20.334 -19.639  0.00  0.00    +0.003 C 
ATOM      9  C   UNL     1      35.879 -18.674 -21.209  0.00  0.00    +0.139 C 
ATOM     10  C   UNL     1      36.923 -19.300 -20.535  0.00  0.00    +0.037 C 
ENDROOT
BRANCH   9  11
ATOM     11  O   UNL     1      36.143 -17.665 -22.084  0.00  0.00    -0.471 OA
BRANCH  11  12
ATOM     12  C   UNL     1      35.616 -16.378 -21.770  0.00  0.00    +0.234 C 
BRANCH  12  14
ATOM     13  F   UNL     1      34.679 -13.711 -21.788  0.00  0.00    -0.204 F 
ATOM     14  C   UNL     1      34.846 -15.798 -22.908  0.00  0.00    +0.049 C 
ATOM     15  C   UNL     1      34.411 -14.474 -22.857  0.00  0.00    +0.140 C 
ATOM     16  C   UNL     1      34.561 -16.584 -24.024  0.00  0.00    +0.002 C 
ATOM     17  C   UNL     1      33.691 -13.935 -23.924  0.00  0.00    +0.029 C 
ATOM     18  C   UNL     1      33.840 -16.045 -25.091  0.00  0.00    -0.000 C 
ATOM     19  C   UNL     1      33.406 -14.721 -25.041  0.00  0.00    +0.002 C 
ENDBRANCH  12  14
ENDBRANCH  11  12
ENDBRANCH   9  11
BRANCH   1  20
ATOM     20  C   UNL     1      33.443 -23.311 -17.330  0.00  0.00    +0.047 C 
BRANCH  20  25
ATOM     21  S   UNL     1      33.852 -23.628 -14.618  0.00  0.00    -0.048 S 
ATOM     22  O   UNL     1      30.612 -22.721 -16.510  0.00  0.00    -0.274 OA
ATOM     23  O   UNL     1      32.382 -24.855 -12.817  0.00  0.00    -0.263 OA
ATOM     24  N   UNL     1      31.305 -23.825 -14.601  0.00  0.00    -0.246 N 
ATOM     25  C   UNL     1      32.968 -22.796 -15.974  0.00  0.00    +0.137 C 
ATOM     26  C   UNL     1      31.501 -23.094 -15.753  0.00  0.00    +0.239 C 
ATOM     27  C   UNL     1      32.388 -24.208 -13.853  0.00  0.00    +0.279 C 
ATOM     28  H   UNL     1      30.395 -24.070 -14.317  0.00  0.00    +0.158 HD
ENDBRANCH  20  25
ENDBRANCH   1  20
TORSDOF 5
ENDMDL
MODEL 3
REMARK VINA RESULT:     -12.5      1.118      1.906
REMARK  Name = 204109
REMARK  5 active torsions:
REMARK  status: ('A' for Active; 'I' for Inactive)
REMARK    1  A    between atoms: C_1  and  C_20
REMARK    2  A    between atoms: C_9  and  O_11
REMARK    3  A    between atoms: O_11  and  C_12
REMARK    4  A    between atoms: C_12  and  C_14
REMARK    5  A    between atoms: C_20  and  C_25
REMARK                            x       y       z     vdW  Elec       q    Type
REMARK                         _______ _______ _______ _____ _____    ______ ____
ROOT
ATOM      1  C   UNL     1      35.914 -18.832 -21.135  0.00  0.00    -0.021 C 
ATOM      2  C   UNL     1      34.478 -20.385 -19.932  0.00  0.00    -0.000 C 
ATOM      3  C   UNL     1      34.647 -19.348 -20.864  0.00  0.00    -0.004 C 
ATOM      4  C   UNL     1      35.613 -20.907 -19.267  0.00  0.00    +0.003 C 
ATOM      5  C   UNL     1      37.030 -19.346 -20.480  0.00  0.00    -0.004 C 
ATOM      6  C   UNL     1      36.882 -20.378 -19.552  0.00  0.00    -0.000 C 
ATOM      7  C   UNL     1      35.445 -21.945 -18.336  0.00  0.00    +0.037 C 
ATOM      8  C   UNL     1      33.210 -20.916 -19.647  0.00  0.00    +0.003 C 
ATOM      9  C   UNL     1      34.177 -22.460 -18.064  0.00  0.00    +0.139 C 
ATOM     10  C   UNL     1      33.062 -21.947 -18.719  0.00  0.00    +0.037 C 
ENDROOT
BRANCH   9  11
ATOM     11  O   UNL     1      34.030 -23.467 -17.160  0.00  0.00    -0.471 OA
BRANCH  11  12
ATOM     12  C   UNL     1      33.343 -23.158 -15.949  0.00  0.00    +0.234 C 
BRANCH  12  14
ATOM     13  F   UNL     1      32.410 -24.360 -13.567  0.00  0.00    -0.204 F 
ATOM     14  C   UNL     1      34.208 -23.359 -14.751  0.00  0.00    +0.049 C 
ATOM     15  C   UNL     1      33.688 -23.959 -13.605  0.00  0.00    +0.140 C 
ATOM     16  C   UNL     1      35.540 -22.944 -14.779  0.00  0.00    +0.002 C 
ATOM     17  C   UNL     1      34.501 -24.146 -12.486  0.00  0.00    +0.029 C 
ATOM     18  C   UNL     1      36.352 -23.130 -13.660  0.00  0.00    -0.000 C 
ATOM     19  C   UNL     1      35.833 -23.731 -12.514  0.00  0.00    +0.002 C 
ENDBRANCH  12  14
ENDBRANCH  11  12
ENDBRANCH   9  11
BRANCH   1  20
ATOM     20  C   UNL     1      36.074 -17.730 -22.127  0.00  0.00    +0.047 C 
BRANCH  20  25
ATOM     21  S   UNL     1      34.225 -17.654 -24.176  0.00  0.00    -0.048 S 
ATOM     22  O   UNL     1      35.202 -14.890 -21.665  0.00  0.00    -0.274 OA
ATOM     23  O   UNL     1      33.748 -15.780 -25.957  0.00  0.00    -0.263 OA
ATOM     24  N   UNL     1      34.461 -15.133 -23.842  0.00  0.00    -0.246 N 
ATOM     25  C   UNL     1      34.738 -17.103 -22.519  0.00  0.00    +0.137 C 
ATOM     26  C   UNL     1      34.837 -15.596 -22.598  0.00  0.00    +0.239 C 
ATOM     27  C   UNL     1      34.101 -16.029 -24.814  0.00  0.00    +0.279 C 
ATOM     28  H   UNL     1      34.452 -14.167 -24.030  0.00  0.00    +0.158 HD
ENDBRANCH  20  25
ENDBRANCH   1  20
TORSDOF 5
ENDMDL
MODEL 4
REMARK VINA RESULT:     -12.3      4.573      9.771
REMARK  Name = 204109
REMARK  5 active torsions:
REMARK  status: ('A' for Active; 'I' for Inactive)
REMARK    1  A    between atoms: C_1  and  C_20
REMARK    2  A    between atoms: C_9  and  O_11
REMARK    3  A    between atoms: O_11  and  C_12
REMARK    4  A    between atoms: C_12  and  C_14
REMARK    5  A    between atoms: C_20  and  C_25
REMARK                            x       y       z     vdW  Elec       q    Type
REMARK                         _______ _______ _______ _____ _____    ______ ____
ROOT
ATOM      1  C   UNL     1      33.787 -22.632 -17.565  0.00  0.00    -0.021 C 
ATOM      2  C   UNL     1      33.767 -21.019 -19.387  0.00  0.00    -0.000 C 
ATOM      3  C   UNL     1      33.088 -21.883 -18.512  0.00  0.00    -0.004 C 
ATOM      4  C   UNL     1      35.175 -20.913 -19.299  0.00  0.00    +0.003 C 
ATOM      5  C   UNL     1      35.172 -22.528 -17.479  0.00  0.00    -0.004 C 
ATOM      6  C   UNL     1      35.863 -21.673 -18.339  0.00  0.00    -0.000 C 
ATOM      7  C   UNL     1      35.855 -20.049 -20.172  0.00  0.00    +0.037 C 
ATOM      8  C   UNL     1      33.080 -20.258 -20.346  0.00  0.00    +0.003 C 
ATOM      9  C   UNL     1      35.155 -19.300 -21.120  0.00  0.00    +0.139 C 
ATOM     10  C   UNL     1      33.770 -19.405 -21.206  0.00  0.00    +0.037 C 
ENDROOT
BRANCH   9  11
ATOM     11  O   UNL     1      35.828 -18.466 -21.961  0.00  0.00    -0.471 OA
BRANCH  11  12
ATOM     12  C   UNL     1      35.778 -17.071 -21.668  0.00  0.00    +0.234 C 
BRANCH  12  14
ATOM     13  F   UNL     1      34.953 -14.392 -21.308  0.00  0.00    -0.204 F 
ATOM     14  C   UNL     1      35.021 -16.312 -22.704  0.00  0.00    +0.049 C 
ATOM     15  C   UNL     1      34.642 -14.991 -22.466  0.00  0.00    +0.140 C 
ATOM     16  C   UNL     1      34.691 -16.925 -23.912  0.00  0.00    +0.002 C 
ATOM     17  C   UNL     1      33.934 -14.283 -23.437  0.00  0.00    +0.029 C 
ATOM     18  C   UNL     1      33.982 -16.218 -24.883  0.00  0.00    -0.000 C 
ATOM     19  C   UNL     1      33.604 -14.896 -24.646  0.00  0.00    +0.002 C 
ENDBRANCH  12  14
ENDBRANCH  11  12
ENDBRANCH   9  11
BRANCH   1  20
ATOM     20  C   UNL     1      33.049 -23.544 -16.644  0.00  0.00    +0.047 C 
BRANCH  20  25
ATOM     21  S   UNL     1      32.783 -23.529 -13.896  0.00  0.00    -0.048 S 
ATOM     22  O   UNL     1      30.229 -22.504 -16.602  0.00  0.00    -0.274 OA
ATOM     23  O   UNL     1      30.776 -24.304 -12.385  0.00  0.00    -0.263 OA
ATOM     24  N   UNL     1      30.298 -23.409 -14.476  0.00  0.00    -0.246 N 
ATOM     25  C   UNL     1      32.364 -22.791 -15.506  0.00  0.00    +0.137 C 
ATOM     26  C   UNL     1      30.858 -22.874 -15.617  0.00  0.00    +0.239 C 
ATOM     27  C   UNL     1      31.114 -23.814 -13.452  0.00  0.00    +0.279 C 
ATOM     28  H   UNL     1      29.321 -23.499 -14.397  0.00  0.00    +0.158 HD
ENDBRANCH  20  25
ENDBRANCH   1  20
TORSDOF 5
ENDMDL
MODEL 5
REMARK VINA RESULT:     -12.3      1.178      2.038
REMARK  Name = 204109
REMARK  5 active torsions:
REMARK  status: ('A' for Active; 'I' for Inactive)
REMARK    1  A    between atoms: C_1  and  C_20
REMARK    2  A    between atoms: C_9  and  O_11
REMARK    3  A    between atoms: O_11  and  C_12
REMARK    4  A    between atoms: C_12  and  C_14
REMARK    5  A    between atoms: C_20  and  C_25
REMARK                            x       y       z     vdW  Elec       q    Type
REMARK                         _______ _______ _______ _____ _____    ______ ____
ROOT
ATOM      1  C   UNL     1      35.147 -19.465 -21.048  0.00  0.00    -0.021 C 
ATOM      2  C   UNL     1      35.588 -20.909 -19.139  0.00  0.00    -0.000 C 
ATOM      3  C   UNL     1      36.038 -20.017 -20.126  0.00  0.00    -0.004 C 
ATOM      4  C   UNL     1      34.215 -21.246 -19.086  0.00  0.00    +0.003 C 
ATOM      5  C   UNL     1      33.797 -19.798 -20.995  0.00  0.00    -0.004 C 
ATOM      6  C   UNL     1      33.331 -20.682 -20.021  0.00  0.00    -0.000 C 
ATOM      7  C   UNL     1      33.764 -22.138 -18.099  0.00  0.00    +0.037 C 
ATOM      8  C   UNL     1      36.471 -21.474 -18.204  0.00  0.00    +0.003 C 
ATOM      9  C   UNL     1      34.656 -22.690 -17.178  0.00  0.00    +0.139 C 
ATOM     10  C   UNL     1      36.006 -22.357 -17.231  0.00  0.00    +0.037 C 
ENDROOT
BRANCH   9  11
ATOM     11  O   UNL     1      34.205 -23.552 -16.226  0.00  0.00    -0.471 OA
BRANCH  11  12
ATOM     12  C   UNL     1      33.697 -22.983 -15.021  0.00  0.00    +0.234 C 
BRANCH  12  14
ATOM     13  F   UNL     1      31.255 -22.508 -16.361  0.00  0.00    -0.204 F 
ATOM     14  C   UNL     1      32.411 -23.613 -14.607  0.00  0.00    +0.049 C 
ATOM     15  C   UNL     1      31.238 -23.338 -15.309  0.00  0.00    +0.140 C 
ATOM     16  C   UNL     1      32.383 -24.478 -13.513  0.00  0.00    +0.002 C 
ATOM     17  C   UNL     1      30.036 -23.930 -14.919  0.00  0.00    +0.029 C 
ATOM     18  C   UNL     1      31.180 -25.069 -13.122  0.00  0.00    -0.000 C 
ATOM     19  C   UNL     1      30.008 -24.796 -13.825  0.00  0.00    +0.002 C 
ENDBRANCH  12  14
ENDBRANCH  11  12
ENDBRANCH   9  11
BRANCH   1  20
ATOM     20  C   UNL     1      35.642 -18.520 -22.089  0.00  0.00    +0.047 C 
BRANCH  20  25
ATOM     21  S   UNL     1      34.281 -17.740 -24.361  0.00  0.00    -0.048 S 
ATOM     22  O   UNL     1      35.252 -15.656 -21.261  0.00  0.00    -0.274 OA
ATOM     23  O   UNL     1      34.528 -15.567 -25.820  0.00  0.00    -0.263 OA
ATOM     24  N   UNL     1      34.921 -15.409 -23.535  0.00  0.00    -0.246 N 
ATOM     25  C   UNL     1      34.553 -17.564 -22.571  0.00  0.00    +0.137 C 
ATOM     26  C   UNL     1      34.950 -16.121 -22.354  0.00  0.00    +0.239 C 
ATOM     27  C   UNL     1      34.596 -16.052 -24.701  0.00  0.00    +0.279 C 
ATOM     28  H   UNL     1      35.133 -14.448 -23.541  0.00  0.00    +0.158 HD
ENDBRANCH  20  25
ENDBRANCH   1  20
TORSDOF 5
ENDMDL
MODEL 6
REMARK VINA RESULT:     -12.3      5.167     10.251
REMARK  Name = 204109
REMARK  5 active torsions:
REMARK  status: ('A' for Active; 'I' for Inactive)
REMARK    1  A    between atoms: C_1  and  C_20
REMARK    2  A    between atoms: C_9  and  O_11
REMARK    3  A    between atoms: O_11  and  C_12
REMARK    4  A    between atoms: C_12  and  C_14
REMARK    5  A    between atoms: C_20  and  C_25
REMARK                            x       y       z     vdW  Elec       q    Type
REMARK                         _______ _______ _______ _____ _____    ______ ____
ROOT
ATOM      1  C   UNL     1      36.026 -22.688 -16.277  0.00  0.00    -0.021 C 
ATOM      2  C   UNL     1      36.083 -21.313 -18.283  0.00  0.00    -0.000 C 
ATOM      3  C   UNL     1      36.728 -21.881 -17.173  0.00  0.00    -0.004 C 
ATOM      4  C   UNL     1      34.706 -21.567 -18.487  0.00  0.00    +0.003 C 
ATOM      5  C   UNL     1      34.672 -22.937 -16.478  0.00  0.00    -0.004 C 
ATOM      6  C   UNL     1      34.014 -22.382 -17.577  0.00  0.00    -0.000 C 
ATOM      7  C   UNL     1      34.060 -21.000 -19.598  0.00  0.00    +0.037 C 
ATOM      8  C   UNL     1      36.773 -20.498 -19.195  0.00  0.00    +0.003 C 
ATOM      9  C   UNL     1      34.762 -20.193 -20.494  0.00  0.00    +0.139 C 
ATOM     10  C   UNL     1      36.116 -19.943 -20.293  0.00  0.00    +0.037 C 
ENDROOT
BRANCH   9  11
ATOM     11  O   UNL     1      34.123 -19.650 -21.567  0.00  0.00    -0.471 OA
BRANCH  11  12
ATOM     12  C   UNL     1      34.911 -19.379 -22.724  0.00  0.00    +0.234 C 
BRANCH  12  14
ATOM     13  F   UNL     1      35.815 -17.065 -21.376  0.00  0.00    -0.204 F 
ATOM     14  C   UNL     1      34.683 -18.000 -23.242  0.00  0.00    +0.049 C 
ATOM     15  C   UNL     1      35.154 -16.897 -22.530  0.00  0.00    +0.140 C 
ATOM     16  C   UNL     1      33.996 -17.813 -24.441  0.00  0.00    +0.002 C 
ATOM     17  C   UNL     1      34.939 -15.608 -23.018  0.00  0.00    +0.029 C 
ATOM     18  C   UNL     1      33.780 -16.524 -24.929  0.00  0.00    -0.000 C 
ATOM     19  C   UNL     1      34.252 -15.421 -24.218  0.00  0.00    +0.002 C 
ENDBRANCH  12  14
ENDBRANCH  11  12
ENDBRANCH   9  11
BRANCH   1  20
ATOM     20  C   UNL     1      36.728 -23.283 -15.103  0.00  0.00    +0.047 C 
BRANCH  20  25
ATOM     21  S   UNL     1      35.723 -23.611 -12.552  0.00  0.00    -0.048 S 
ATOM     22  O   UNL     1      36.576 -26.284 -15.203  0.00  0.00    -0.274 OA
ATOM     23  O   UNL     1      36.375 -25.345 -10.686  0.00  0.00    -0.263 OA
ATOM     24  N   UNL     1      36.528 -26.009 -12.908  0.00  0.00    -0.246 N 
ATOM     25  C   UNL     1      35.814 -24.185 -14.276  0.00  0.00    +0.137 C 
ATOM     26  C   UNL     1      36.346 -25.599 -14.212  0.00  0.00    +0.239 C 
ATOM     27  C   UNL     1      36.263 -25.137 -11.885  0.00  0.00    +0.279 C 
ATOM     28  H   UNL     1      36.847 -26.920 -12.713  0.00  0.00    +0.158 HD
ENDBRANCH  20  25
ENDBRANCH   1  20
TORSDOF 5
ENDMDL
MODEL 7
REMARK VINA RESULT:     -12.3      2.265      2.914
REMARK  Name = 204109
REMARK  5 active torsions:
REMARK  status: ('A' for Active; 'I' for Inactive)
REMARK    1  A    between atoms: C_1  and  C_20
REMARK    2  A    between atoms: C_9  and  O_11
REMARK    3  A    between atoms: O_11  and  C_12
REMARK    4  A    between atoms: C_12  and  C_14
REMARK    5  A    between atoms: C_20  and  C_25
REMARK                            x       y       z     vdW  Elec       q    Type
REMARK                         _______ _______ _______ _____ _____    ______ ____
ROOT
ATOM      1  C   UNL     1      35.780 -18.217 -21.475  0.00  0.00    -0.021 C 
ATOM      2  C   UNL     1      34.511 -19.916 -20.282  0.00  0.00    -0.000 C 
ATOM      3  C   UNL     1      34.561 -18.813 -21.151  0.00  0.00    -0.004 C 
ATOM      4  C   UNL     1      35.714 -20.420 -19.736  0.00  0.00    +0.003 C 
ATOM      5  C   UNL     1      36.963 -18.714 -20.937  0.00  0.00    -0.004 C 
ATOM      6  C   UNL     1      36.933 -19.809 -20.073  0.00  0.00    -0.000 C 
ATOM      7  C   UNL     1      35.664 -21.523 -18.868  0.00  0.00    +0.037 C 
ATOM      8  C   UNL     1      33.293 -20.528 -19.945  0.00  0.00    +0.003 C 
ATOM      9  C   UNL     1      34.445 -22.119 -18.543  0.00  0.00    +0.139 C 
ATOM     10  C   UNL     1      33.262 -21.622 -19.081  0.00  0.00    +0.037 C 
ENDROOT
BRANCH   9  11
ATOM     11  O   UNL     1      34.412 -23.188 -17.700  0.00  0.00    -0.471 OA
BRANCH  11  12
ATOM     12  C   UNL     1      34.120 -22.927 -16.329  0.00  0.00    +0.234 C 
BRANCH  12  14
ATOM     13  F   UNL     1      36.525 -21.492 -15.946  0.00  0.00    -0.204 F 
ATOM     14  C   UNL     1      35.210 -23.400 -15.428  0.00  0.00    +0.049 C 
ATOM     15  C   UNL     1      36.374 -22.646 -15.281  0.00  0.00    +0.140 C 
ATOM     16  C   UNL     1      35.063 -24.600 -14.733  0.00  0.00    +0.002 C 
ATOM     17  C   UNL     1      37.392 -23.092 -14.437  0.00  0.00    +0.029 C 
ATOM     18  C   UNL     1      36.081 -25.046 -13.889  0.00  0.00    -0.000 C 
ATOM     19  C   UNL     1      37.245 -24.292 -13.741  0.00  0.00    +0.002 C 
ENDBRANCH  12  14
ENDBRANCH  11  12
ENDBRANCH   9  11
BRANCH   1  20
ATOM     20  C   UNL     1      35.815 -17.047 -22.399  0.00  0.00    +0.047 C 
BRANCH  20  25
ATOM     21  S   UNL     1      34.328 -15.144 -23.738  0.00  0.00    -0.048 S 
ATOM     22  O   UNL     1      35.016 -15.487 -19.956  0.00  0.00    -0.274 OA
ATOM     23  O   UNL     1      34.235 -12.536 -23.421  0.00  0.00    -0.263 OA
ATOM     24  N   UNL     1      34.627 -13.860 -21.551  0.00  0.00    -0.246 N 
ATOM     25  C   UNL     1      34.591 -16.146 -22.242  0.00  0.00    +0.137 C 
ATOM     26  C   UNL     1      34.774 -15.159 -21.112  0.00  0.00    +0.239 C 
ATOM     27  C   UNL     1      34.386 -13.621 -22.878  0.00  0.00    +0.279 C 
ATOM     28  H   UNL     1      34.694 -13.110 -20.916  0.00  0.00    +0.158 HD
ENDBRANCH  20  25
ENDBRANCH   1  20
TORSDOF 5
ENDMDL
MODEL 8
REMARK VINA RESULT:     -12.2      4.765     10.010
REMARK  Name = 204109
REMARK  5 active torsions:
REMARK  status: ('A' for Active; 'I' for Inactive)
REMARK    1  A    between atoms: C_1  and  C_20
REMARK    2  A    between atoms: C_9  and  O_11
REMARK    3  A    between atoms: O_11  and  C_12
REMARK    4  A    between atoms: C_12  and  C_14
REMARK    5  A    between atoms: C_20  and  C_25
REMARK                            x       y       z     vdW  Elec       q    Type
REMARK                         _______ _______ _______ _____ _____    ______ ____
ROOT
ATOM      1  C   UNL     1      35.107 -19.020 -21.449  0.00  0.00    -0.021 C 
ATOM      2  C   UNL     1      34.937 -16.613 -21.134  0.00  0.00    -0.000 C 
ATOM      3  C   UNL     1      35.075 -17.907 -20.608  0.00  0.00    -0.004 C 
ATOM      4  C   UNL     1      34.829 -16.445 -22.535  0.00  0.00    +0.003 C 
ATOM      5  C   UNL     1      35.000 -18.854 -22.827  0.00  0.00    -0.004 C 
ATOM      6  C   UNL     1      34.863 -17.575 -23.368  0.00  0.00    -0.000 C 
ATOM      7  C   UNL     1      34.691 -15.150 -23.063  0.00  0.00    +0.037 C 
ATOM      8  C   UNL     1      34.904 -15.482 -20.302  0.00  0.00    +0.003 C 
ATOM      9  C   UNL     1      34.660 -14.038 -22.220  0.00  0.00    +0.139 C 
ATOM     10  C   UNL     1      34.766 -14.204 -20.843  0.00  0.00    +0.037 C 
ENDROOT
BRANCH   9  11
ATOM     11  O   UNL     1      34.526 -12.789 -22.746  0.00  0.00    -0.471 OA
BRANCH  11  12
ATOM     12  C   UNL     1      33.224 -12.401 -23.178  0.00  0.00    +0.234 C 
BRANCH  12  14
ATOM     13  F   UNL     1      31.692 -13.123 -20.915  0.00  0.00    -0.204 F 
ATOM     14  C   UNL     1      32.610 -11.397 -22.262  0.00  0.00    +0.049 C 
ATOM     15  C   UNL     1      31.865 -11.817 -21.161  0.00  0.00    +0.140 C 
ATOM     16  C   UNL     1      32.783 -10.035 -22.509  0.00  0.00    +0.002 C 
ATOM     17  C   UNL     1      31.292 -10.874 -20.306  0.00  0.00    +0.029 C 
ATOM     18  C   UNL     1      32.210  -9.093 -21.655  0.00  0.00    -0.000 C 
ATOM     19  C   UNL     1      31.466  -9.512 -20.553  0.00  0.00    +0.002 C 
ENDBRANCH  12  14
ENDBRANCH  11  12
ENDBRANCH   9  11
BRANCH   1  20
ATOM     20  C   UNL     1      35.254 -20.387 -20.872  0.00  0.00    +0.047 C 
BRANCH  20  25
ATOM     21  S   UNL     1      35.370 -21.822 -18.516  0.00  0.00    -0.048 S 
ATOM     22  O   UNL     1      32.305 -20.294 -20.295  0.00  0.00    -0.274 OA
ATOM     23  O   UNL     1      33.816 -23.747 -17.628  0.00  0.00    -0.263 OA
ATOM     24  N   UNL     1      32.867 -22.087 -18.948  0.00  0.00    -0.246 N 
ATOM     25  C   UNL     1      34.579 -20.518 -19.508  0.00  0.00    +0.137 C 
ATOM     26  C   UNL     1      33.130 -20.927 -19.646  0.00  0.00    +0.239 C 
ATOM     27  C   UNL     1      33.885 -22.719 -18.284  0.00  0.00    +0.279 C 
ATOM     28  H   UNL     1      31.955 -22.458 -18.928  0.00  0.00    +0.158 HD
ENDBRANCH  20  25
ENDBRANCH   1  20
TORSDOF 5
ENDMDL
MODEL 9
REMARK VINA RESULT:     -12.1      5.114     10.261
REMARK  Name = 204109
REMARK  5 active torsions:
REMARK  status: ('A' for Active; 'I' for Inactive)
REMARK    1  A    between atoms: C_1  and  C_20
REMARK    2  A    between atoms: C_9  and  O_11
REMARK    3  A    between atoms: O_11  and  C_12
REMARK    4  A    between atoms: C_12  and  C_14
REMARK    5  A    between atoms: C_20  and  C_25
REMARK                            x       y       z     vdW  Elec       q    Type
REMARK                         _______ _______ _______ _____ _____    ______ ____
ROOT
ATOM      1  C   UNL     1      34.468 -23.383 -16.081  0.00  0.00    -0.021 C 
ATOM      2  C   UNL     1      35.081 -21.951 -17.951  0.00  0.00    -0.000 C 
ATOM      3  C   UNL     1      35.441 -22.729 -16.838  0.00  0.00    -0.004 C 
ATOM      4  C   UNL     1      33.715 -21.836 -18.301  0.00  0.00    +0.003 C 
ATOM      5  C   UNL     1      33.125 -23.268 -16.426  0.00  0.00    -0.004 C 
ATOM      6  C   UNL     1      32.749 -22.501 -17.529  0.00  0.00    -0.000 C 
ATOM      7  C   UNL     1      33.355 -21.059 -19.414  0.00  0.00    +0.037 C 
ATOM      8  C   UNL     1      36.047 -21.286 -18.724  0.00  0.00    +0.003 C 
ATOM      9  C   UNL     1      34.328 -20.404 -20.171  0.00  0.00    +0.139 C 
ATOM     10  C   UNL     1      35.672 -20.519 -19.826  0.00  0.00    +0.037 C 
ENDROOT
BRANCH   9  11
ATOM     11  O   UNL     1      33.964 -19.655 -21.248  0.00  0.00    -0.471 OA
BRANCH  11  12
ATOM     12  C   UNL     1      34.956 -19.430 -22.248  0.00  0.00    +0.234 C 
BRANCH  12  14
ATOM     13  F   UNL     1      33.666 -19.066 -24.736  0.00  0.00    -0.204 F 
ATOM     14  C   UNL     1      34.802 -18.094 -22.892  0.00  0.00    +0.049 C 
ATOM     15  C   UNL     1      34.155 -17.980 -24.122  0.00  0.00    +0.140 C 
ATOM     16  C   UNL     1      35.309 -16.957 -22.262  0.00  0.00    +0.002 C 
ATOM     17  C   UNL     1      34.013 -16.728 -24.722  0.00  0.00    +0.029 C 
ATOM     18  C   UNL     1      35.167 -15.705 -22.862  0.00  0.00    -0.000 C 
ATOM     19  C   UNL     1      34.519 -15.591 -24.092  0.00  0.00    +0.002 C 
ENDBRANCH  12  14
ENDBRANCH  11  12
ENDBRANCH   9  11
BRANCH   1  20
ATOM     20  C   UNL     1      34.868 -24.204 -14.903  0.00  0.00    +0.047 C 
BRANCH  20  25
ATOM     21  S   UNL     1      36.904 -23.383 -13.227  0.00  0.00    -0.048 S 
ATOM     22  O   UNL     1      33.189 -24.044 -12.414  0.00  0.00    -0.274 OA
ATOM     23  O   UNL     1      37.511 -24.165 -10.792  0.00  0.00    -0.263 OA
ATOM     24  N   UNL     1      35.274 -24.160 -11.421  0.00  0.00    -0.246 N 
ATOM     25  C   UNL     1      35.138 -23.351 -13.665  0.00  0.00    +0.137 C 
ATOM     26  C   UNL     1      34.404 -23.886 -12.456  0.00  0.00    +0.239 C 
ATOM     27  C   UNL     1      36.618 -23.968 -11.603  0.00  0.00    +0.279 C 
ATOM     28  H   UNL     1      34.932 -24.492 -10.559  0.00  0.00    +0.158 HD
ENDBRANCH  20  25
ENDBRANCH   1  20
TORSDOF 5
ENDMDL
