MODEL 1
REMARK VINA RESULT:     -11.9      0.000      0.000
REMARK  Name = 10050566
REMARK  9 active torsions:
REMARK  status: ('A' for Active; 'I' for Inactive)
REMARK    1  A    between atoms: C_2  and  N_11
REMARK    2  A    between atoms: C_3  and  O_22
REMARK    3  A    between atoms: C_12  and  C_14
REMARK    4  A    between atoms: C_19  and  O_20
REMARK    5  A    between atoms: O_22  and  C_24
REMARK    6  A    between atoms: C_24  and  C_25
REMARK    7  A    between atoms: C_30  and  C_32
REMARK    8  A    between atoms: C_32  and  C_33
REMARK    9  A    between atoms: C_34  and  O_39
REMARK                            x       y       z     vdW  Elec       q    Type
REMARK                         _______ _______ _______ _____ _____    ______ ____
ROOT
ATOM      1  N   UNL     1      32.314 -22.144 -13.763  0.00  0.00    +0.385 N 
ATOM      2  C   UNL     1      34.409 -23.070 -14.768  0.00  0.00    +0.091 C 
ATOM      3  C   UNL     1      33.683 -23.797 -15.914  0.00  0.00    +0.185 C 
ATOM      4  C   UNL     1      32.479 -24.660 -15.520  0.00  0.00    +0.043 C 
ATOM      5  C   UNL     1      33.592 -22.804 -13.499  0.00  0.00    -0.058 C 
ATOM      6  C   UNL     1      31.199 -23.890 -15.189  0.00  0.00    -0.020 C 
ATOM      7  C   UNL     1      31.224 -23.113 -13.877  0.00  0.00    -0.082 C 
ATOM      8  H   UNL     1      32.384 -21.620 -14.636  0.00  0.00    -0.084 HD
ATOM      9  H   UNL     1      32.108 -21.521 -12.982  0.00  0.00    -0.084 HD
ENDROOT
BRANCH   2  11
ATOM     10  O   UNL     1      37.110 -22.378 -15.445  0.00  0.00    -0.270 OA
ATOM     11  N   UNL     1      35.607 -23.804 -14.405  0.00  0.00    -0.301 N 
ATOM     12  C   UNL     1      36.868 -23.383 -14.783  0.00  0.00    +0.246 C 
ATOM     13  H   UNL     1      35.519 -24.628 -13.874  0.00  0.00    +0.150 HD
BRANCH  12  14
ATOM     14  C   UNL     1      37.990 -24.259 -14.357  0.00  0.00    +0.054 C 
ATOM     15  C   UNL     1      39.123 -24.319 -15.142  0.00  0.00    +0.008 C 
ATOM     16  C   UNL     1      37.864 -24.984 -13.190  0.00  0.00    +0.008 C 
ATOM     17  C   UNL     1      40.176 -25.141 -14.742  0.00  0.00    +0.037 C 
ATOM     18  C   UNL     1      38.918 -25.805 -12.790  0.00  0.00    +0.037 C 
ATOM     19  C   UNL     1      40.074 -25.883 -13.566  0.00  0.00    +0.134 C 
BRANCH  19  20
ATOM     20  O   UNL     1      41.103 -26.683 -13.175  0.00  0.00    -0.506 OA
ATOM     21  H   UNL     1      41.258 -27.496 -13.615  0.00  0.00    +0.292 HD
ENDBRANCH  19  20
ENDBRANCH  12  14
ENDBRANCH   2  11
BRANCH   3  22
ATOM     22  O   UNL     1      33.296 -22.844 -16.909  0.00  0.00    -0.448 OA
BRANCH  22  24
ATOM     23  O   UNL     1      33.541 -24.261 -18.706  0.00  0.00    -0.245 OA
ATOM     24  C   UNL     1      33.631 -23.160 -18.184  0.00  0.00    +0.341 C 
BRANCH  24  25
ATOM     25  C   UNL     1      34.142 -21.961 -18.896  0.00  0.00    +0.076 C 
ATOM     26  C   UNL     1      33.238 -21.106 -19.494  0.00  0.00    +0.007 C 
ATOM     27  C   UNL     1      35.503 -21.740 -18.938  0.00  0.00    +0.007 C 
ATOM     28  C   UNL     1      33.718 -19.980 -20.163  0.00  0.00    +0.003 C 
ATOM     29  C   UNL     1      35.983 -20.614 -19.607  0.00  0.00    +0.003 C 
ATOM     30  C   UNL     1      35.090 -19.733 -20.220  0.00  0.00    +0.039 C 
BRANCH  30  32
ATOM     31  O   UNL     1      36.495 -17.874 -20.420  0.00  0.00    -0.286 OA
ATOM     32  C   UNL     1      35.590 -18.560 -20.918  0.00  0.00    +0.198 C 
BRANCH  32  33
ATOM     33  C   UNL     1      35.051 -18.127 -22.243  0.00  0.00    +0.073 C 
ATOM     34  C   UNL     1      34.939 -16.785 -22.524  0.00  0.00    +0.137 C 
ATOM     35  C   UNL     1      34.687 -19.108 -23.138  0.00  0.00    +0.006 C 
ATOM     36  C   UNL     1      34.434 -16.402 -23.766  0.00  0.00    +0.037 C 
ATOM     37  C   UNL     1      34.183 -18.725 -24.381  0.00  0.00    +0.000 C 
ATOM     38  C   UNL     1      34.056 -17.372 -24.695  0.00  0.00    +0.003 C 
BRANCH  34  39
ATOM     39  O   UNL     1      35.303 -15.823 -21.630  0.00  0.00    -0.505 OA
ATOM     40  H   UNL     1      36.048 -15.281 -21.802  0.00  0.00    +0.292 HD
ENDBRANCH  34  39
ENDBRANCH  32  33
ENDBRANCH  30  32
ENDBRANCH  24  25
ENDBRANCH  22  24
ENDBRANCH   3  22
TORSDOF 9
ENDMDL
MODEL 2
REMARK VINA RESULT:     -11.1      2.282      5.925
REMARK  Name = 10050566
REMARK  9 active torsions:
REMARK  status: ('A' for Active; 'I' for Inactive)
REMARK    1  A    between atoms: C_2  and  N_11
REMARK    2  A    between atoms: C_3  and  O_22
REMARK    3  A    between atoms: C_12  and  C_14
REMARK    4  A    between atoms: C_19  and  O_20
REMARK    5  A    between atoms: O_22  and  C_24
REMARK    6  A    between atoms: C_24  and  C_25
REMARK    7  A    between atoms: C_30  and  C_32
REMARK    8  A    between atoms: C_32  and  C_33
REMARK    9  A    between atoms: C_34  and  O_39
REMARK                            x       y       z     vdW  Elec       q    Type
REMARK                         _______ _______ _______ _____ _____    ______ ____
ROOT
ATOM      1  N   UNL     1      34.975 -25.123 -14.039  0.00  0.00    +0.385 N 
ATOM      2  C   UNL     1      33.072 -24.118 -15.313  0.00  0.00    +0.091 C 
ATOM      3  C   UNL     1      33.851 -22.854 -15.719  0.00  0.00    +0.185 C 
ATOM      4  C   UNL     1      34.597 -22.124 -14.597  0.00  0.00    +0.043 C 
ATOM      5  C   UNL     1      33.541 -24.834 -14.043  0.00  0.00    -0.058 C 
ATOM      6  C   UNL     1      35.898 -22.785 -14.134  0.00  0.00    -0.020 C 
ATOM      7  C   UNL     1      35.729 -24.078 -13.345  0.00  0.00    -0.082 C 
ATOM      8  H   UNL     1      35.304 -25.185 -15.002  0.00  0.00    -0.084 HD
ATOM      9  H   UNL     1      35.123 -26.004 -13.547  0.00  0.00    -0.084 HD
ENDROOT
BRANCH   2  11
ATOM     10  O   UNL     1      31.483 -22.566 -17.130  0.00  0.00    -0.270 OA
ATOM     11  N   UNL     1      31.663 -23.801 -15.176  0.00  0.00    -0.301 N 
ATOM     12  C   UNL     1      30.987 -23.042 -16.113  0.00  0.00    +0.246 C 
ATOM     13  H   UNL     1      31.173 -24.136 -14.391  0.00  0.00    +0.150 HD
BRANCH  12  14
ATOM     14  C   UNL     1      29.554 -22.783 -15.814  0.00  0.00    +0.054 C 
ATOM     15  C   UNL     1      29.206 -22.343 -14.553  0.00  0.00    +0.008 C 
ATOM     16  C   UNL     1      28.618 -22.991 -16.805  0.00  0.00    +0.008 C 
ATOM     17  C   UNL     1      27.862 -22.100 -14.271  0.00  0.00    +0.037 C 
ATOM     18  C   UNL     1      27.274 -22.747 -16.524  0.00  0.00    +0.037 C 
ATOM     19  C   UNL     1      26.896 -22.301 -15.256  0.00  0.00    +0.134 C 
BRANCH  19  20
ATOM     20  O   UNL     1      25.585 -22.062 -14.983  0.00  0.00    -0.506 OA
ATOM     21  H   UNL     1      25.320 -21.225 -14.654  0.00  0.00    +0.292 HD
ENDBRANCH  19  20
ENDBRANCH  12  14
ENDBRANCH   2  11
BRANCH   3  22
ATOM     22  O   UNL     1      34.756 -23.175 -16.779  0.00  0.00    -0.448 OA
BRANCH  22  24
ATOM     23  O   UNL     1      33.500 -24.083 -18.480  0.00  0.00    -0.245 OA
ATOM     24  C   UNL     1      34.215 -23.205 -18.022  0.00  0.00    +0.341 C 
BRANCH  24  25
ATOM     25  C   UNL     1      34.614 -21.998 -18.788  0.00  0.00    +0.076 C 
ATOM     26  C   UNL     1      33.638 -21.264 -19.432  0.00  0.00    +0.007 C 
ATOM     27  C   UNL     1      35.947 -21.647 -18.834  0.00  0.00    +0.007 C 
ATOM     28  C   UNL     1      34.013 -20.130 -20.153  0.00  0.00    +0.003 C 
ATOM     29  C   UNL     1      36.322 -20.513 -19.554  0.00  0.00    +0.003 C 
ATOM     30  C   UNL     1      35.355 -19.754 -20.214  0.00  0.00    +0.039 C 
BRANCH  30  32
ATOM     31  O   UNL     1      36.621 -17.813 -20.525  0.00  0.00    -0.286 OA
ATOM     32  C   UNL     1      35.746 -18.572 -20.965  0.00  0.00    +0.198 C 
BRANCH  32  33
ATOM     33  C   UNL     1      35.125 -18.216 -22.277  0.00  0.00    +0.073 C 
ATOM     34  C   UNL     1      34.942 -16.893 -22.605  0.00  0.00    +0.137 C 
ATOM     35  C   UNL     1      34.761 -19.247 -23.114  0.00  0.00    +0.006 C 
ATOM     36  C   UNL     1      34.362 -16.583 -23.834  0.00  0.00    +0.037 C 
ATOM     37  C   UNL     1      34.181 -18.937 -24.344  0.00  0.00    +0.000 C 
ATOM     38  C   UNL     1      33.981 -17.605 -24.703  0.00  0.00    +0.003 C 
BRANCH  34  39
ATOM     39  O   UNL     1      35.307 -15.880 -21.769  0.00  0.00    -0.505 OA
ATOM     40  H   UNL     1      36.199 -15.797 -21.494  0.00  0.00    +0.292 HD
ENDBRANCH  34  39
ENDBRANCH  32  33
ENDBRANCH  30  32
ENDBRANCH  24  25
ENDBRANCH  22  24
ENDBRANCH   3  22
TORSDOF 9
ENDMDL
MODEL 3
REMARK VINA RESULT:     -11.1      2.380      5.954
REMARK  Name = 10050566
REMARK  9 active torsions:
REMARK  status: ('A' for Active; 'I' for Inactive)
REMARK    1  A    between atoms: C_2  and  N_11
REMARK    2  A    between atoms: C_3  and  O_22
REMARK    3  A    between atoms: C_12  and  C_14
REMARK    4  A    between atoms: C_19  and  O_20
REMARK    5  A    between atoms: O_22  and  C_24
REMARK    6  A    between atoms: C_24  and  C_25
REMARK    7  A    between atoms: C_30  and  C_32
REMARK    8  A    between atoms: C_32  and  C_33
REMARK    9  A    between atoms: C_34  and  O_39
REMARK                            x       y       z     vdW  Elec       q    Type
REMARK                         _______ _______ _______ _____ _____    ______ ____
ROOT
ATOM      1  N   UNL     1      35.670 -25.100 -14.751  0.00  0.00    +0.385 N 
ATOM      2  C   UNL     1      33.665 -23.978 -15.740  0.00  0.00    +0.091 C 
ATOM      3  C   UNL     1      34.386 -22.642 -15.994  0.00  0.00    +0.185 C 
ATOM      4  C   UNL     1      35.186 -22.065 -14.821  0.00  0.00    +0.043 C 
ATOM      5  C   UNL     1      34.233 -24.862 -14.625  0.00  0.00    -0.058 C 
ATOM      6  C   UNL     1      36.529 -22.744 -14.544  0.00  0.00    -0.020 C 
ATOM      7  C   UNL     1      36.442 -24.147 -13.952  0.00  0.00    -0.082 C 
ATOM      8  H   UNL     1      35.938 -25.005 -15.731  0.00  0.00    -0.084 HD
ATOM      9  H   UNL     1      35.871 -26.040 -14.410  0.00  0.00    -0.084 HD
ENDROOT
BRANCH   2  11
ATOM     10  O   UNL     1      31.861 -22.430 -17.347  0.00  0.00    -0.270 OA
ATOM     11  N   UNL     1      32.261 -23.732 -15.472  0.00  0.00    -0.301 N 
ATOM     12  C   UNL     1      31.475 -22.969 -16.313  0.00  0.00    +0.246 C 
ATOM     13  H   UNL     1      31.855 -24.122 -14.664  0.00  0.00    +0.150 HD
BRANCH  12  14
ATOM     14  C   UNL     1      30.063 -22.789 -15.884  0.00  0.00    +0.054 C 
ATOM     15  C   UNL     1      29.808 -22.379 -14.592  0.00  0.00    +0.008 C 
ATOM     16  C   UNL     1      29.053 -23.037 -16.790  0.00  0.00    +0.008 C 
ATOM     17  C   UNL     1      28.484 -22.210 -14.188  0.00  0.00    +0.037 C 
ATOM     18  C   UNL     1      27.729 -22.867 -16.387  0.00  0.00    +0.037 C 
ATOM     19  C   UNL     1      27.445 -22.454 -15.085  0.00  0.00    +0.134 C 
BRANCH  19  20
ATOM     20  O   UNL     1      26.153 -22.286 -14.693  0.00  0.00    -0.506 OA
ATOM     21  H   UNL     1      25.657 -21.557 -15.012  0.00  0.00    +0.292 HD
ENDBRANCH  19  20
ENDBRANCH  12  14
ENDBRANCH   2  11
BRANCH   3  22
ATOM     22  O   UNL     1      35.228 -22.770 -17.144  0.00  0.00    -0.448 OA
BRANCH  22  24
ATOM     23  O   UNL     1      33.780 -23.558 -18.750  0.00  0.00    -0.245 OA
ATOM     24  C   UNL     1      34.592 -22.742 -18.341  0.00  0.00    +0.341 C 
BRANCH  24  25
ATOM     25  C   UNL     1      35.021 -21.558 -19.126  0.00  0.00    +0.076 C 
ATOM     26  C   UNL     1      34.076 -20.863 -19.855  0.00  0.00    +0.007 C 
ATOM     27  C   UNL     1      36.349 -21.187 -19.104  0.00  0.00    +0.007 C 
ATOM     28  C   UNL     1      34.479 -19.750 -20.593  0.00  0.00    +0.003 C 
ATOM     29  C   UNL     1      36.752 -20.075 -19.842  0.00  0.00    +0.003 C 
ATOM     30  C   UNL     1      35.817 -19.355 -20.587  0.00  0.00    +0.039 C 
BRANCH  30  32
ATOM     31  O   UNL     1      37.220 -18.267 -22.109  0.00  0.00    -0.286 OA
ATOM     32  C   UNL     1      36.237 -18.196 -21.357  0.00  0.00    +0.198 C 
BRANCH  32  33
ATOM     33  C   UNL     1      35.522 -16.885 -21.283  0.00  0.00    +0.073 C 
ATOM     34  C   UNL     1      35.227 -16.207 -22.444  0.00  0.00    +0.137 C 
ATOM     35  C   UNL     1      35.185 -16.408 -20.037  0.00  0.00    +0.006 C 
ATOM     36  C   UNL     1      34.560 -14.986 -22.353  0.00  0.00    +0.037 C 
ATOM     37  C   UNL     1      34.517 -15.187 -19.946  0.00  0.00    +0.000 C 
ATOM     38  C   UNL     1      34.206 -14.476 -21.104  0.00  0.00    +0.003 C 
BRANCH  34  39
ATOM     39  O   UNL     1      35.566 -16.689 -23.673  0.00  0.00    -0.505 OA
ATOM     40  H   UNL     1      36.466 -16.716 -23.935  0.00  0.00    +0.292 HD
ENDBRANCH  34  39
ENDBRANCH  32  33
ENDBRANCH  30  32
ENDBRANCH  24  25
ENDBRANCH  22  24
ENDBRANCH   3  22
TORSDOF 9
ENDMDL
MODEL 4
REMARK VINA RESULT:     -11.0      7.521     14.503
REMARK  Name = 10050566
REMARK  9 active torsions:
REMARK  status: ('A' for Active; 'I' for Inactive)
REMARK    1  A    between atoms: C_2  and  N_11
REMARK    2  A    between atoms: C_3  and  O_22
REMARK    3  A    between atoms: C_12  and  C_14
REMARK    4  A    between atoms: C_19  and  O_20
REMARK    5  A    between atoms: O_22  and  C_24
REMARK    6  A    between atoms: C_24  and  C_25
REMARK    7  A    between atoms: C_30  and  C_32
REMARK    8  A    between atoms: C_32  and  C_33
REMARK    9  A    between atoms: C_34  and  O_39
REMARK                            x       y       z     vdW  Elec       q    Type
REMARK                         _______ _______ _______ _____ _____    ______ ____
ROOT
ATOM      1  N   UNL     1      35.790 -10.326 -25.185  0.00  0.00    +0.385 N 
ATOM      2  C   UNL     1      34.112  -9.648 -23.457  0.00  0.00    +0.091 C 
ATOM      3  C   UNL     1      33.337 -10.977 -23.513  0.00  0.00    +0.185 C 
ATOM      4  C   UNL     1      32.956 -11.486 -24.907  0.00  0.00    +0.043 C 
ATOM      5  C   UNL     1      34.903  -9.263 -24.711  0.00  0.00    -0.058 C 
ATOM      6  C   UNL     1      34.098 -12.111 -25.712  0.00  0.00    -0.020 C 
ATOM      7  C   UNL     1      35.150 -11.133 -26.224  0.00  0.00    -0.082 C 
ATOM      8  H   UNL     1      36.033 -10.929 -24.399  0.00  0.00    -0.084 HD
ATOM      9  H   UNL     1      36.623  -9.894 -25.583  0.00  0.00    -0.084 HD
ENDROOT
BRANCH   2  11
ATOM     10  O   UNL     1      34.659  -7.423 -21.730  0.00  0.00    -0.270 OA
ATOM     11  N   UNL     1      33.204  -8.566 -23.127  0.00  0.00    -0.301 N 
ATOM     12  C   UNL     1      33.567  -7.536 -22.280  0.00  0.00    +0.246 C 
ATOM     13  H   UNL     1      32.301  -8.565 -23.518  0.00  0.00    +0.150 HD
BRANCH  12  14
ATOM     14  C   UNL     1      32.515  -6.519 -22.022  0.00  0.00    +0.054 C 
ATOM     15  C   UNL     1      31.196  -6.852 -22.253  0.00  0.00    +0.008 C 
ATOM     16  C   UNL     1      32.889  -5.274 -21.560  0.00  0.00    +0.008 C 
ATOM     17  C   UNL     1      30.208  -5.898 -22.010  0.00  0.00    +0.037 C 
ATOM     18  C   UNL     1      31.901  -4.320 -21.316  0.00  0.00    +0.037 C 
ATOM     19  C   UNL     1      30.560  -4.633 -21.542  0.00  0.00    +0.134 C 
BRANCH  19  20
ATOM     20  O   UNL     1      29.596  -3.703 -21.303  0.00  0.00    -0.506 OA
ATOM     21  H   UNL     1      29.086  -3.364 -22.013  0.00  0.00    +0.292 HD
ENDBRANCH  19  20
ENDBRANCH  12  14
ENDBRANCH   2  11
BRANCH   3  22
ATOM     22  O   UNL     1      34.070 -11.983 -22.808  0.00  0.00    -0.448 OA
BRANCH  22  24
ATOM     23  O   UNL     1      32.246 -12.600 -21.547  0.00  0.00    -0.245 OA
ATOM     24  C   UNL     1      33.325 -12.841 -22.068  0.00  0.00    +0.341 C 
BRANCH  24  25
ATOM     25  C   UNL     1      34.005 -14.156 -21.962  0.00  0.00    +0.076 C 
ATOM     26  C   UNL     1      34.243 -14.878 -23.114  0.00  0.00    +0.007 C 
ATOM     27  C   UNL     1      34.376 -14.617 -20.716  0.00  0.00    +0.007 C 
ATOM     28  C   UNL     1      34.882 -16.115 -23.014  0.00  0.00    +0.003 C 
ATOM     29  C   UNL     1      35.014 -15.853 -20.615  0.00  0.00    +0.003 C 
ATOM     30  C   UNL     1      35.267 -16.603 -21.765  0.00  0.00    +0.039 C 
BRANCH  30  32
ATOM     31  O   UNL     1      37.005 -18.090 -22.249  0.00  0.00    -0.286 OA
ATOM     32  C   UNL     1      35.932 -17.891 -21.661  0.00  0.00    +0.198 C 
BRANCH  32  33
ATOM     33  C   UNL     1      35.369 -19.020 -20.859  0.00  0.00    +0.073 C 
ATOM     34  C   UNL     1      36.207 -19.782 -20.078  0.00  0.00    +0.137 C 
ATOM     35  C   UNL     1      34.013 -19.248 -20.939  0.00  0.00    +0.006 C 
ATOM     36  C   UNL     1      35.661 -20.829 -19.338  0.00  0.00    +0.037 C 
ATOM     37  C   UNL     1      33.467 -20.296 -20.197  0.00  0.00    +0.000 C 
ATOM     38  C   UNL     1      34.292 -21.087 -19.398  0.00  0.00    +0.003 C 
BRANCH  34  39
ATOM     39  O   UNL     1      37.547 -19.546 -20.007  0.00  0.00    -0.505 OA
ATOM     40  H   UNL     1      37.950 -19.375 -19.178  0.00  0.00    +0.292 HD
ENDBRANCH  34  39
ENDBRANCH  32  33
ENDBRANCH  30  32
ENDBRANCH  24  25
ENDBRANCH  22  24
ENDBRANCH   3  22
TORSDOF 9
ENDMDL
MODEL 5
REMARK VINA RESULT:     -10.3      6.567     13.582
REMARK  Name = 10050566
REMARK  9 active torsions:
REMARK  status: ('A' for Active; 'I' for Inactive)
REMARK    1  A    between atoms: C_2  and  N_11
REMARK    2  A    between atoms: C_3  and  O_22
REMARK    3  A    between atoms: C_12  and  C_14
REMARK    4  A    between atoms: C_19  and  O_20
REMARK    5  A    between atoms: O_22  and  C_24
REMARK    6  A    between atoms: C_24  and  C_25
REMARK    7  A    between atoms: C_30  and  C_32
REMARK    8  A    between atoms: C_32  and  C_33
REMARK    9  A    between atoms: C_34  and  O_39
REMARK                            x       y       z     vdW  Elec       q    Type
REMARK                         _______ _______ _______ _____ _____    ______ ____
ROOT
ATOM      1  N   UNL     1      34.219 -12.655 -26.047  0.00  0.00    +0.385 N 
ATOM      2  C   UNL     1      33.809 -11.333 -23.964  0.00  0.00    +0.091 C 
ATOM      3  C   UNL     1      33.502 -12.566 -23.095  0.00  0.00    +0.185 C 
ATOM      4  C   UNL     1      32.499 -13.572 -23.669  0.00  0.00    +0.043 C 
ATOM      5  C   UNL     1      33.569 -11.479 -25.470  0.00  0.00    -0.058 C 
ATOM      6  C   UNL     1      33.040 -14.479 -24.777  0.00  0.00    -0.020 C 
ATOM      7  C   UNL     1      33.302 -13.794 -26.114  0.00  0.00    -0.082 C 
ATOM      8  H   UNL     1      35.020 -12.909 -25.469  0.00  0.00    -0.084 HD
ATOM      9  H   UNL     1      34.513 -12.426 -26.996  0.00  0.00    -0.084 HD
ENDROOT
BRANCH   2  11
ATOM     10  O   UNL     1      34.877  -8.821 -23.079  0.00  0.00    -0.270 OA
ATOM     11  N   UNL     1      33.052 -10.193 -23.479  0.00  0.00    -0.301 N 
ATOM     12  C   UNL     1      33.665  -9.023 -23.075  0.00  0.00    +0.246 C 
ATOM     13  H   UNL     1      32.071 -10.256 -23.437  0.00  0.00    +0.150 HD
BRANCH  12  14
ATOM     14  C   UNL     1      32.753  -7.960 -22.580  0.00  0.00    +0.054 C 
ATOM     15  C   UNL     1      31.513  -7.820 -23.168  0.00  0.00    +0.008 C 
ATOM     16  C   UNL     1      33.174  -7.146 -21.548  0.00  0.00    +0.008 C 
ATOM     17  C   UNL     1      30.656  -6.822 -22.704  0.00  0.00    +0.037 C 
ATOM     18  C   UNL     1      32.317  -6.149 -21.083  0.00  0.00    +0.037 C 
ATOM     19  C   UNL     1      31.058  -5.987 -21.662  0.00  0.00    +0.134 C 
BRANCH  19  20
ATOM     20  O   UNL     1      30.221  -5.015 -21.207  0.00  0.00    -0.506 OA
ATOM     21  H   UNL     1      30.283  -4.723 -20.318  0.00  0.00    +0.292 HD
ENDBRANCH  19  20
ENDBRANCH  12  14
ENDBRANCH   2  11
BRANCH   3  22
ATOM     22  O   UNL     1      34.727 -13.229 -22.766  0.00  0.00    -0.448 OA
BRANCH  22  24
ATOM     23  O   UNL     1      34.798 -13.102 -20.469  0.00  0.00    -0.245 OA
ATOM     24  C   UNL     1      34.798 -13.739 -21.511  0.00  0.00    +0.341 C 
BRANCH  24  25
ATOM     25  C   UNL     1      34.880 -15.220 -21.560  0.00  0.00    +0.076 C 
ATOM     26  C   UNL     1      34.894 -15.927 -20.374  0.00  0.00    +0.007 C 
ATOM     27  C   UNL     1      34.941 -15.845 -22.789  0.00  0.00    +0.007 C 
ATOM     28  C   UNL     1      34.973 -17.319 -20.420  0.00  0.00    +0.003 C 
ATOM     29  C   UNL     1      35.020 -17.237 -22.835  0.00  0.00    +0.003 C 
ATOM     30  C   UNL     1      35.035 -17.975 -21.650  0.00  0.00    +0.039 C 
BRANCH  30  32
ATOM     31  O   UNL     1      35.278 -20.007 -22.781  0.00  0.00    -0.286 OA
ATOM     32  C   UNL     1      35.118 -19.425 -21.698  0.00  0.00    +0.198 C 
BRANCH  32  33
ATOM     33  C   UNL     1      35.014 -20.273 -20.472  0.00  0.00    +0.073 C 
ATOM     34  C   UNL     1      33.773 -20.617 -19.987  0.00  0.00    +0.137 C 
ATOM     35  C   UNL     1      36.185 -20.681 -19.874  0.00  0.00    +0.006 C 
ATOM     36  C   UNL     1      33.698 -21.409 -18.842  0.00  0.00    +0.037 C 
ATOM     37  C   UNL     1      36.111 -21.474 -18.729  0.00  0.00    +0.000 C 
ATOM     38  C   UNL     1      34.867 -21.838 -18.213  0.00  0.00    +0.003 C 
BRANCH  34  39
ATOM     39  O   UNL     1      32.620 -20.208 -20.587  0.00  0.00    -0.505 OA
ATOM     40  H   UNL     1      31.814 -20.211 -20.107  0.00  0.00    +0.292 HD
ENDBRANCH  34  39
ENDBRANCH  32  33
ENDBRANCH  30  32
ENDBRANCH  24  25
ENDBRANCH  22  24
ENDBRANCH   3  22
TORSDOF 9
ENDMDL
MODEL 6
REMARK VINA RESULT:      -9.8      8.438     13.302
REMARK  Name = 10050566
REMARK  9 active torsions:
REMARK  status: ('A' for Active; 'I' for Inactive)
REMARK    1  A    between atoms: C_2  and  N_11
REMARK    2  A    between atoms: C_3  and  O_22
REMARK    3  A    between atoms: C_12  and  C_14
REMARK    4  A    between atoms: C_19  and  O_20
REMARK    5  A    between atoms: O_22  and  C_24
REMARK    6  A    between atoms: C_24  and  C_25
REMARK    7  A    between atoms: C_30  and  C_32
REMARK    8  A    between atoms: C_32  and  C_33
REMARK    9  A    between atoms: C_34  and  O_39
REMARK                            x       y       z     vdW  Elec       q    Type
REMARK                         _______ _______ _______ _____ _____    ______ ____
ROOT
ATOM      1  N   UNL     1      33.053 -12.495 -25.725  0.00  0.00    +0.385 N 
ATOM      2  C   UNL     1      33.054 -13.637 -23.499  0.00  0.00    +0.091 C 
ATOM      3  C   UNL     1      33.390 -12.361 -22.707  0.00  0.00    +0.185 C 
ATOM      4  C   UNL     1      34.563 -11.524 -23.229  0.00  0.00    +0.043 C 
ATOM      5  C   UNL     1      33.490 -13.668 -24.968  0.00  0.00    -0.058 C 
ATOM      6  C   UNL     1      34.268 -10.682 -24.473  0.00  0.00    -0.020 C 
ATOM      7  C   UNL     1      34.094 -11.468 -25.768  0.00  0.00    -0.082 C 
ATOM      8  H   UNL     1      32.221 -12.105 -25.281  0.00  0.00    -0.084 HD
ATOM      9  H   UNL     1      32.851 -12.787 -26.681  0.00  0.00    -0.084 HD
ENDROOT
BRANCH   2  11
ATOM     10  O   UNL     1      34.587 -15.746 -24.698  0.00  0.00    -0.270 OA
ATOM     11  N   UNL     1      33.612 -14.793 -22.823  0.00  0.00    -0.301 N 
ATOM     12  C   UNL     1      34.339 -15.757 -23.495  0.00  0.00    +0.246 C 
ATOM     13  H   UNL     1      33.468 -14.894 -21.854  0.00  0.00    +0.150 HD
BRANCH  12  14
ATOM     14  C   UNL     1      34.820 -16.892 -22.665  0.00  0.00    +0.054 C 
ATOM     15  C   UNL     1      35.331 -16.630 -21.411  0.00  0.00    +0.008 C 
ATOM     16  C   UNL     1      34.740 -18.172 -23.174  0.00  0.00    +0.008 C 
ATOM     17  C   UNL     1      35.782 -17.694 -20.631  0.00  0.00    +0.037 C 
ATOM     18  C   UNL     1      35.190 -19.236 -22.394  0.00  0.00    +0.037 C 
ATOM     19  C   UNL     1      35.711 -18.997 -21.122  0.00  0.00    +0.134 C 
BRANCH  19  20
ATOM     20  O   UNL     1      36.149 -20.037 -20.360  0.00  0.00    -0.506 OA
ATOM     21  H   UNL     1      36.157 -20.905 -20.714  0.00  0.00    +0.292 HD
ENDBRANCH  19  20
ENDBRANCH  12  14
ENDBRANCH   2  11
BRANCH   3  22
ATOM     22  O   UNL     1      32.218 -11.547 -22.601  0.00  0.00    -0.448 OA
BRANCH  22  24
ATOM     23  O   UNL     1      31.876 -11.433 -20.328  0.00  0.00    -0.245 OA
ATOM     24  C   UNL     1      32.055 -10.908 -21.416  0.00  0.00    +0.341 C 
BRANCH  24  25
ATOM     25  C   UNL     1      32.121  -9.438 -21.610  0.00  0.00    +0.076 C 
ATOM     26  C   UNL     1      31.612  -8.895 -22.773  0.00  0.00    +0.007 C 
ATOM     27  C   UNL     1      32.689  -8.659 -20.623  0.00  0.00    +0.007 C 
ATOM     28  C   UNL     1      31.675  -7.513 -22.956  0.00  0.00    +0.003 C 
ATOM     29  C   UNL     1      32.752  -7.278 -20.805  0.00  0.00    +0.003 C 
ATOM     30  C   UNL     1      32.244  -6.704 -21.972  0.00  0.00    +0.039 C 
BRANCH  30  32
ATOM     31  O   UNL     1      32.157  -4.499 -21.200  0.00  0.00    -0.286 OA
ATOM     32  C   UNL     1      32.310  -5.265 -22.163  0.00  0.00    +0.198 C 
BRANCH  32  33
ATOM     33  C   UNL     1      32.559  -4.645 -23.500  0.00  0.00    +0.073 C 
ATOM     34  C   UNL     1      31.619  -3.799 -24.042  0.00  0.00    +0.137 C 
ATOM     35  C   UNL     1      33.739  -4.952 -24.139  0.00  0.00    +0.006 C 
ATOM     36  C   UNL     1      31.870  -3.231 -25.290  0.00  0.00    +0.037 C 
ATOM     37  C   UNL     1      33.992  -4.384 -25.387  0.00  0.00    +0.000 C 
ATOM     38  C   UNL     1      33.057  -3.524 -25.963  0.00  0.00    +0.003 C 
BRANCH  34  39
ATOM     39  O   UNL     1      30.454  -3.502 -23.400  0.00  0.00    -0.505 OA
ATOM     40  H   UNL     1      30.290  -3.842 -22.542  0.00  0.00    +0.292 HD
ENDBRANCH  34  39
ENDBRANCH  32  33
ENDBRANCH  30  32
ENDBRANCH  24  25
ENDBRANCH  22  24
ENDBRANCH   3  22
TORSDOF 9
ENDMDL
MODEL 7
REMARK VINA RESULT:      -9.4      6.897     13.911
REMARK  Name = 10050566
REMARK  9 active torsions:
REMARK  status: ('A' for Active; 'I' for Inactive)
REMARK    1  A    between atoms: C_2  and  N_11
REMARK    2  A    between atoms: C_3  and  O_22
REMARK    3  A    between atoms: C_12  and  C_14
REMARK    4  A    between atoms: C_19  and  O_20
REMARK    5  A    between atoms: O_22  and  C_24
REMARK    6  A    between atoms: C_24  and  C_25
REMARK    7  A    between atoms: C_30  and  C_32
REMARK    8  A    between atoms: C_32  and  C_33
REMARK    9  A    between atoms: C_34  and  O_39
REMARK                            x       y       z     vdW  Elec       q    Type
REMARK                         _______ _______ _______ _____ _____    ______ ____
ROOT
ATOM      1  N   UNL     1      31.243 -12.099 -20.624  0.00  0.00    +0.385 N 
ATOM      2  C   UNL     1      32.092 -10.851 -22.619  0.00  0.00    +0.091 C 
ATOM      3  C   UNL     1      33.226 -11.849 -22.913  0.00  0.00    +0.185 C 
ATOM      4  C   UNL     1      34.110 -12.246 -21.725  0.00  0.00    +0.043 C 
ATOM      5  C   UNL     1      31.592 -10.789 -21.172  0.00  0.00    -0.058 C 
ATOM      6  C   UNL     1      33.483 -13.239 -20.744  0.00  0.00    -0.020 C 
ATOM      7  C   UNL     1      32.359 -12.681 -19.877  0.00  0.00    -0.082 C 
ATOM      8  H   UNL     1      30.996 -12.725 -21.391  0.00  0.00    -0.084 HD
ATOM      9  H   UNL     1      30.457 -11.981 -19.985  0.00  0.00    -0.084 HD
ENDROOT
BRANCH   2  11
ATOM     10  O   UNL     1      30.551  -8.444 -22.363  0.00  0.00    -0.270 OA
ATOM     11  N   UNL     1      32.492  -9.520 -23.032  0.00  0.00    -0.301 N 
ATOM     12  C   UNL     1      31.672  -8.420 -22.863  0.00  0.00    +0.246 C 
ATOM     13  H   UNL     1      33.377  -9.395 -23.446  0.00  0.00    +0.150 HD
BRANCH  12  14
ATOM     14  C   UNL     1      32.217  -7.131 -23.363  0.00  0.00    +0.054 C 
ATOM     15  C   UNL     1      31.359  -6.234 -23.963  0.00  0.00    +0.008 C 
ATOM     16  C   UNL     1      33.564  -6.872 -23.211  0.00  0.00    +0.008 C 
ATOM     17  C   UNL     1      31.869  -5.024 -24.433  0.00  0.00    +0.037 C 
ATOM     18  C   UNL     1      34.074  -5.662 -23.679  0.00  0.00    +0.037 C 
ATOM     19  C   UNL     1      33.226  -4.738 -24.291  0.00  0.00    +0.134 C 
BRANCH  19  20
ATOM     20  O   UNL     1      33.725  -3.556 -24.746  0.00  0.00    -0.506 OA
ATOM     21  H   UNL     1      34.648  -3.455 -24.869  0.00  0.00    +0.292 HD
ENDBRANCH  19  20
ENDBRANCH  12  14
ENDBRANCH   2  11
BRANCH   3  22
ATOM     22  O   UNL     1      32.681 -13.019 -23.530  0.00  0.00    -0.448 OA
BRANCH  22  24
ATOM     23  O   UNL     1      33.737 -12.991 -25.574  0.00  0.00    -0.245 OA
ATOM     24  C   UNL     1      33.419 -13.550 -24.536  0.00  0.00    +0.341 C 
BRANCH  24  25
ATOM     25  C   UNL     1      33.807 -14.945 -24.211  0.00  0.00    +0.076 C 
ATOM     26  C   UNL     1      33.395 -15.963 -25.047  0.00  0.00    +0.007 C 
ATOM     27  C   UNL     1      34.564 -15.182 -23.082  0.00  0.00    +0.007 C 
ATOM     28  C   UNL     1      33.758 -17.275 -24.741  0.00  0.00    +0.003 C 
ATOM     29  C   UNL     1      34.928 -16.493 -22.776  0.00  0.00    +0.003 C 
ATOM     30  C   UNL     1      34.525 -17.541 -23.606  0.00  0.00    +0.039 C 
BRANCH  30  32
ATOM     31  O   UNL     1      34.888 -19.782 -24.166  0.00  0.00    -0.286 OA
ATOM     32  C   UNL     1      34.903 -18.907 -23.287  0.00  0.00    +0.198 C 
BRANCH  32  33
ATOM     33  C   UNL     1      35.319 -19.323 -21.913  0.00  0.00    +0.073 C 
ATOM     34  C   UNL     1      36.576 -18.999 -21.457  0.00  0.00    +0.137 C 
ATOM     35  C   UNL     1      34.408 -20.021 -21.151  0.00  0.00    +0.006 C 
ATOM     36  C   UNL     1      36.944 -19.396 -20.172  0.00  0.00    +0.037 C 
ATOM     37  C   UNL     1      34.776 -20.417 -19.866  0.00  0.00    +0.000 C 
ATOM     38  C   UNL     1      36.044 -20.105 -19.377  0.00  0.00    +0.003 C 
BRANCH  34  39
ATOM     39  O   UNL     1      37.469 -18.308 -22.219  0.00  0.00    -0.505 OA
ATOM     40  H   UNL     1      37.278 -18.127 -23.119  0.00  0.00    +0.292 HD
ENDBRANCH  34  39
ENDBRANCH  32  33
ENDBRANCH  30  32
ENDBRANCH  24  25
ENDBRANCH  22  24
ENDBRANCH   3  22
TORSDOF 9
ENDMDL
MODEL 8
REMARK VINA RESULT:      -9.2      7.153     14.207
REMARK  Name = 10050566
REMARK  9 active torsions:
REMARK  status: ('A' for Active; 'I' for Inactive)
REMARK    1  A    between atoms: C_2  and  N_11
REMARK    2  A    between atoms: C_3  and  O_22
REMARK    3  A    between atoms: C_12  and  C_14
REMARK    4  A    between atoms: C_19  and  O_20
REMARK    5  A    between atoms: O_22  and  C_24
REMARK    6  A    between atoms: C_24  and  C_25
REMARK    7  A    between atoms: C_30  and  C_32
REMARK    8  A    between atoms: C_32  and  C_33
REMARK    9  A    between atoms: C_34  and  O_39
REMARK                            x       y       z     vdW  Elec       q    Type
REMARK                         _______ _______ _______ _____ _____    ______ ____
ROOT
ATOM      1  N   UNL     1      31.182 -11.778 -20.712  0.00  0.00    +0.385 N 
ATOM      2  C   UNL     1      32.052 -10.495 -22.675  0.00  0.00    +0.091 C 
ATOM      3  C   UNL     1      33.179 -11.497 -22.985  0.00  0.00    +0.185 C 
ATOM      4  C   UNL     1      34.052 -11.928 -21.802  0.00  0.00    +0.043 C 
ATOM      5  C   UNL     1      31.546 -10.459 -21.230  0.00  0.00    -0.058 C 
ATOM      6  C   UNL     1      33.411 -12.936 -20.845  0.00  0.00    -0.020 C 
ATOM      7  C   UNL     1      32.288 -12.386 -19.972  0.00  0.00    -0.082 C 
ATOM      8  H   UNL     1      30.933 -12.384 -21.493  0.00  0.00    -0.084 HD
ATOM      9  H   UNL     1      30.394 -11.665 -20.074  0.00  0.00    -0.084 HD
ENDROOT
BRANCH   2  11
ATOM     10  O   UNL     1      30.390  -8.160 -22.811  0.00  0.00    -0.270 OA
ATOM     11  N   UNL     1      32.468  -9.159 -23.057  0.00  0.00    -0.301 N 
ATOM     12  C   UNL     1      31.585  -8.096 -23.091  0.00  0.00    +0.246 C 
ATOM     13  H   UNL     1      33.409  -9.003 -23.301  0.00  0.00    +0.150 HD
BRANCH  12  14
ATOM     14  C   UNL     1      32.160  -6.798 -23.529  0.00  0.00    +0.054 C 
ATOM     15  C   UNL     1      31.303  -5.771 -23.866  0.00  0.00    +0.008 C 
ATOM     16  C   UNL     1      33.531  -6.661 -23.586  0.00  0.00    +0.008 C 
ATOM     17  C   UNL     1      31.842  -4.552 -24.277  0.00  0.00    +0.037 C 
ATOM     18  C   UNL     1      34.070  -5.443 -23.996  0.00  0.00    +0.037 C 
ATOM     19  C   UNL     1      33.225  -4.388 -24.342  0.00  0.00    +0.134 C 
BRANCH  19  20
ATOM     20  O   UNL     1      33.752  -3.198 -24.741  0.00  0.00    -0.506 OA
ATOM     21  H   UNL     1      33.638  -2.909 -25.626  0.00  0.00    +0.292 HD
ENDBRANCH  19  20
ENDBRANCH  12  14
ENDBRANCH   2  11
BRANCH   3  22
ATOM     22  O   UNL     1      32.625 -12.648 -23.629  0.00  0.00    -0.448 OA
BRANCH  22  24
ATOM     23  O   UNL     1      33.700 -12.602 -25.663  0.00  0.00    -0.245 OA
ATOM     24  C   UNL     1      33.370 -13.171 -24.635  0.00  0.00    +0.341 C 
BRANCH  24  25
ATOM     25  C   UNL     1      33.745 -14.573 -24.323  0.00  0.00    +0.076 C 
ATOM     26  C   UNL     1      34.552 -14.820 -23.231  0.00  0.00    +0.007 C 
ATOM     27  C   UNL     1      33.278 -15.586 -25.135  0.00  0.00    +0.007 C 
ATOM     28  C   UNL     1      34.906 -16.138 -22.939  0.00  0.00    +0.003 C 
ATOM     29  C   UNL     1      33.631 -16.903 -24.844  0.00  0.00    +0.003 C 
ATOM     30  C   UNL     1      34.446 -17.179 -23.744  0.00  0.00    +0.039 C 
BRANCH  30  32
ATOM     31  O   UNL     1      34.563 -19.460 -24.245  0.00  0.00    -0.286 OA
ATOM     32  C   UNL     1      34.815 -18.552 -23.440  0.00  0.00    +0.198 C 
BRANCH  32  33
ATOM     33  C   UNL     1      35.500 -18.933 -22.168  0.00  0.00    +0.073 C 
ATOM     34  C   UNL     1      34.801 -19.613 -21.197  0.00  0.00    +0.137 C 
ATOM     35  C   UNL     1      36.824 -18.582 -22.023  0.00  0.00    +0.006 C 
ATOM     36  C   UNL     1      35.459 -19.960 -20.018  0.00  0.00    +0.037 C 
ATOM     37  C   UNL     1      37.483 -18.930 -20.844  0.00  0.00    +0.000 C 
ATOM     38  C   UNL     1      36.800 -19.618 -19.841  0.00  0.00    +0.003 C 
BRANCH  34  39
ATOM     39  O   UNL     1      33.491 -19.956 -21.351  0.00  0.00    -0.505 OA
ATOM     40  H   UNL     1      33.116 -20.004 -22.209  0.00  0.00    +0.292 HD
ENDBRANCH  34  39
ENDBRANCH  32  33
ENDBRANCH  30  32
ENDBRANCH  24  25
ENDBRANCH  22  24
ENDBRANCH   3  22
TORSDOF 9
ENDMDL
MODEL 9
REMARK VINA RESULT:      -9.2      1.784      2.205
REMARK  Name = 10050566
REMARK  9 active torsions:
REMARK  status: ('A' for Active; 'I' for Inactive)
REMARK    1  A    between atoms: C_2  and  N_11
REMARK    2  A    between atoms: C_3  and  O_22
REMARK    3  A    between atoms: C_12  and  C_14
REMARK    4  A    between atoms: C_19  and  O_20
REMARK    5  A    between atoms: O_22  and  C_24
REMARK    6  A    between atoms: C_24  and  C_25
REMARK    7  A    between atoms: C_30  and  C_32
REMARK    8  A    between atoms: C_32  and  C_33
REMARK    9  A    between atoms: C_34  and  O_39
REMARK                            x       y       z     vdW  Elec       q    Type
REMARK                         _______ _______ _______ _____ _____    ______ ____
ROOT
ATOM      1  N   UNL     1      30.472 -22.053 -14.733  0.00  0.00    +0.385 N 
ATOM      2  C   UNL     1      32.903 -22.592 -14.969  0.00  0.00    +0.091 C 
ATOM      3  C   UNL     1      32.688 -23.641 -16.075  0.00  0.00    +0.185 C 
ATOM      4  C   UNL     1      31.609 -24.697 -15.812  0.00  0.00    +0.043 C 
ATOM      5  C   UNL     1      31.722 -22.336 -14.028  0.00  0.00    -0.058 C 
ATOM      6  C   UNL     1      30.165 -24.217 -15.979  0.00  0.00    -0.020 C 
ATOM      7  C   UNL     1      29.665 -23.262 -14.900  0.00  0.00    -0.082 C 
ATOM      8  H   UNL     1      30.689 -21.670 -15.653  0.00  0.00    -0.084 HD
ATOM      9  H   UNL     1      29.936 -21.385 -14.179  0.00  0.00    -0.084 HD
ENDROOT
BRANCH   2  11
ATOM     10  O   UNL     1      33.015 -24.577 -12.901  0.00  0.00    -0.270 OA
ATOM     11  N   UNL     1      34.064 -22.949 -14.175  0.00  0.00    -0.301 N 
ATOM     12  C   UNL     1      34.013 -23.925 -13.199  0.00  0.00    +0.246 C 
ATOM     13  H   UNL     1      34.915 -22.481 -14.338  0.00  0.00    +0.150 HD
BRANCH  12  14
ATOM     14  C   UNL     1      35.279 -24.155 -12.456  0.00  0.00    +0.054 C 
ATOM     15  C   UNL     1      35.495 -23.465 -11.280  0.00  0.00    +0.008 C 
ATOM     16  C   UNL     1      36.198 -25.048 -12.964  0.00  0.00    +0.008 C 
ATOM     17  C   UNL     1      36.683 -23.680 -10.582  0.00  0.00    +0.037 C 
ATOM     18  C   UNL     1      37.386 -25.264 -12.266  0.00  0.00    +0.037 C 
ATOM     19  C   UNL     1      37.628 -24.579 -11.074  0.00  0.00    +0.134 C 
BRANCH  19  20
ATOM     20  O   UNL     1      38.787 -24.791 -10.392  0.00  0.00    -0.506 OA
ATOM     21  H   UNL     1      38.800 -25.382  -9.665  0.00  0.00    +0.292 HD
ENDBRANCH  19  20
ENDBRANCH  12  14
ENDBRANCH   2  11
BRANCH   3  22
ATOM     22  O   UNL     1      32.430 -22.975 -17.315  0.00  0.00    -0.448 OA
BRANCH  22  24
ATOM     23  O   UNL     1      33.540 -24.429 -18.711  0.00  0.00    -0.245 OA
ATOM     24  C   UNL     1      33.258 -23.301 -18.338  0.00  0.00    +0.341 C 
BRANCH  24  25
ATOM     25  C   UNL     1      33.802 -22.074 -18.972  0.00  0.00    +0.076 C 
ATOM     26  C   UNL     1      32.923 -21.136 -19.473  0.00  0.00    +0.007 C 
ATOM     27  C   UNL     1      35.170 -21.909 -19.041  0.00  0.00    +0.007 C 
ATOM     28  C   UNL     1      33.435 -19.983 -20.070  0.00  0.00    +0.003 C 
ATOM     29  C   UNL     1      35.682 -20.757 -19.637  0.00  0.00    +0.003 C 
ATOM     30  C   UNL     1      34.814 -19.793 -20.152  0.00  0.00    +0.039 C 
BRANCH  30  32
ATOM     31  O   UNL     1      36.180 -17.896 -20.175  0.00  0.00    -0.286 OA
ATOM     32  C   UNL     1      35.347 -18.592 -20.773  0.00  0.00    +0.198 C 
BRANCH  32  33
ATOM     33  C   UNL     1      34.927 -18.142 -22.135  0.00  0.00    +0.073 C 
ATOM     34  C   UNL     1      34.922 -16.799 -22.434  0.00  0.00    +0.137 C 
ATOM     35  C   UNL     1      34.560 -19.108 -23.045  0.00  0.00    +0.006 C 
ATOM     36  C   UNL     1      34.528 -16.400 -23.710  0.00  0.00    +0.037 C 
ATOM     37  C   UNL     1      34.166 -18.709 -24.321  0.00  0.00    +0.000 C 
ATOM     38  C   UNL     1      34.149 -17.355 -24.654  0.00  0.00    +0.003 C 
BRANCH  34  39
ATOM     39  O   UNL     1      35.288 -15.851 -21.526  0.00  0.00    -0.505 OA
ATOM     40  H   UNL     1      34.634 -15.323 -21.110  0.00  0.00    +0.292 HD
ENDBRANCH  34  39
ENDBRANCH  32  33
ENDBRANCH  30  32
ENDBRANCH  24  25
ENDBRANCH  22  24
ENDBRANCH   3  22
TORSDOF 9
ENDMDL
