MODEL 1
REMARK VINA RESULT:     -12.6      0.000      0.000
REMARK  Name = 42611257
REMARK  7 active torsions:
REMARK  status: ('A' for Active; 'I' for Inactive)
REMARK    1  A    between atoms: C_2  and  C_6
REMARK    2  A    between atoms: C_2  and  C_22
REMARK    3  A    between atoms: C_10  and  C_14
REMARK    4  A    between atoms: C_23  and  N_28
REMARK    5  A    between atoms: N_28  and  S_30
REMARK    6  A    between atoms: S_30  and  C_33
REMARK    7  A    between atoms: C_33  and  C_34
REMARK                            x       y       z     vdW  Elec       q    Type
REMARK                         _______ _______ _______ _____ _____    ______ ____
ROOT
ATOM      1  O   UNL     1      35.313 -16.995 -20.365  0.00  0.00    -0.286 OA
ATOM      2  C   UNL     1      35.136 -18.018 -21.061  0.00  0.00    +0.201 C 
ENDROOT
BRANCH   2   6
ATOM      3  N   UNL     1      34.352 -18.515 -24.547  0.00  0.00    -0.297 N 
ATOM      4  N   UNL     1      33.754 -16.389 -25.510  0.00  0.00    -0.229 NA
ATOM      5  C   UNL     1      34.398 -16.755 -23.172  0.00  0.00    +0.036 C 
ATOM      6  C   UNL     1      34.774 -17.916 -22.446  0.00  0.00    +0.056 C 
ATOM      7  C   UNL     1      34.142 -17.163 -24.478  0.00  0.00    +0.132 C 
ATOM      8  C   UNL     1      34.241 -15.391 -22.878  0.00  0.00    +0.004 C 
ATOM      9  C   UNL     1      34.737 -18.983 -23.318  0.00  0.00    +0.066 C 
ATOM     10  C   UNL     1      33.842 -14.545 -23.912  0.00  0.00    +0.019 C 
ATOM     11  C   UNL     1      33.619 -15.087 -25.171  0.00  0.00    +0.100 C 
ATOM     12  H   UNL     1      34.243 -19.066 -25.356  0.00  0.00    +0.154 HD
BRANCH  10  14
ATOM     13 CL   UNL     1      33.093  -8.718 -22.932  0.00  0.00    -0.082 Cl
ATOM     14  C   UNL     1      33.662 -13.131 -23.674  0.00  0.00    +0.002 C 
ATOM     15  C   UNL     1      34.098 -12.203 -24.619  0.00  0.00    +0.001 C 
ATOM     16  C   UNL     1      33.050 -12.695 -22.499  0.00  0.00    +0.001 C 
ATOM     17  C   UNL     1      33.922 -10.838 -24.390  0.00  0.00    +0.011 C 
ATOM     18  C   UNL     1      32.875 -11.330 -22.269  0.00  0.00    +0.011 C 
ATOM     19  C   UNL     1      33.310 -10.402 -23.215  0.00  0.00    +0.058 C 
ENDBRANCH  10  14
ENDBRANCH   2   6
BRANCH   2  22
ATOM     20  F   UNL     1      32.979 -19.565 -20.103  0.00  0.00    -0.203 F 
ATOM     21  F   UNL     1      37.683 -19.161 -20.581  0.00  0.00    -0.204 F 
ATOM     22  C   UNL     1      35.325 -19.334 -20.357  0.00  0.00    +0.095 C 
ATOM     23  C   UNL     1      34.388 -21.269 -19.254  0.00  0.00    +0.092 C 
ATOM     24  C   UNL     1      34.214 -20.049 -19.908  0.00  0.00    +0.160 C 
ATOM     25  C   UNL     1      36.609 -19.839 -20.153  0.00  0.00    +0.145 C 
ATOM     26  C   UNL     1      35.673 -21.775 -19.051  0.00  0.00    +0.020 C 
ATOM     27  C   UNL     1      36.783 -21.060 -19.500  0.00  0.00    +0.031 C 
BRANCH  23  28
ATOM     28  N   UNL     1      33.254 -22.003 -18.793  0.00  0.00    -0.217 N 
ATOM     29  H   UNL     1      32.363 -21.858 -19.187  0.00  0.00    +0.173 HD
BRANCH  28  30
ATOM     30  S   UNL     1      33.487 -23.150 -17.529  0.00  0.00    +0.054 S 
ATOM     31  O   UNL     1      33.484 -24.480 -18.111  0.00  0.00    -0.154 OA
ATOM     32  O   UNL     1      34.556 -22.736 -16.644  0.00  0.00    -0.154 OA
BRANCH  30  33
ATOM     33  C   UNL     1      31.951 -22.967 -16.653  0.00  0.00    +0.172 C 
BRANCH  33  34
ATOM     34  C   UNL     1      32.101 -23.343 -15.188  0.00  0.00    +0.027 C 
ATOM     35  C   UNL     1      30.947 -22.810 -14.355  0.00  0.00    +0.002 C 
ENDBRANCH  33  34
ENDBRANCH  30  33
ENDBRANCH  28  30
ENDBRANCH  23  28
ENDBRANCH   2  22
TORSDOF 7
ENDMDL
MODEL 2
REMARK VINA RESULT:     -12.3      5.696     10.772
REMARK  Name = 42611257
REMARK  7 active torsions:
REMARK  status: ('A' for Active; 'I' for Inactive)
REMARK    1  A    between atoms: C_2  and  C_6
REMARK    2  A    between atoms: C_2  and  C_22
REMARK    3  A    between atoms: C_10  and  C_14
REMARK    4  A    between atoms: C_23  and  N_28
REMARK    5  A    between atoms: N_28  and  S_30
REMARK    6  A    between atoms: S_30  and  C_33
REMARK    7  A    between atoms: C_33  and  C_34
REMARK                            x       y       z     vdW  Elec       q    Type
REMARK                         _______ _______ _______ _____ _____    ______ ____
ROOT
ATOM      1  O   UNL     1      35.133 -13.019 -21.678  0.00  0.00    -0.286 OA
ATOM      2  C   UNL     1      34.112 -13.057 -22.400  0.00  0.00    +0.201 C 
ENDROOT
BRANCH   2   6
ATOM      3  N   UNL     1      33.487 -15.011 -25.367  0.00  0.00    -0.297 N 
ATOM      4  N   UNL     1      33.999 -17.316 -24.889  0.00  0.00    -0.229 NA
ATOM      5  C   UNL     1      34.207 -15.460 -23.301  0.00  0.00    +0.036 C 
ATOM      6  C   UNL     1      33.955 -14.067 -23.407  0.00  0.00    +0.056 C 
ATOM      7  C   UNL     1      33.905 -16.019 -24.539  0.00  0.00    +0.132 C 
ATOM      8  C   UNL     1      34.659 -16.327 -22.292  0.00  0.00    +0.004 C 
ATOM      9  C   UNL     1      33.513 -13.820 -24.689  0.00  0.00    +0.066 C 
ATOM     10  C   UNL     1      34.773 -17.681 -22.602  0.00  0.00    +0.019 C 
ATOM     11  C   UNL     1      34.439 -18.104 -23.882  0.00  0.00    +0.100 C 
ATOM     12  H   UNL     1      33.211 -15.125 -26.305  0.00  0.00    +0.154 HD
BRANCH  10  14
ATOM     13 CL   UNL     1      36.677 -21.572 -18.514  0.00  0.00    -0.082 Cl
ATOM     14  C   UNL     1      35.234 -18.624 -21.609  0.00  0.00    +0.002 C 
ATOM     15  C   UNL     1      34.362 -19.588 -21.104  0.00  0.00    +0.001 C 
ATOM     16  C   UNL     1      36.553 -18.572 -21.157  0.00  0.00    +0.001 C 
ATOM     17  C   UNL     1      34.808 -20.500 -20.147  0.00  0.00    +0.011 C 
ATOM     18  C   UNL     1      36.999 -19.483 -20.200  0.00  0.00    +0.011 C 
ATOM     19  C   UNL     1      36.127 -20.447 -19.695  0.00  0.00    +0.058 C 
ENDBRANCH  10  14
ENDBRANCH   2   6
BRANCH   2  22
ATOM     20  F   UNL     1      34.215 -10.509 -23.609  0.00  0.00    -0.203 F 
ATOM     21  F   UNL     1      31.907 -13.423 -20.659  0.00  0.00    -0.204 F 
ATOM     22  C   UNL     1      33.085 -11.989 -22.141  0.00  0.00    +0.095 C 
ATOM     23  C   UNL     1      32.243  -9.758 -22.532  0.00  0.00    +0.092 C 
ATOM     24  C   UNL     1      33.194 -10.749 -22.772  0.00  0.00    +0.160 C 
ATOM     25  C   UNL     1      32.023 -12.236 -21.271  0.00  0.00    +0.145 C 
ATOM     26  C   UNL     1      31.180 -10.007 -21.662  0.00  0.00    +0.020 C 
ATOM     27  C   UNL     1      31.071 -11.246 -21.032  0.00  0.00    +0.031 C 
BRANCH  23  28
ATOM     28  N   UNL     1      32.352  -8.489 -23.177  0.00  0.00    -0.217 N 
ATOM     29  H   UNL     1      32.069  -8.370 -24.113  0.00  0.00    +0.173 HD
BRANCH  28  30
ATOM     30  S   UNL     1      32.992  -7.170 -22.272  0.00  0.00    +0.054 S 
ATOM     31  O   UNL     1      33.506  -7.683 -21.015  0.00  0.00    -0.154 OA
ATOM     32  O   UNL     1      33.810  -6.316 -23.109  0.00  0.00    -0.154 OA
BRANCH  30  33
ATOM     33  C   UNL     1      31.493  -6.291 -21.896  0.00  0.00    +0.172 C 
BRANCH  33  34
ATOM     34  C   UNL     1      31.786  -4.944 -21.257  0.00  0.00    +0.027 C 
ATOM     35  C   UNL     1      30.838  -3.870 -21.763  0.00  0.00    +0.002 C 
ENDBRANCH  33  34
ENDBRANCH  30  33
ENDBRANCH  28  30
ENDBRANCH  23  28
ENDBRANCH   2  22
TORSDOF 7
ENDMDL
MODEL 3
REMARK VINA RESULT:     -12.3      3.744      6.479
REMARK  Name = 42611257
REMARK  7 active torsions:
REMARK  status: ('A' for Active; 'I' for Inactive)
REMARK    1  A    between atoms: C_2  and  C_6
REMARK    2  A    between atoms: C_2  and  C_22
REMARK    3  A    between atoms: C_10  and  C_14
REMARK    4  A    between atoms: C_23  and  N_28
REMARK    5  A    between atoms: N_28  and  S_30
REMARK    6  A    between atoms: S_30  and  C_33
REMARK    7  A    between atoms: C_33  and  C_34
REMARK                            x       y       z     vdW  Elec       q    Type
REMARK                         _______ _______ _______ _____ _____    ______ ____
ROOT
ATOM      1  O   UNL     1      34.441 -12.253 -24.064  0.00  0.00    -0.286 OA
ATOM      2  C   UNL     1      33.871 -13.071 -23.309  0.00  0.00    +0.201 C 
ENDROOT
BRANCH   2   6
ATOM      3  N   UNL     1      31.868 -12.682 -20.334  0.00  0.00    -0.297 N 
ATOM      4  N   UNL     1      31.215 -10.372 -20.145  0.00  0.00    -0.229 NA
ATOM      5  C   UNL     1      32.589 -11.313 -21.944  0.00  0.00    +0.036 C 
ATOM      6  C   UNL     1      33.062 -12.625 -22.211  0.00  0.00    +0.056 C 
ATOM      7  C   UNL     1      31.848 -11.384 -20.768  0.00  0.00    +0.132 C 
ATOM      8  C   UNL     1      32.699 -10.058 -22.566  0.00  0.00    +0.004 C 
ATOM      9  C   UNL     1      32.603 -13.446 -21.204  0.00  0.00    +0.066 C 
ATOM     10  C   UNL     1      32.061  -8.976 -21.962  0.00  0.00    +0.019 C 
ATOM     11  C   UNL     1      31.354  -9.188 -20.785  0.00  0.00    +0.100 C 
ATOM     12  H   UNL     1      31.423 -13.016 -19.522  0.00  0.00    +0.154 HD
BRANCH  10  14
ATOM     13 CL   UNL     1      32.372  -3.547 -24.392  0.00  0.00    -0.082 Cl
ATOM     14  C   UNL     1      32.137  -7.658 -22.550  0.00  0.00    +0.002 C 
ATOM     15  C   UNL     1      33.335  -6.944 -22.512  0.00  0.00    +0.001 C 
ATOM     16  C   UNL     1      31.011  -7.101 -23.157  0.00  0.00    +0.001 C 
ATOM     17  C   UNL     1      33.407  -5.673 -23.082  0.00  0.00    +0.011 C 
ATOM     18  C   UNL     1      31.084  -5.830 -23.726  0.00  0.00    +0.011 C 
ATOM     19  C   UNL     1      32.282  -5.116 -23.689  0.00  0.00    +0.058 C 
ENDBRANCH  10  14
ENDBRANCH   2   6
BRANCH   2  22
ATOM     20  F   UNL     1      35.662 -14.704 -21.863  0.00  0.00    -0.203 F 
ATOM     21  F   UNL     1      32.527 -14.410 -25.413  0.00  0.00    -0.204 F 
ATOM     22  C   UNL     1      34.091 -14.525 -23.629  0.00  0.00    +0.095 C 
ATOM     23  C   UNL     1      35.197 -16.623 -23.171  0.00  0.00    +0.092 C 
ATOM     24  C   UNL     1      34.992 -15.276 -22.874  0.00  0.00    +0.160 C 
ATOM     25  C   UNL     1      33.395 -15.121 -24.681  0.00  0.00    +0.145 C 
ATOM     26  C   UNL     1      34.500 -17.220 -24.222  0.00  0.00    +0.020 C 
ATOM     27  C   UNL     1      33.599 -16.469 -24.977  0.00  0.00    +0.031 C 
BRANCH  23  28
ATOM     28  N   UNL     1      36.118 -17.395 -22.399  0.00  0.00    -0.217 N 
ATOM     29  H   UNL     1      37.007 -17.624 -22.755  0.00  0.00    +0.173 HD
BRANCH  28  30
ATOM     30  S   UNL     1      35.630 -17.913 -20.831  0.00  0.00    +0.054 S 
ATOM     31  O   UNL     1      36.763 -18.555 -20.188  0.00  0.00    -0.154 OA
ATOM     32  O   UNL     1      34.888 -16.872 -20.149  0.00  0.00    -0.154 OA
BRANCH  30  33
ATOM     33  C   UNL     1      34.487 -19.202 -21.268  0.00  0.00    +0.172 C 
BRANCH  33  34
ATOM     34  C   UNL     1      34.363 -20.233 -20.158  0.00  0.00    +0.027 C 
ATOM     35  C   UNL     1      32.910 -20.489 -19.795  0.00  0.00    +0.002 C 
ENDBRANCH  33  34
ENDBRANCH  30  33
ENDBRANCH  28  30
ENDBRANCH  23  28
ENDBRANCH   2  22
TORSDOF 7
ENDMDL
MODEL 4
REMARK VINA RESULT:     -12.2      4.737     10.031
REMARK  Name = 42611257
REMARK  7 active torsions:
REMARK  status: ('A' for Active; 'I' for Inactive)
REMARK    1  A    between atoms: C_2  and  C_6
REMARK    2  A    between atoms: C_2  and  C_22
REMARK    3  A    between atoms: C_10  and  C_14
REMARK    4  A    between atoms: C_23  and  N_28
REMARK    5  A    between atoms: N_28  and  S_30
REMARK    6  A    between atoms: S_30  and  C_33
REMARK    7  A    between atoms: C_33  and  C_34
REMARK                            x       y       z     vdW  Elec       q    Type
REMARK                         _______ _______ _______ _____ _____    ______ ____
ROOT
ATOM      1  O   UNL     1      36.572 -19.512 -20.152  0.00  0.00    -0.286 OA
ATOM      2  C   UNL     1      35.411 -19.329 -20.577  0.00  0.00    +0.201 C 
ENDROOT
BRANCH   2   6
ATOM      3  N   UNL     1      32.253 -20.927 -19.880  0.00  0.00    -0.297 N 
ATOM      4  N   UNL     1      32.542 -22.414 -18.007  0.00  0.00    -0.229 NA
ATOM      5  C   UNL     1      34.301 -21.019 -18.994  0.00  0.00    +0.036 C 
ATOM      6  C   UNL     1      34.310 -20.102 -20.078  0.00  0.00    +0.056 C 
ATOM      7  C   UNL     1      33.004 -21.515 -18.897  0.00  0.00    +0.132 C 
ATOM      8  C   UNL     1      35.246 -21.495 -18.070  0.00  0.00    +0.004 C 
ATOM      9  C   UNL     1      33.037 -20.066 -20.604  0.00  0.00    +0.066 C 
ATOM     10  C   UNL     1      34.819 -22.427 -17.126  0.00  0.00    +0.019 C 
ATOM     11  C   UNL     1      33.493 -22.837 -17.143  0.00  0.00    +0.100 C 
ATOM     12  H   UNL     1      31.297 -21.097 -20.042  0.00  0.00    +0.154 HD
BRANCH  10  14
ATOM     13 CL   UNL     1      38.622 -24.607 -13.092  0.00  0.00    -0.082 Cl
ATOM     14  C   UNL     1      35.743 -22.956 -16.148  0.00  0.00    +0.002 C 
ATOM     15  C   UNL     1      37.046 -22.463 -16.080  0.00  0.00    +0.001 C 
ATOM     16  C   UNL     1      35.330 -23.960 -15.272  0.00  0.00    +0.001 C 
ATOM     17  C   UNL     1      37.936 -22.973 -15.135  0.00  0.00    +0.011 C 
ATOM     18  C   UNL     1      36.220 -24.470 -14.327  0.00  0.00    +0.011 C 
ATOM     19  C   UNL     1      37.523 -23.977 -14.258  0.00  0.00    +0.058 C 
ENDBRANCH  10  14
ENDBRANCH   2   6
BRANCH   2  22
ATOM     20  F   UNL     1      35.291 -16.577 -19.960  0.00  0.00    -0.203 F 
ATOM     21  F   UNL     1      35.212 -19.903 -23.343  0.00  0.00    -0.204 F 
ATOM     22  C   UNL     1      35.255 -18.263 -21.627  0.00  0.00    +0.095 C 
ATOM     23  C   UNL     1      35.057 -15.930 -22.226  0.00  0.00    +0.092 C 
ATOM     24  C   UNL     1      35.202 -16.920 -21.254  0.00  0.00    +0.160 C 
ATOM     25  C   UNL     1      35.162 -18.616 -22.973  0.00  0.00    +0.145 C 
ATOM     26  C   UNL     1      34.965 -16.285 -23.573  0.00  0.00    +0.020 C 
ATOM     27  C   UNL     1      35.018 -17.627 -23.946  0.00  0.00    +0.031 C 
BRANCH  23  28
ATOM     28  N   UNL     1      35.003 -14.555 -21.848  0.00  0.00    -0.217 N 
ATOM     29  H   UNL     1      35.655 -14.180 -21.212  0.00  0.00    +0.173 HD
BRANCH  28  30
ATOM     30  S   UNL     1      33.768 -13.570 -22.534  0.00  0.00    +0.054 S 
ATOM     31  O   UNL     1      34.325 -12.256 -22.802  0.00  0.00    -0.154 OA
ATOM     32  O   UNL     1      33.046 -14.288 -23.565  0.00  0.00    -0.154 OA
BRANCH  30  33
ATOM     33  C   UNL     1      32.689 -13.397 -21.132  0.00  0.00    +0.172 C 
BRANCH  33  34
ATOM     34  C   UNL     1      31.925 -12.084 -21.180  0.00  0.00    +0.027 C 
ATOM     35  C   UNL     1      31.926 -11.389 -19.829  0.00  0.00    +0.002 C 
ENDBRANCH  33  34
ENDBRANCH  30  33
ENDBRANCH  28  30
ENDBRANCH  23  28
ENDBRANCH   2  22
TORSDOF 7
ENDMDL
MODEL 5
REMARK VINA RESULT:     -12.0      5.223     10.443
REMARK  Name = 42611257
REMARK  7 active torsions:
REMARK  status: ('A' for Active; 'I' for Inactive)
REMARK    1  A    between atoms: C_2  and  C_6
REMARK    2  A    between atoms: C_2  and  C_22
REMARK    3  A    between atoms: C_10  and  C_14
REMARK    4  A    between atoms: C_23  and  N_28
REMARK    5  A    between atoms: N_28  and  S_30
REMARK    6  A    between atoms: S_30  and  C_33
REMARK    7  A    between atoms: C_33  and  C_34
REMARK                            x       y       z     vdW  Elec       q    Type
REMARK                         _______ _______ _______ _____ _____    ______ ____
ROOT
ATOM      1  O   UNL     1      35.331 -14.323 -20.086  0.00  0.00    -0.286 OA
ATOM      2  C   UNL     1      34.594 -14.334 -21.095  0.00  0.00    +0.201 C 
ENDROOT
BRANCH   2   6
ATOM      3  N   UNL     1      35.148 -16.135 -24.172  0.00  0.00    -0.297 N 
ATOM      4  N   UNL     1      35.099 -18.496 -23.698  0.00  0.00    -0.229 NA
ATOM      5  C   UNL     1      34.791 -16.712 -22.044  0.00  0.00    +0.036 C 
ATOM      6  C   UNL     1      34.788 -15.296 -22.142  0.00  0.00    +0.056 C 
ATOM      7  C   UNL     1      35.017 -17.204 -23.326  0.00  0.00    +0.132 C 
ATOM      8  C   UNL     1      34.626 -17.650 -21.011  0.00  0.00    +0.004 C 
ATOM      9  C   UNL     1      35.010 -14.969 -23.463  0.00  0.00    +0.066 C 
ATOM     10  C   UNL     1      34.701 -19.002 -21.343  0.00  0.00    +0.019 C 
ATOM     11  C   UNL     1      34.934 -19.354 -22.666  0.00  0.00    +0.100 C 
ATOM     12  H   UNL     1      35.315 -16.194 -25.140  0.00  0.00    +0.154 HD
BRANCH  10  14
ATOM     13 CL   UNL     1      34.039 -23.179 -17.148  0.00  0.00    -0.082 Cl
ATOM     14  C   UNL     1      34.541 -20.016 -20.326  0.00  0.00    +0.002 C 
ATOM     15  C   UNL     1      35.664 -20.620 -19.759  0.00  0.00    +0.001 C 
ATOM     16  C   UNL     1      33.263 -20.391 -19.911  0.00  0.00    +0.001 C 
ATOM     17  C   UNL     1      35.509 -21.597 -18.776  0.00  0.00    +0.011 C 
ATOM     18  C   UNL     1      33.108 -21.369 -18.929  0.00  0.00    +0.011 C 
ATOM     19  C   UNL     1      34.231 -21.972 -18.361  0.00  0.00    +0.058 C 
ENDBRANCH  10  14
ENDBRANCH   2   6
BRANCH   2  22
ATOM     20  F   UNL     1      34.666 -12.121 -22.846  0.00  0.00    -0.203 F 
ATOM     21  F   UNL     1      32.313 -14.408 -19.417  0.00  0.00    -0.204 F 
ATOM     22  C   UNL     1      33.514 -13.287 -21.132  0.00  0.00    +0.095 C 
ATOM     23  C   UNL     1      32.611 -11.246 -22.057  0.00  0.00    +0.092 C 
ATOM     24  C   UNL     1      33.612 -12.217 -22.023  0.00  0.00    +0.160 C 
ATOM     25  C   UNL     1      32.417 -13.385 -20.277  0.00  0.00    +0.145 C 
ATOM     26  C   UNL     1      31.513 -11.344 -21.201  0.00  0.00    +0.020 C 
ATOM     27  C   UNL     1      31.417 -12.413 -20.312  0.00  0.00    +0.031 C 
BRANCH  23  28
ATOM     28  N   UNL     1      32.708 -10.150 -22.967  0.00  0.00    -0.217 N 
ATOM     29  H   UNL     1      32.898 -10.301 -23.922  0.00  0.00    +0.173 HD
BRANCH  28  30
ATOM     30  S   UNL     1      32.481  -8.558 -22.350  0.00  0.00    +0.054 S 
ATOM     31  O   UNL     1      31.207  -8.056 -22.834  0.00  0.00    -0.154 OA
ATOM     32  O   UNL     1      32.809  -8.497 -20.941  0.00  0.00    -0.154 OA
BRANCH  30  33
ATOM     33  C   UNL     1      33.750  -7.691 -23.245  0.00  0.00    +0.172 C 
BRANCH  33  34
ATOM     34  C   UNL     1      33.797  -6.223 -22.856  0.00  0.00    +0.027 C 
ATOM     35  C   UNL     1      33.349  -5.329 -23.999  0.00  0.00    +0.002 C 
ENDBRANCH  33  34
ENDBRANCH  30  33
ENDBRANCH  28  30
ENDBRANCH  23  28
ENDBRANCH   2  22
TORSDOF 7
ENDMDL
MODEL 6
REMARK VINA RESULT:     -11.3      1.818      2.407
REMARK  Name = 42611257
REMARK  7 active torsions:
REMARK  status: ('A' for Active; 'I' for Inactive)
REMARK    1  A    between atoms: C_2  and  C_6
REMARK    2  A    between atoms: C_2  and  C_22
REMARK    3  A    between atoms: C_10  and  C_14
REMARK    4  A    between atoms: C_23  and  N_28
REMARK    5  A    between atoms: N_28  and  S_30
REMARK    6  A    between atoms: S_30  and  C_33
REMARK    7  A    between atoms: C_33  and  C_34
REMARK                            x       y       z     vdW  Elec       q    Type
REMARK                         _______ _______ _______ _____ _____    ______ ____
ROOT
ATOM      1  O   UNL     1      35.827 -17.613 -20.431  0.00  0.00    -0.286 OA
ATOM      2  C   UNL     1      35.234 -18.541 -21.022  0.00  0.00    +0.201 C 
ENDROOT
BRANCH   2   6
ATOM      3  N   UNL     1      34.439 -18.989 -24.512  0.00  0.00    -0.297 N 
ATOM      4  N   UNL     1      33.807 -16.856 -25.435  0.00  0.00    -0.229 NA
ATOM      5  C   UNL     1      34.467 -17.253 -23.107  0.00  0.00    +0.036 C 
ATOM      6  C   UNL     1      34.863 -18.421 -22.403  0.00  0.00    +0.056 C 
ATOM      7  C   UNL     1      34.210 -17.642 -24.419  0.00  0.00    +0.132 C 
ATOM      8  C   UNL     1      34.293 -15.896 -22.789  0.00  0.00    +0.004 C 
ATOM      9  C   UNL     1      34.837 -19.473 -23.293  0.00  0.00    +0.066 C 
ATOM     10  C   UNL     1      33.877 -15.038 -23.805  0.00  0.00    +0.019 C 
ATOM     11  C   UNL     1      33.656 -15.561 -25.073  0.00  0.00    +0.100 C 
ATOM     12  H   UNL     1      34.334 -19.527 -25.330  0.00  0.00    +0.154 HD
BRANCH  10  14
ATOM     13 CL   UNL     1      33.052  -9.240 -22.722  0.00  0.00    -0.082 Cl
ATOM     14  C   UNL     1      33.679 -13.631 -23.543  0.00  0.00    +0.002 C 
ATOM     15  C   UNL     1      34.087 -12.681 -24.479  0.00  0.00    +0.001 C 
ATOM     16  C   UNL     1      33.077 -13.223 -22.352  0.00  0.00    +0.001 C 
ATOM     17  C   UNL     1      33.893 -11.323 -24.225  0.00  0.00    +0.011 C 
ATOM     18  C   UNL     1      32.884 -11.865 -22.098  0.00  0.00    +0.011 C 
ATOM     19  C   UNL     1      33.291 -10.915 -23.034  0.00  0.00    +0.058 C 
ENDBRANCH  10  14
ENDBRANCH   2   6
BRANCH   2  22
ATOM     20  F   UNL     1      37.236 -19.970 -19.638  0.00  0.00    -0.203 F 
ATOM     21  F   UNL     1      32.630 -19.616 -20.723  0.00  0.00    -0.204 F 
ATOM     22  C   UNL     1      34.941 -19.766 -20.198  0.00  0.00    +0.095 C 
ATOM     23  C   UNL     1      35.709 -21.561 -18.775  0.00  0.00    +0.092 C 
ATOM     24  C   UNL     1      35.979 -20.425 -19.539  0.00  0.00    +0.160 C 
ATOM     25  C   UNL     1      33.634 -20.242 -20.094  0.00  0.00    +0.145 C 
ATOM     26  C   UNL     1      34.401 -22.037 -18.670  0.00  0.00    +0.020 C 
ATOM     27  C   UNL     1      33.365 -21.377 -19.330  0.00  0.00    +0.031 C 
BRANCH  23  28
ATOM     28  N   UNL     1      36.768 -22.239 -18.099  0.00  0.00    -0.217 N 
ATOM     29  H   UNL     1      37.240 -22.991 -18.524  0.00  0.00    +0.173 HD
BRANCH  28  30
ATOM     30  S   UNL     1      37.198 -21.703 -16.520  0.00  0.00    +0.054 S 
ATOM     31  O   UNL     1      38.161 -22.637 -15.965  0.00  0.00    -0.154 OA
ATOM     32  O   UNL     1      37.463 -20.279 -16.510  0.00  0.00    -0.154 OA
BRANCH  30  33
ATOM     33  C   UNL     1      35.663 -21.979 -15.666  0.00  0.00    +0.172 C 
BRANCH  33  34
ATOM     34  C   UNL     1      35.572 -23.399 -15.134  0.00  0.00    +0.027 C 
ATOM     35  C   UNL     1      34.134 -23.794 -14.844  0.00  0.00    +0.002 C 
ENDBRANCH  33  34
ENDBRANCH  30  33
ENDBRANCH  28  30
ENDBRANCH  23  28
ENDBRANCH   2  22
TORSDOF 7
ENDMDL
MODEL 7
REMARK VINA RESULT:     -11.2      4.680     10.079
REMARK  Name = 42611257
REMARK  7 active torsions:
REMARK  status: ('A' for Active; 'I' for Inactive)
REMARK    1  A    between atoms: C_2  and  C_6
REMARK    2  A    between atoms: C_2  and  C_22
REMARK    3  A    between atoms: C_10  and  C_14
REMARK    4  A    between atoms: C_23  and  N_28
REMARK    5  A    between atoms: N_28  and  S_30
REMARK    6  A    between atoms: S_30  and  C_33
REMARK    7  A    between atoms: C_33  and  C_34
REMARK                            x       y       z     vdW  Elec       q    Type
REMARK                         _______ _______ _______ _____ _____    ______ ____
ROOT
ATOM      1  O   UNL     1      36.723 -19.191 -20.536  0.00  0.00    -0.286 OA
ATOM      2  C   UNL     1      35.542 -18.811 -20.689  0.00  0.00    +0.201 C 
ENDROOT
BRANCH   2   6
ATOM      3  N   UNL     1      32.425 -20.610 -20.454  0.00  0.00    -0.297 N 
ATOM      4  N   UNL     1      32.594 -22.207 -18.659  0.00  0.00    -0.229 NA
ATOM      5  C   UNL     1      34.366 -20.661 -19.351  0.00  0.00    +0.036 C 
ATOM      6  C   UNL     1      34.440 -19.671 -20.367  0.00  0.00    +0.056 C 
ATOM      7  C   UNL     1      33.097 -21.227 -19.433  0.00  0.00    +0.132 C 
ATOM      8  C   UNL     1      35.231 -21.151 -18.359  0.00  0.00    +0.004 C 
ATOM      9  C   UNL     1      33.231 -19.663 -21.029  0.00  0.00    +0.066 C 
ATOM     10  C   UNL     1      34.759 -22.167 -17.530  0.00  0.00    +0.019 C 
ATOM     11  C   UNL     1      33.468 -22.641 -17.722  0.00  0.00    +0.100 C 
ATOM     12  H   UNL     1      31.503 -20.816 -20.733  0.00  0.00    +0.154 HD
BRANCH  10  14
ATOM     13 CL   UNL     1      38.230 -24.432 -13.252  0.00  0.00    -0.082 Cl
ATOM     14  C   UNL     1      35.600 -22.716 -16.491  0.00  0.00    +0.002 C 
ATOM     15  C   UNL     1      35.091 -23.673 -15.613  0.00  0.00    +0.001 C 
ATOM     16  C   UNL     1      36.922 -22.288 -16.366  0.00  0.00    +0.001 C 
ATOM     17  C   UNL     1      35.904 -24.204 -14.612  0.00  0.00    +0.011 C 
ATOM     18  C   UNL     1      37.735 -22.818 -15.365  0.00  0.00    +0.011 C 
ATOM     19  C   UNL     1      37.226 -23.777 -14.488  0.00  0.00    +0.058 C 
ENDBRANCH  10  14
ENDBRANCH   2   6
BRANCH   2  22
ATOM     20  F   UNL     1      35.599 -18.211 -23.447  0.00  0.00    -0.203 F 
ATOM     21  F   UNL     1      35.123 -16.558 -19.024  0.00  0.00    -0.204 F 
ATOM     22  C   UNL     1      35.365 -17.416 -21.225  0.00  0.00    +0.095 C 
ATOM     23  C   UNL     1      35.240 -15.895 -23.099  0.00  0.00    +0.092 C 
ATOM     24  C   UNL     1      35.404 -17.188 -22.601  0.00  0.00    +0.160 C 
ATOM     25  C   UNL     1      35.162 -16.351 -20.348  0.00  0.00    +0.145 C 
ATOM     26  C   UNL     1      35.037 -14.830 -22.221  0.00  0.00    +0.020 C 
ATOM     27  C   UNL     1      34.998 -15.058 -20.846  0.00  0.00    +0.031 C 
BRANCH  23  28
ATOM     28  N   UNL     1      35.279 -15.659 -24.507  0.00  0.00    -0.217 N 
ATOM     29  H   UNL     1      36.135 -15.643 -24.993  0.00  0.00    +0.173 HD
BRANCH  28  30
ATOM     30  S   UNL     1      33.788 -15.405 -25.330  0.00  0.00    +0.054 S 
ATOM     31  O   UNL     1      34.074 -14.815 -26.625  0.00  0.00    -0.154 OA
ATOM     32  O   UNL     1      32.932 -16.569 -25.223  0.00  0.00    -0.154 OA
BRANCH  30  33
ATOM     33  C   UNL     1      33.088 -14.119 -24.321  0.00  0.00    +0.172 C 
BRANCH  33  34
ATOM     34  C   UNL     1      33.430 -12.741 -24.864  0.00  0.00    +0.027 C 
ATOM     35  C   UNL     1      33.918 -11.814 -23.763  0.00  0.00    +0.002 C 
ENDBRANCH  33  34
ENDBRANCH  30  33
ENDBRANCH  28  30
ENDBRANCH  23  28
ENDBRANCH   2  22
TORSDOF 7
ENDMDL
MODEL 8
REMARK VINA RESULT:     -11.0      5.514     10.316
REMARK  Name = 42611257
REMARK  7 active torsions:
REMARK  status: ('A' for Active; 'I' for Inactive)
REMARK    1  A    between atoms: C_2  and  C_6
REMARK    2  A    between atoms: C_2  and  C_22
REMARK    3  A    between atoms: C_10  and  C_14
REMARK    4  A    between atoms: C_23  and  N_28
REMARK    5  A    between atoms: N_28  and  S_30
REMARK    6  A    between atoms: S_30  and  C_33
REMARK    7  A    between atoms: C_33  and  C_34
REMARK                            x       y       z     vdW  Elec       q    Type
REMARK                         _______ _______ _______ _____ _____    ______ ____
ROOT
ATOM      1  O   UNL     1      34.859 -13.541 -21.529  0.00  0.00    -0.286 OA
ATOM      2  C   UNL     1      34.219 -13.356 -22.587  0.00  0.00    +0.201 C 
ENDROOT
BRANCH   2   6
ATOM      3  N   UNL     1      33.481 -15.474 -25.412  0.00  0.00    -0.297 N 
ATOM      4  N   UNL     1      33.965 -17.755 -24.808  0.00  0.00    -0.229 NA
ATOM      5  C   UNL     1      34.248 -15.810 -23.341  0.00  0.00    +0.036 C 
ATOM      6  C   UNL     1      34.017 -14.421 -23.526  0.00  0.00    +0.056 C 
ATOM      7  C   UNL     1      33.903 -16.438 -24.535  0.00  0.00    +0.132 C 
ATOM      8  C   UNL     1      34.711 -16.623 -22.294  0.00  0.00    +0.004 C 
ATOM      9  C   UNL     1      33.546 -14.245 -24.809  0.00  0.00    +0.066 C 
ATOM     10  C   UNL     1      34.794 -17.995 -22.523  0.00  0.00    +0.019 C 
ATOM     11  C   UNL     1      34.418 -18.489 -23.765  0.00  0.00    +0.100 C 
ATOM     12  H   UNL     1      33.178 -15.639 -26.334  0.00  0.00    +0.154 HD
BRANCH  10  14
ATOM     13 CL   UNL     1      36.738 -21.666 -18.255  0.00  0.00    -0.082 Cl
ATOM     14  C   UNL     1      35.264 -18.885 -21.487  0.00  0.00    +0.002 C 
ATOM     15  C   UNL     1      34.432 -19.894 -21.001  0.00  0.00    +0.001 C 
ATOM     16  C   UNL     1      36.553 -18.736 -20.972  0.00  0.00    +0.001 C 
ATOM     17  C   UNL     1      34.888 -20.754 -20.002  0.00  0.00    +0.011 C 
ATOM     18  C   UNL     1      37.008 -19.596 -19.973  0.00  0.00    +0.011 C 
ATOM     19  C   UNL     1      36.176 -20.605 -19.488  0.00  0.00    +0.058 C 
ENDBRANCH  10  14
ENDBRANCH   2   6
BRANCH   2  22
ATOM     20  F   UNL     1      32.428 -12.108 -20.799  0.00  0.00    -0.203 F 
ATOM     21  F   UNL     1      34.932 -11.757 -24.814  0.00  0.00    -0.204 F 
ATOM     22  C   UNL     1      33.690 -11.963 -22.800  0.00  0.00    +0.095 C 
ATOM     23  C   UNL     1      32.314 -10.115 -22.073  0.00  0.00    +0.092 C 
ATOM     24  C   UNL     1      32.806 -11.405 -21.876  0.00  0.00    +0.160 C 
ATOM     25  C   UNL     1      34.083 -11.231 -23.920  0.00  0.00    +0.145 C 
ATOM     26  C   UNL     1      32.708  -9.382 -23.194  0.00  0.00    +0.020 C 
ATOM     27  C   UNL     1      33.592  -9.940 -24.117  0.00  0.00    +0.031 C 
BRANCH  23  28
ATOM     28  N   UNL     1      31.410  -9.540 -21.130  0.00  0.00    -0.217 N 
ATOM     29  H   UNL     1      30.453  -9.773 -21.141  0.00  0.00    +0.173 HD
BRANCH  28  30
ATOM     30  S   UNL     1      32.038  -8.431 -19.973  0.00  0.00    +0.054 S 
ATOM     31  O   UNL     1      30.958  -7.566 -19.533  0.00  0.00    -0.154 OA
ATOM     32  O   UNL     1      32.879  -9.109 -19.007  0.00  0.00    -0.154 OA
BRANCH  30  33
ATOM     33  C   UNL     1      33.090  -7.450 -21.018  0.00  0.00    +0.172 C 
BRANCH  33  34
ATOM     34  C   UNL     1      33.032  -5.979 -20.640  0.00  0.00    +0.027 C 
ATOM     35  C   UNL     1      32.387  -5.148 -21.736  0.00  0.00    +0.002 C 
ENDBRANCH  33  34
ENDBRANCH  30  33
ENDBRANCH  28  30
ENDBRANCH  23  28
ENDBRANCH   2  22
TORSDOF 7
ENDMDL
MODEL 9
REMARK VINA RESULT:     -10.9      5.309     11.202
REMARK  Name = 42611257
REMARK  7 active torsions:
REMARK  status: ('A' for Active; 'I' for Inactive)
REMARK    1  A    between atoms: C_2  and  C_6
REMARK    2  A    between atoms: C_2  and  C_22
REMARK    3  A    between atoms: C_10  and  C_14
REMARK    4  A    between atoms: C_23  and  N_28
REMARK    5  A    between atoms: N_28  and  S_30
REMARK    6  A    between atoms: S_30  and  C_33
REMARK    7  A    between atoms: C_33  and  C_34
REMARK                            x       y       z     vdW  Elec       q    Type
REMARK                         _______ _______ _______ _____ _____    ______ ____
ROOT
ATOM      1  O   UNL     1      33.767 -23.787 -19.396  0.00  0.00    -0.286 OA
ATOM      2  C   UNL     1      33.908 -22.818 -18.620  0.00  0.00    +0.201 C 
ENDROOT
BRANCH   2   6
ATOM      3  N   UNL     1      32.035 -22.668 -15.540  0.00  0.00    -0.297 N 
ATOM      4  N   UNL     1      33.432 -23.479 -13.753  0.00  0.00    -0.229 NA
ATOM      5  C   UNL     1      34.096 -23.316 -16.108  0.00  0.00    +0.036 C 
ATOM      6  C   UNL     1      33.417 -22.872 -17.273  0.00  0.00    +0.056 C 
ATOM      7  C   UNL     1      33.207 -23.177 -15.046  0.00  0.00    +0.132 C 
ATOM      8  C   UNL     1      35.373 -23.826 -15.820  0.00  0.00    +0.004 C 
ATOM      9  C   UNL     1      32.151 -22.479 -16.893  0.00  0.00    +0.066 C 
ATOM     10  C   UNL     1      35.657 -24.156 -14.496  0.00  0.00    +0.019 C 
ATOM     11  C   UNL     1      34.675 -23.966 -13.533  0.00  0.00    +0.100 C 
ATOM     12  H   UNL     1      31.232 -22.470 -15.006  0.00  0.00    +0.154 HD
BRANCH  10  14
ATOM     13 CL   UNL     1      40.994 -26.345 -13.012  0.00  0.00    -0.082 Cl
ATOM     14  C   UNL     1      36.952 -24.686 -14.134  0.00  0.00    +0.002 C 
ATOM     15  C   UNL     1      37.064 -25.606 -13.091  0.00  0.00    +0.001 C 
ATOM     16  C   UNL     1      38.091 -24.279 -14.830  0.00  0.00    +0.001 C 
ATOM     17  C   UNL     1      38.314 -26.119 -12.745  0.00  0.00    +0.011 C 
ATOM     18  C   UNL     1      39.340 -24.791 -14.483  0.00  0.00    +0.011 C 
ATOM     19  C   UNL     1      39.452 -25.712 -13.440  0.00  0.00    +0.058 C 
ENDBRANCH  10  14
ENDBRANCH   2   6
BRANCH   2  22
ATOM     20  F   UNL     1      32.642 -20.970 -20.337  0.00  0.00    -0.203 F 
ATOM     21  F   UNL     1      36.618 -22.211 -18.064  0.00  0.00    -0.204 F 
ATOM     22  C   UNL     1      34.613 -21.616 -19.189  0.00  0.00    +0.095 C 
ATOM     23  C   UNL     1      34.581 -19.628 -20.562  0.00  0.00    +0.092 C 
ATOM     24  C   UNL     1      33.928 -20.742 -20.033  0.00  0.00    +0.160 C 
ATOM     25  C   UNL     1      35.950 -21.377 -18.874  0.00  0.00    +0.145 C 
ATOM     26  C   UNL     1      35.919 -19.389 -20.246  0.00  0.00    +0.020 C 
ATOM     27  C   UNL     1      36.603 -20.264 -19.402  0.00  0.00    +0.031 C 
BRANCH  23  28
ATOM     28  N   UNL     1      33.882 -18.731 -21.426  0.00  0.00    -0.217 N 
ATOM     29  H   UNL     1      33.193 -18.123 -21.072  0.00  0.00    +0.173 HD
BRANCH  28  30
ATOM     30  S   UNL     1      34.281 -18.741 -23.101  0.00  0.00    +0.054 S 
ATOM     31  O   UNL     1      35.256 -19.791 -23.335  0.00  0.00    -0.154 OA
ATOM     32  O   UNL     1      33.088 -18.648 -23.918  0.00  0.00    -0.154 OA
BRANCH  30  33
ATOM     33  C   UNL     1      35.149 -17.194 -23.226  0.00  0.00    +0.172 C 
BRANCH  33  34
ATOM     34  C   UNL     1      34.769 -16.446 -24.493  0.00  0.00    +0.027 C 
ATOM     35  C   UNL     1      33.930 -15.218 -24.185  0.00  0.00    +0.002 C 
ENDBRANCH  33  34
ENDBRANCH  30  33
ENDBRANCH  28  30
ENDBRANCH  23  28
ENDBRANCH   2  22
TORSDOF 7
ENDMDL
