MODEL 1
REMARK VINA RESULT:     -13.3      0.000      0.000
REMARK  Name = 4369496
REMARK  6 active torsions:
REMARK  status: ('A' for Active; 'I' for Inactive)
REMARK    1  A    between atoms: N_2  and  C_21
REMARK    2  A    between atoms: C_3  and  C_10
REMARK    3  A    between atoms: C_5  and  C_11
REMARK    4  A    between atoms: C_11  and  N_12
REMARK    5  A    between atoms: C_23  and  N_27
REMARK    6  A    between atoms: C_31  and  C_36
REMARK                            x       y       z     vdW  Elec       q    Type
REMARK                         _______ _______ _______ _____ _____    ______ ____
ROOT
ATOM      1  O   UNL     1      35.171 -19.775 -23.153  0.00  0.00    -0.270 OA
ATOM      2  N   UNL     1      34.460 -18.886 -21.102  0.00  0.00    -0.280 N 
ATOM      3  C   UNL     1      34.752 -18.826 -22.472  0.00  0.00    +0.249 C 
ATOM      4  H   UNL     1      34.136 -18.050 -20.698  0.00  0.00    +0.155 HD
ENDROOT
BRANCH   3  10
ATOM      5  C   UNL     1      34.201 -15.057 -24.311  0.00  0.00    -0.043 C 
ATOM      6  C   UNL     1      34.826 -15.129 -23.075  0.00  0.00    -0.006 C 
ATOM      7  C   UNL     1      33.753 -16.203 -24.954  0.00  0.00    -0.006 C 
ATOM      8  C   UNL     1      35.009 -16.372 -22.469  0.00  0.00    +0.004 C 
ATOM      9  C   UNL     1      33.936 -17.446 -24.348  0.00  0.00    +0.004 C 
ATOM     10  C   UNL     1      34.564 -17.531 -23.105  0.00  0.00    +0.054 C 
BRANCH   5  11
ATOM     11  C   UNL     1      34.004 -13.716 -24.967  0.00  0.00    -0.050 C 
BRANCH  11  12
ATOM     12  N   UNL     1      33.951 -12.633 -23.986  0.00  0.00    +0.387 N 
ATOM     13  N   UNL     1      32.740 -10.294 -22.794  0.00  0.00    +0.383 N 
ATOM     14  C   UNL     1      32.744 -12.739 -23.159  0.00  0.00    -0.100 C 
ATOM     15  C   UNL     1      34.004 -11.325 -24.650  0.00  0.00    -0.100 C 
ATOM     16  C   UNL     1      32.686 -11.603 -22.131  0.00  0.00    -0.101 C 
ATOM     17  C   UNL     1      33.947 -10.189 -23.624  0.00  0.00    -0.101 C 
ATOM     18  C   UNL     1      32.688  -9.213 -21.813  0.00  0.00    -0.101 C 
ATOM     19  H   UNL     1      34.765 -12.719 -23.379  0.00  0.00    -0.079 HD
ATOM     20  H   UNL     1      31.924 -10.208 -23.401  0.00  0.00    -0.080 HD
ENDBRANCH  11  12
ENDBRANCH   5  11
ENDBRANCH   3  10
BRANCH   2  21
ATOM     21  C   UNL     1      34.570 -19.992 -20.225  0.00  0.00    +0.052 C 
ATOM     22  C   UNL     1      33.426 -20.507 -19.639  0.00  0.00    +0.030 C 
ATOM     23  C   UNL     1      33.535 -21.596 -18.773  0.00  0.00    +0.059 C 
ATOM     24  C   UNL     1      35.819 -20.533 -19.972  0.00  0.00    +0.015 C 
ATOM     25  C   UNL     1      34.786 -22.153 -18.507  0.00  0.00    +0.015 C 
ATOM     26  C   UNL     1      35.928 -21.622 -19.107  0.00  0.00    +0.003 C 
BRANCH  23  27
ATOM     27  N   UNL     1      32.380 -22.135 -18.168  0.00  0.00    -0.247 N 
ATOM     28  N   UNL     1      33.209 -22.820 -16.083  0.00  0.00    -0.337 NA
ATOM     29  N   UNL     1      30.892 -23.142 -16.661  0.00  0.00    -0.170 NA
ATOM     30  C   UNL     1      32.150 -22.727 -16.912  0.00  0.00    +0.149 C 
ATOM     31  C   UNL     1      32.952 -23.393 -14.888  0.00  0.00    +0.147 C 
ATOM     32  C   UNL     1      31.708 -23.857 -14.513  0.00  0.00    +0.055 C 
ATOM     33  C   UNL     1      30.706 -23.704 -15.448  0.00  0.00    +0.114 C 
ATOM     34  H   UNL     1      31.578 -22.088 -18.737  0.00  0.00    +0.165 HD
BRANCH  31  36
ATOM     35  N   UNL     1      34.976 -24.164 -11.855  0.00  0.00    -0.242 NA
ATOM     36  C   UNL     1      34.085 -23.492 -14.000  0.00  0.00    +0.050 C 
ATOM     37  C   UNL     1      35.343 -23.040 -14.388  0.00  0.00    +0.006 C 
ATOM     38  C   UNL     1      33.956 -24.041 -12.734  0.00  0.00    +0.101 C 
ATOM     39  C   UNL     1      36.416 -23.150 -13.510  0.00  0.00    +0.021 C 
ATOM     40  C   UNL     1      36.181 -23.714 -12.267  0.00  0.00    +0.099 C 
ENDBRANCH  31  36
ENDBRANCH  23  27
ENDBRANCH   2  21
TORSDOF 6
ENDMDL
MODEL 2
REMARK VINA RESULT:     -13.2      1.121      1.530
REMARK  Name = 4369496
REMARK  6 active torsions:
REMARK  status: ('A' for Active; 'I' for Inactive)
REMARK    1  A    between atoms: N_2  and  C_21
REMARK    2  A    between atoms: C_3  and  C_10
REMARK    3  A    between atoms: C_5  and  C_11
REMARK    4  A    between atoms: C_11  and  N_12
REMARK    5  A    between atoms: C_23  and  N_27
REMARK    6  A    between atoms: C_31  and  C_36
REMARK                            x       y       z     vdW  Elec       q    Type
REMARK                         _______ _______ _______ _____ _____    ______ ____
ROOT
ATOM      1  O   UNL     1      36.420 -17.846 -20.149  0.00  0.00    -0.270 OA
ATOM      2  N   UNL     1      34.429 -18.903 -20.800  0.00  0.00    -0.280 N 
ATOM      3  C   UNL     1      35.373 -17.866 -20.816  0.00  0.00    +0.249 C 
ATOM      4  H   UNL     1      33.647 -18.777 -21.384  0.00  0.00    +0.155 HD
ENDROOT
BRANCH   3  10
ATOM      5  C   UNL     1      34.458 -14.570 -23.304  0.00  0.00    -0.043 C 
ATOM      6  C   UNL     1      34.600 -15.831 -23.865  0.00  0.00    -0.006 C 
ATOM      7  C   UNL     1      34.612 -14.373 -21.939  0.00  0.00    -0.006 C 
ATOM      8  C   UNL     1      34.901 -16.918 -23.044  0.00  0.00    +0.004 C 
ATOM      9  C   UNL     1      34.912 -15.461 -21.118  0.00  0.00    +0.004 C 
ATOM     10  C   UNL     1      35.057 -16.733 -21.671  0.00  0.00    +0.054 C 
BRANCH   5  11
ATOM     11  C   UNL     1      34.132 -13.396 -24.189  0.00  0.00    -0.050 C 
BRANCH  11  12
ATOM     12  N   UNL     1      34.047 -12.150 -23.430  0.00  0.00    +0.387 N 
ATOM     13  N   UNL     1      32.938  -9.536 -22.885  0.00  0.00    +0.383 N 
ATOM     14  C   UNL     1      32.719 -11.997 -22.825  0.00  0.00    -0.100 C 
ATOM     15  C   UNL     1      34.356 -10.997 -24.285  0.00  0.00    -0.100 C 
ATOM     16  C   UNL     1      32.628 -10.690 -22.031  0.00  0.00    -0.101 C 
ATOM     17  C   UNL     1      34.267  -9.689 -23.492  0.00  0.00    -0.101 C 
ATOM     18  C   UNL     1      32.855  -8.291 -22.125  0.00  0.00    -0.101 C 
ATOM     19  H   UNL     1      34.738 -12.189 -22.682  0.00  0.00    -0.079 HD
ATOM     20  H   UNL     1      32.246  -9.495 -23.634  0.00  0.00    -0.080 HD
ENDBRANCH  11  12
ENDBRANCH   5  11
ENDBRANCH   3  10
BRANCH   2  21
ATOM     21  C   UNL     1      34.454 -20.107 -20.054  0.00  0.00    +0.052 C 
ATOM     22  C   UNL     1      33.314 -20.506 -19.378  0.00  0.00    +0.030 C 
ATOM     23  C   UNL     1      33.339 -21.692 -18.641  0.00  0.00    +0.059 C 
ATOM     24  C   UNL     1      35.618 -20.856 -20.019  0.00  0.00    +0.015 C 
ATOM     25  C   UNL     1      34.503 -22.459 -18.595  0.00  0.00    +0.015 C 
ATOM     26  C   UNL     1      35.642 -22.041 -19.284  0.00  0.00    +0.003 C 
BRANCH  23  27
ATOM     27  N   UNL     1      32.187 -22.115 -17.947  0.00  0.00    -0.247 N 
ATOM     28  N   UNL     1      33.117 -23.058 -16.009  0.00  0.00    -0.337 NA
ATOM     29  N   UNL     1      30.731 -23.024 -16.348  0.00  0.00    -0.170 NA
ATOM     30  C   UNL     1      32.004 -22.763 -16.710  0.00  0.00    +0.149 C 
ATOM     31  C   UNL     1      32.903 -23.677 -14.830  0.00  0.00    +0.147 C 
ATOM     32  C   UNL     1      31.651 -23.998 -14.349  0.00  0.00    +0.055 C 
ATOM     33  C   UNL     1      30.591 -23.645 -15.158  0.00  0.00    +0.114 C 
ATOM     34  H   UNL     1      31.346 -21.920 -18.421  0.00  0.00    +0.165 HD
BRANCH  31  36
ATOM     35  N   UNL     1      36.438 -24.591 -14.078  0.00  0.00    -0.242 NA
ATOM     36  C   UNL     1      34.095 -23.992 -14.079  0.00  0.00    +0.050 C 
ATOM     37  C   UNL     1      34.084 -24.008 -12.688  0.00  0.00    +0.006 C 
ATOM     38  C   UNL     1      35.287 -24.289 -14.720  0.00  0.00    +0.101 C 
ATOM     39  C   UNL     1      35.248 -24.316 -11.993  0.00  0.00    +0.021 C 
ATOM     40  C   UNL     1      36.388 -24.597 -12.728  0.00  0.00    +0.099 C 
ENDBRANCH  31  36
ENDBRANCH  23  27
ENDBRANCH   2  21
TORSDOF 6
ENDMDL
MODEL 3
REMARK VINA RESULT:     -12.4      2.679      5.919
REMARK  Name = 4369496
REMARK  6 active torsions:
REMARK  status: ('A' for Active; 'I' for Inactive)
REMARK    1  A    between atoms: N_2  and  C_21
REMARK    2  A    between atoms: C_3  and  C_10
REMARK    3  A    between atoms: C_5  and  C_11
REMARK    4  A    between atoms: C_11  and  N_12
REMARK    5  A    between atoms: C_23  and  N_27
REMARK    6  A    between atoms: C_31  and  C_36
REMARK                            x       y       z     vdW  Elec       q    Type
REMARK                         _______ _______ _______ _____ _____    ______ ____
ROOT
ATOM      1  O   UNL     1      33.766 -23.770 -18.548  0.00  0.00    -0.270 OA
ATOM      2  N   UNL     1      33.428 -22.203 -16.835  0.00  0.00    -0.280 N 
ATOM      3  C   UNL     1      33.853 -22.613 -18.107  0.00  0.00    +0.249 C 
ATOM      4  H   UNL     1      33.563 -21.251 -16.626  0.00  0.00    +0.155 HD
ENDROOT
BRANCH   3  10
ATOM      5  C   UNL     1      35.617 -19.622 -20.522  0.00  0.00    -0.043 C 
ATOM      6  C   UNL     1      34.235 -19.725 -20.462  0.00  0.00    -0.006 C 
ATOM      7  C   UNL     1      36.430 -20.485 -19.801  0.00  0.00    -0.006 C 
ATOM      8  C   UNL     1      33.653 -20.710 -19.665  0.00  0.00    +0.004 C 
ATOM      9  C   UNL     1      35.848 -21.471 -19.004  0.00  0.00    +0.004 C 
ATOM     10  C   UNL     1      34.460 -21.584 -18.936  0.00  0.00    +0.054 C 
BRANCH   5  11
ATOM     11  C   UNL     1      36.246 -18.557 -21.381  0.00  0.00    -0.050 C 
BRANCH  11  12
ATOM     12  N   UNL     1      35.247 -17.824 -22.156  0.00  0.00    +0.387 N 
ATOM     13  N   UNL     1      34.414 -16.175 -24.381  0.00  0.00    +0.383 N 
ATOM     14  C   UNL     1      35.132 -18.375 -23.512  0.00  0.00    -0.100 C 
ATOM     15  C   UNL     1      35.576 -16.395 -22.211  0.00  0.00    -0.100 C 
ATOM     16  C   UNL     1      34.087 -17.605 -24.327  0.00  0.00    -0.101 C 
ATOM     17  C   UNL     1      34.531 -15.624 -23.025  0.00  0.00    -0.101 C 
ATOM     18  C   UNL     1      33.415 -15.443 -25.155  0.00  0.00    -0.101 C 
ATOM     19  H   UNL     1      34.347 -17.929 -21.690  0.00  0.00    -0.079 HD
ATOM     20  H   UNL     1      35.315 -16.070 -24.850  0.00  0.00    -0.080 HD
ENDBRANCH  11  12
ENDBRANCH   5  11
ENDBRANCH   3  10
BRANCH   2  21
ATOM     21  C   UNL     1      32.831 -22.979 -15.811  0.00  0.00    +0.052 C 
ATOM     22  C   UNL     1      33.407 -22.996 -14.553  0.00  0.00    +0.030 C 
ATOM     23  C   UNL     1      32.820 -23.763 -13.545  0.00  0.00    +0.059 C 
ATOM     24  C   UNL     1      31.685 -23.703 -16.094  0.00  0.00    +0.015 C 
ATOM     25  C   UNL     1      31.665 -24.498 -13.813  0.00  0.00    +0.015 C 
ATOM     26  C   UNL     1      31.098 -24.468 -15.086  0.00  0.00    +0.003 C 
BRANCH  23  27
ATOM     27  N   UNL     1      33.392 -23.791 -12.256  0.00  0.00    -0.247 N 
ATOM     28  N   UNL     1      35.661 -24.134 -12.750  0.00  0.00    -0.337 NA
ATOM     29  N   UNL     1      34.905 -23.936 -10.470  0.00  0.00    -0.170 NA
ATOM     30  C   UNL     1      34.715 -23.962 -11.805  0.00  0.00    +0.149 C 
ATOM     31  C   UNL     1      36.915 -24.295 -12.281  0.00  0.00    +0.147 C 
ATOM     32  C   UNL     1      37.239 -24.287 -10.940  0.00  0.00    +0.055 C 
ATOM     33  C   UNL     1      36.184 -24.103 -10.071  0.00  0.00    +0.114 C 
ATOM     34  H   UNL     1      32.738 -23.668 -11.531  0.00  0.00    +0.165 HD
BRANCH  31  36
ATOM     35  N   UNL     1      38.908 -23.772 -15.387  0.00  0.00    -0.242 NA
ATOM     36  C   UNL     1      37.928 -24.478 -13.292  0.00  0.00    +0.050 C 
ATOM     37  C   UNL     1      38.879 -25.488 -13.181  0.00  0.00    +0.006 C 
ATOM     38  C   UNL     1      37.986 -23.655 -14.405  0.00  0.00    +0.101 C 
ATOM     39  C   UNL     1      39.843 -25.640 -14.172  0.00  0.00    +0.021 C 
ATOM     40  C   UNL     1      39.814 -24.764 -15.244  0.00  0.00    +0.099 C 
ENDBRANCH  31  36
ENDBRANCH  23  27
ENDBRANCH   2  21
TORSDOF 6
ENDMDL
MODEL 4
REMARK VINA RESULT:     -12.4      2.255      5.494
REMARK  Name = 4369496
REMARK  6 active torsions:
REMARK  status: ('A' for Active; 'I' for Inactive)
REMARK    1  A    between atoms: N_2  and  C_21
REMARK    2  A    between atoms: C_3  and  C_10
REMARK    3  A    between atoms: C_5  and  C_11
REMARK    4  A    between atoms: C_11  and  N_12
REMARK    5  A    between atoms: C_23  and  N_27
REMARK    6  A    between atoms: C_31  and  C_36
REMARK                            x       y       z     vdW  Elec       q    Type
REMARK                         _______ _______ _______ _____ _____    ______ ____
ROOT
ATOM      1  O   UNL     1      34.176 -23.442 -17.539  0.00  0.00    -0.270 OA
ATOM      2  N   UNL     1      32.251 -22.127 -17.273  0.00  0.00    -0.280 N 
ATOM      3  C   UNL     1      33.473 -22.472 -17.868  0.00  0.00    +0.249 C 
ATOM      4  H   UNL     1      31.808 -21.329 -17.641  0.00  0.00    +0.155 HD
ENDROOT
BRANCH   3  10
ATOM      5  C   UNL     1      34.817 -19.908 -20.951  0.00  0.00    -0.043 C 
ATOM      6  C   UNL     1      35.741 -20.645 -20.224  0.00  0.00    -0.006 C 
ATOM      7  C   UNL     1      33.459 -19.999 -20.682  0.00  0.00    -0.006 C 
ATOM      8  C   UNL     1      35.298 -21.492 -19.208  0.00  0.00    +0.004 C 
ATOM      9  C   UNL     1      33.016 -20.846 -19.666  0.00  0.00    +0.004 C 
ATOM     10  C   UNL     1      33.935 -21.592 -18.928  0.00  0.00    +0.054 C 
BRANCH   5  11
ATOM     11  C   UNL     1      35.295 -18.995 -22.049  0.00  0.00    -0.050 C 
BRANCH  11  12
ATOM     12  N   UNL     1      34.748 -17.647 -21.912  0.00  0.00    +0.387 N 
ATOM     13  N   UNL     1      34.981 -14.765 -21.860  0.00  0.00    +0.383 N 
ATOM     14  C   UNL     1      34.947 -16.876 -23.145  0.00  0.00    -0.100 C 
ATOM     15  C   UNL     1      35.355 -16.952 -20.771  0.00  0.00    -0.100 C 
ATOM     16  C   UNL     1      34.376 -15.461 -23.002  0.00  0.00    -0.101 C 
ATOM     17  C   UNL     1      34.784 -15.537 -20.626  0.00  0.00    -0.101 C 
ATOM     18  C   UNL     1      34.433 -13.418 -21.723  0.00  0.00    -0.101 C 
ATOM     19  H   UNL     1      33.746 -17.729 -21.743  0.00  0.00    -0.079 HD
ATOM     20  H   UNL     1      35.984 -14.681 -22.030  0.00  0.00    -0.080 HD
ENDBRANCH  11  12
ENDBRANCH   5  11
ENDBRANCH   3  10
BRANCH   2  21
ATOM     21  C   UNL     1      31.572 -22.775 -16.213  0.00  0.00    +0.052 C 
ATOM     22  C   UNL     1      32.287 -23.185 -15.101  0.00  0.00    +0.030 C 
ATOM     23  C   UNL     1      31.617 -23.825 -14.058  0.00  0.00    +0.059 C 
ATOM     24  C   UNL     1      30.207 -22.984 -16.314  0.00  0.00    +0.015 C 
ATOM     25  C   UNL     1      30.242 -24.044 -14.142  0.00  0.00    +0.015 C 
ATOM     26  C   UNL     1      29.537 -23.624 -15.270  0.00  0.00    +0.003 C 
BRANCH  23  27
ATOM     27  N   UNL     1      32.331 -24.248 -12.916  0.00  0.00    -0.247 N 
ATOM     28  N   UNL     1      34.548 -23.820 -13.554  0.00  0.00    -0.337 NA
ATOM     29  N   UNL     1      34.040 -24.760 -11.394  0.00  0.00    -0.170 NA
ATOM     30  C   UNL     1      33.704 -24.277 -12.607  0.00  0.00    +0.149 C 
ATOM     31  C   UNL     1      35.856 -23.863 -13.224  0.00  0.00    +0.147 C 
ATOM     32  C   UNL     1      36.326 -24.333 -12.015  0.00  0.00    +0.055 C 
ATOM     33  C   UNL     1      35.364 -24.774 -11.130  0.00  0.00    +0.114 C 
ATOM     34  H   UNL     1      31.755 -24.590 -12.195  0.00  0.00    +0.165 HD
BRANCH  31  36
ATOM     35  N   UNL     1      38.922 -23.499 -15.311  0.00  0.00    -0.242 NA
ATOM     36  C   UNL     1      36.759 -23.373 -14.236  0.00  0.00    +0.050 C 
ATOM     37  C   UNL     1      36.385 -22.345 -15.096  0.00  0.00    +0.006 C 
ATOM     38  C   UNL     1      38.028 -23.911 -14.384  0.00  0.00    +0.101 C 
ATOM     39  C   UNL     1      37.278 -21.894 -16.062  0.00  0.00    +0.021 C 
ATOM     40  C   UNL     1      38.522 -22.499 -16.127  0.00  0.00    +0.099 C 
ENDBRANCH  31  36
ENDBRANCH  23  27
ENDBRANCH   2  21
TORSDOF 6
ENDMDL
MODEL 5
REMARK VINA RESULT:     -12.0      2.954     13.824
REMARK  Name = 4369496
REMARK  6 active torsions:
REMARK  status: ('A' for Active; 'I' for Inactive)
REMARK    1  A    between atoms: N_2  and  C_21
REMARK    2  A    between atoms: C_3  and  C_10
REMARK    3  A    between atoms: C_5  and  C_11
REMARK    4  A    between atoms: C_11  and  N_12
REMARK    5  A    between atoms: C_23  and  N_27
REMARK    6  A    between atoms: C_31  and  C_36
REMARK                            x       y       z     vdW  Elec       q    Type
REMARK                         _______ _______ _______ _____ _____    ______ ____
ROOT
ATOM      1  O   UNL     1      33.523 -15.384 -24.206  0.00  0.00    -0.270 OA
ATOM      2  N   UNL     1      34.522 -13.858 -22.731  0.00  0.00    -0.280 N 
ATOM      3  C   UNL     1      34.252 -15.140 -23.231  0.00  0.00    +0.249 C 
ATOM      4  H   UNL     1      35.120 -13.822 -21.951  0.00  0.00    +0.155 HD
ENDROOT
BRANCH   3  10
ATOM      5  C   UNL     1      36.049 -18.351 -21.146  0.00  0.00    -0.043 C 
ATOM      6  C   UNL     1      35.633 -17.228 -20.445  0.00  0.00    -0.006 C 
ATOM      7  C   UNL     1      35.885 -18.436 -22.522  0.00  0.00    -0.006 C 
ATOM      8  C   UNL     1      35.039 -16.170 -21.132  0.00  0.00    +0.004 C 
ATOM      9  C   UNL     1      35.291 -17.378 -23.209  0.00  0.00    +0.004 C 
ATOM     10  C   UNL     1      34.869 -16.244 -22.515  0.00  0.00    +0.054 C 
BRANCH   5  11
ATOM     11  C   UNL     1      36.689 -19.495 -20.405  0.00  0.00    -0.050 C 
BRANCH  11  12
ATOM     12  N   UNL     1      35.766 -20.110 -19.453  0.00  0.00    +0.387 N 
ATOM     13  N   UNL     1      34.171 -22.309 -18.465  0.00  0.00    +0.383 N 
ATOM     14  C   UNL     1      36.387 -21.267 -18.798  0.00  0.00    -0.100 C 
ATOM     15  C   UNL     1      34.519 -20.505 -20.118  0.00  0.00    -0.100 C 
ATOM     16  C   UNL     1      35.419 -21.914 -17.801  0.00  0.00    -0.101 C 
ATOM     17  C   UNL     1      33.550 -21.152 -19.121  0.00  0.00    -0.101 C 
ATOM     18  C   UNL     1      33.248 -22.923 -17.512  0.00  0.00    -0.101 C 
ATOM     19  H   UNL     1      35.544 -19.418 -18.738  0.00  0.00    -0.079 HD
ATOM     20  H   UNL     1      34.392 -23.003 -19.180  0.00  0.00    -0.080 HD
ENDBRANCH  11  12
ENDBRANCH   5  11
ENDBRANCH   3  10
BRANCH   2  21
ATOM     21  C   UNL     1      34.048 -12.609 -23.202  0.00  0.00    +0.052 C 
ATOM     22  C   UNL     1      33.435 -11.741 -22.314  0.00  0.00    +0.030 C 
ATOM     23  C   UNL     1      32.965 -10.512 -22.778  0.00  0.00    +0.059 C 
ATOM     24  C   UNL     1      34.207 -12.286 -24.538  0.00  0.00    +0.015 C 
ATOM     25  C   UNL     1      33.118 -10.169 -24.122  0.00  0.00    +0.015 C 
ATOM     26  C   UNL     1      33.739 -11.056 -25.002  0.00  0.00    +0.003 C 
BRANCH  23  27
ATOM     27  N   UNL     1      32.339  -9.614 -21.888  0.00  0.00    -0.247 N 
ATOM     28  N   UNL     1      32.680  -7.558 -22.965  0.00  0.00    -0.337 NA
ATOM     29  N   UNL     1      31.504  -7.675 -20.866  0.00  0.00    -0.170 NA
ATOM     30  C   UNL     1      32.167  -8.217 -21.908  0.00  0.00    +0.149 C 
ATOM     31  C   UNL     1      32.496  -6.221 -22.951  0.00  0.00    +0.147 C 
ATOM     32  C   UNL     1      31.835  -5.549 -21.944  0.00  0.00    +0.055 C 
ATOM     33  C   UNL     1      31.356  -6.335 -20.916  0.00  0.00    +0.114 C 
ATOM     34  H   UNL     1      31.947 -10.051 -21.097  0.00  0.00    +0.165 HD
BRANCH  31  36
ATOM     35  N   UNL     1      32.672  -4.160 -26.052  0.00  0.00    -0.242 NA
ATOM     36  C   UNL     1      33.045  -5.515 -24.084  0.00  0.00    +0.050 C 
ATOM     37  C   UNL     1      34.416  -5.490 -24.318  0.00  0.00    +0.006 C 
ATOM     38  C   UNL     1      32.224  -4.840 -24.973  0.00  0.00    +0.101 C 
ATOM     39  C   UNL     1      34.915  -4.801 -25.418  0.00  0.00    +0.021 C 
ATOM     40  C   UNL     1      34.010  -4.158 -26.246  0.00  0.00    +0.099 C 
ENDBRANCH  31  36
ENDBRANCH  23  27
ENDBRANCH   2  21
TORSDOF 6
ENDMDL
MODEL 6
REMARK VINA RESULT:     -11.8      1.678      2.464
REMARK  Name = 4369496
REMARK  6 active torsions:
REMARK  status: ('A' for Active; 'I' for Inactive)
REMARK    1  A    between atoms: N_2  and  C_21
REMARK    2  A    between atoms: C_3  and  C_10
REMARK    3  A    between atoms: C_5  and  C_11
REMARK    4  A    between atoms: C_11  and  N_12
REMARK    5  A    between atoms: C_23  and  N_27
REMARK    6  A    between atoms: C_31  and  C_36
REMARK                            x       y       z     vdW  Elec       q    Type
REMARK                         _______ _______ _______ _____ _____    ______ ____
ROOT
ATOM      1  O   UNL     1      34.678 -17.531 -23.843  0.00  0.00    -0.270 OA
ATOM      2  N   UNL     1      34.854 -16.983 -21.569  0.00  0.00    -0.280 N 
ATOM      3  C   UNL     1      34.638 -16.697 -22.924  0.00  0.00    +0.249 C 
ATOM      4  H   UNL     1      34.789 -16.216 -20.955  0.00  0.00    +0.155 HD
ENDROOT
BRANCH   3  10
ATOM      5  C   UNL     1      33.865 -12.644 -23.855  0.00  0.00    -0.043 C 
ATOM      6  C   UNL     1      34.500 -12.962 -22.664  0.00  0.00    -0.006 C 
ATOM      7  C   UNL     1      33.480 -13.635 -24.747  0.00  0.00    -0.006 C 
ATOM      8  C   UNL     1      34.756 -14.299 -22.357  0.00  0.00    +0.004 C 
ATOM      9  C   UNL     1      33.735 -14.972 -24.440  0.00  0.00    +0.004 C 
ATOM     10  C   UNL     1      34.373 -15.304 -23.245  0.00  0.00    +0.054 C 
BRANCH   5  11
ATOM     11  C   UNL     1      33.590 -11.201 -24.188  0.00  0.00    -0.050 C 
BRANCH  11  12
ATOM     12  N   UNL     1      33.418 -10.389 -22.985  0.00  0.00    +0.387 N 
ATOM     13  N   UNL     1      32.106  -8.334 -21.431  0.00  0.00    +0.383 N 
ATOM     14  C   UNL     1      32.093 -10.611 -22.393  0.00  0.00    -0.100 C 
ATOM     15  C   UNL     1      33.613  -8.966 -23.285  0.00  0.00    -0.100 C 
ATOM     16  C   UNL     1      31.910  -9.758 -21.133  0.00  0.00    -0.101 C 
ATOM     17  C   UNL     1      33.431  -8.112 -22.025  0.00  0.00    -0.101 C 
ATOM     18  C   UNL     1      31.935  -7.523 -20.228  0.00  0.00    -0.101 C 
ATOM     19  H   UNL     1      34.124 -10.675 -22.308  0.00  0.00    -0.079 HD
ATOM     20  H   UNL     1      31.398  -8.047 -22.108  0.00  0.00    -0.080 HD
ENDBRANCH  11  12
ENDBRANCH   5  11
ENDBRANCH   3  10
BRANCH   2  21
ATOM     21  C   UNL     1      35.154 -18.229 -20.967  0.00  0.00    +0.052 C 
ATOM     22  C   UNL     1      34.129 -18.977 -20.413  0.00  0.00    +0.030 C 
ATOM     23  C   UNL     1      34.425 -20.204 -19.818  0.00  0.00    +0.059 C 
ATOM     24  C   UNL     1      36.466 -18.671 -20.946  0.00  0.00    +0.015 C 
ATOM     25  C   UNL     1      35.741 -20.664 -19.788  0.00  0.00    +0.015 C 
ATOM     26  C   UNL     1      36.762 -19.898 -20.352  0.00  0.00    +0.003 C 
BRANCH  23  27
ATOM     27  N   UNL     1      33.393 -20.979 -19.250  0.00  0.00    -0.247 N 
ATOM     28  N   UNL     1      34.520 -22.067 -17.502  0.00  0.00    -0.337 NA
ATOM     29  N   UNL     1      32.175 -22.458 -17.895  0.00  0.00    -0.170 NA
ATOM     30  C   UNL     1      33.362 -21.877 -18.165  0.00  0.00    +0.149 C 
ATOM     31  C   UNL     1      34.453 -22.932 -16.469  0.00  0.00    +0.147 C 
ATOM     32  C   UNL     1      33.299 -23.589 -16.093  0.00  0.00    +0.055 C 
ATOM     33  C   UNL     1      32.180 -23.311 -16.850  0.00  0.00    +0.114 C 
ATOM     34  H   UNL     1      32.524 -20.873 -19.701  0.00  0.00    +0.165 HD
BRANCH  31  36
ATOM     35  N   UNL     1      38.007 -22.519 -15.425  0.00  0.00    -0.242 NA
ATOM     36  C   UNL     1      35.692 -23.135 -15.759  0.00  0.00    +0.050 C 
ATOM     37  C   UNL     1      35.797 -24.095 -14.757  0.00  0.00    +0.006 C 
ATOM     38  C   UNL     1      36.817 -22.381 -16.052  0.00  0.00    +0.101 C 
ATOM     39  C   UNL     1      37.005 -24.267 -14.090  0.00  0.00    +0.021 C 
ATOM     40  C   UNL     1      38.070 -23.461 -14.458  0.00  0.00    +0.099 C 
ENDBRANCH  31  36
ENDBRANCH  23  27
ENDBRANCH   2  21
TORSDOF 6
ENDMDL
MODEL 7
REMARK VINA RESULT:     -11.5      1.372      2.753
REMARK  Name = 4369496
REMARK  6 active torsions:
REMARK  status: ('A' for Active; 'I' for Inactive)
REMARK    1  A    between atoms: N_2  and  C_21
REMARK    2  A    between atoms: C_3  and  C_10
REMARK    3  A    between atoms: C_5  and  C_11
REMARK    4  A    between atoms: C_11  and  N_12
REMARK    5  A    between atoms: C_23  and  N_27
REMARK    6  A    between atoms: C_31  and  C_36
REMARK                            x       y       z     vdW  Elec       q    Type
REMARK                         _______ _______ _______ _____ _____    ______ ____
ROOT
ATOM      1  O   UNL     1      35.003 -19.542 -23.247  0.00  0.00    -0.270 OA
ATOM      2  N   UNL     1      34.215 -18.674 -21.215  0.00  0.00    -0.280 N 
ATOM      3  C   UNL     1      34.603 -18.589 -22.560  0.00  0.00    +0.249 C 
ATOM      4  H   UNL     1      33.919 -17.832 -20.802  0.00  0.00    +0.155 HD
ENDROOT
BRANCH   3  10
ATOM      5  C   UNL     1      34.431 -14.735 -24.294  0.00  0.00    -0.043 C 
ATOM      6  C   UNL     1      33.991 -15.831 -25.021  0.00  0.00    -0.006 C 
ATOM      7  C   UNL     1      34.928 -14.883 -23.006  0.00  0.00    -0.006 C 
ATOM      8  C   UNL     1      34.046 -17.102 -24.449  0.00  0.00    +0.004 C 
ATOM      9  C   UNL     1      34.983 -16.154 -22.434  0.00  0.00    +0.004 C 
ATOM     10  C   UNL     1      34.543 -17.264 -23.155  0.00  0.00    +0.054 C 
BRANCH   5  11
ATOM     11  C   UNL     1      34.370 -13.362 -24.910  0.00  0.00    -0.050 C 
BRANCH  11  12
ATOM     12  N   UNL     1      34.163 -12.322 -23.904  0.00  0.00    +0.387 N 
ATOM     13  N   UNL     1      32.713 -10.099 -22.757  0.00  0.00    +0.383 N 
ATOM     14  C   UNL     1      32.891 -12.524 -23.200  0.00  0.00    -0.100 C 
ATOM     15  C   UNL     1      34.203 -10.989 -24.516  0.00  0.00    -0.100 C 
ATOM     16  C   UNL     1      32.672 -11.434 -22.146  0.00  0.00    -0.101 C 
ATOM     17  C   UNL     1      33.985  -9.897 -23.463  0.00  0.00    -0.101 C 
ATOM     18  C   UNL     1      32.507  -9.061 -21.750  0.00  0.00    -0.101 C 
ATOM     19  H   UNL     1      34.920 -12.387 -23.224  0.00  0.00    -0.079 HD
ATOM     20  H   UNL     1      31.954 -10.034 -23.437  0.00  0.00    -0.080 HD
ENDBRANCH  11  12
ENDBRANCH   5  11
ENDBRANCH   3  10
BRANCH   2  21
ATOM     21  C   UNL     1      34.192 -19.814 -20.374  0.00  0.00    +0.052 C 
ATOM     22  C   UNL     1      35.320 -20.132 -19.637  0.00  0.00    +0.030 C 
ATOM     23  C   UNL     1      35.298 -21.256 -18.810  0.00  0.00    +0.059 C 
ATOM     24  C   UNL     1      33.043 -20.583 -20.310  0.00  0.00    +0.015 C 
ATOM     25  C   UNL     1      34.148 -22.042 -18.732  0.00  0.00    +0.015 C 
ATOM     26  C   UNL     1      33.021 -21.706 -19.482  0.00  0.00    +0.003 C 
BRANCH  23  27
ATOM     27  N   UNL     1      36.437 -21.594 -18.050  0.00  0.00    -0.247 N 
ATOM     28  N   UNL     1      35.470 -22.573 -16.149  0.00  0.00    -0.337 NA
ATOM     29  N   UNL     1      37.863 -22.382 -16.361  0.00  0.00    -0.170 NA
ATOM     30  C   UNL     1      36.597 -22.212 -16.795  0.00  0.00    +0.149 C 
ATOM     31  C   UNL     1      35.661 -23.161 -14.950  0.00  0.00    +0.147 C 
ATOM     32  C   UNL     1      36.904 -23.391 -14.399  0.00  0.00    +0.055 C 
ATOM     33  C   UNL     1      37.980 -22.977 -15.156  0.00  0.00    +0.114 C 
ATOM     34  H   UNL     1      37.287 -21.350 -18.483  0.00  0.00    +0.165 HD
BRANCH  31  36
ATOM     35  N   UNL     1      33.417 -24.586 -12.337  0.00  0.00    -0.242 NA
ATOM     36  C   UNL     1      34.454 -23.549 -14.259  0.00  0.00    +0.050 C 
ATOM     37  C   UNL     1      33.200 -23.283 -14.800  0.00  0.00    +0.006 C 
ATOM     38  C   UNL     1      34.507 -24.197 -13.036  0.00  0.00    +0.101 C 
ATOM     39  C   UNL     1      32.056 -23.668 -14.111  0.00  0.00    +0.021 C 
ATOM     40  C   UNL     1      32.217 -24.311 -12.894  0.00  0.00    +0.099 C 
ENDBRANCH  31  36
ENDBRANCH  23  27
ENDBRANCH   2  21
TORSDOF 6
ENDMDL
MODEL 8
REMARK VINA RESULT:     -11.2      3.683     14.551
REMARK  Name = 4369496
REMARK  6 active torsions:
REMARK  status: ('A' for Active; 'I' for Inactive)
REMARK    1  A    between atoms: N_2  and  C_21
REMARK    2  A    between atoms: C_3  and  C_10
REMARK    3  A    between atoms: C_5  and  C_11
REMARK    4  A    between atoms: C_11  and  N_12
REMARK    5  A    between atoms: C_23  and  N_27
REMARK    6  A    between atoms: C_31  and  C_36
REMARK                            x       y       z     vdW  Elec       q    Type
REMARK                         _______ _______ _______ _____ _____    ______ ____
ROOT
ATOM      1  O   UNL     1      32.833 -13.127 -21.486  0.00  0.00    -0.270 OA
ATOM      2  N   UNL     1      34.575 -12.624 -22.974  0.00  0.00    -0.280 N 
ATOM      3  C   UNL     1      33.861 -13.455 -22.100  0.00  0.00    +0.249 C 
ATOM      4  H   UNL     1      35.373 -13.025 -23.388  0.00  0.00    +0.155 HD
ENDROOT
BRANCH   3  10
ATOM      5  C   UNL     1      35.451 -17.332 -21.520  0.00  0.00    -0.043 C 
ATOM      6  C   UNL     1      35.175 -16.892 -22.807  0.00  0.00    -0.006 C 
ATOM      7  C   UNL     1      35.213 -16.520 -20.420  0.00  0.00    -0.006 C 
ATOM      8  C   UNL     1      34.652 -15.613 -22.998  0.00  0.00    +0.004 C 
ATOM      9  C   UNL     1      34.690 -15.241 -20.612  0.00  0.00    +0.004 C 
ATOM     10  C   UNL     1      34.409 -14.787 -21.900  0.00  0.00    +0.054 C 
BRANCH   5  11
ATOM     11  C   UNL     1      36.018 -18.712 -21.313  0.00  0.00    -0.050 C 
BRANCH  11  12
ATOM     12  N   UNL     1      35.319 -19.433 -20.251  0.00  0.00    +0.387 N 
ATOM     13  N   UNL     1      34.049 -21.777 -19.132  0.00  0.00    +0.383 N 
ATOM     14  C   UNL     1      36.109 -20.582 -19.795  0.00  0.00    -0.100 C 
ATOM     15  C   UNL     1      33.993 -19.869 -20.703  0.00  0.00    -0.100 C 
ATOM     16  C   UNL     1      35.377 -21.340 -18.683  0.00  0.00    -0.101 C 
ATOM     17  C   UNL     1      33.259 -20.627 -19.590  0.00  0.00    -0.101 C 
ATOM     18  C   UNL     1      33.352 -22.496 -18.069  0.00  0.00    -0.101 C 
ATOM     19  H   UNL     1      35.197 -18.795 -19.465  0.00  0.00    -0.079 HD
ATOM     20  H   UNL     1      34.171 -22.417 -19.918  0.00  0.00    -0.080 HD
ENDBRANCH  11  12
ENDBRANCH   5  11
ENDBRANCH   3  10
BRANCH   2  21
ATOM     21  C   UNL     1      34.300 -11.284 -23.340  0.00  0.00    +0.052 C 
ATOM     22  C   UNL     1      33.438 -10.533 -22.559  0.00  0.00    +0.030 C 
ATOM     23  C   UNL     1      33.165  -9.214 -22.920  0.00  0.00    +0.059 C 
ATOM     24  C   UNL     1      34.898 -10.756 -24.471  0.00  0.00    +0.015 C 
ATOM     25  C   UNL     1      33.759  -8.665 -24.057  0.00  0.00    +0.015 C 
ATOM     26  C   UNL     1      34.626  -9.436 -24.832  0.00  0.00    +0.003 C 
BRANCH  23  27
ATOM     27  N   UNL     1      32.290  -8.434 -22.135  0.00  0.00    -0.247 N 
ATOM     28  N   UNL     1      32.185  -6.442 -23.373  0.00  0.00    -0.337 NA
ATOM     29  N   UNL     1      30.952  -6.689 -21.317  0.00  0.00    -0.170 NA
ATOM     30  C   UNL     1      31.786  -7.127 -22.282  0.00  0.00    +0.149 C 
ATOM     31  C   UNL     1      31.683  -5.195 -23.481  0.00  0.00    +0.147 C 
ATOM     32  C   UNL     1      30.822  -4.633 -22.561  0.00  0.00    +0.055 C 
ATOM     33  C   UNL     1      30.488  -5.434 -21.488  0.00  0.00    +0.114 C 
ATOM     34  H   UNL     1      31.970  -8.893 -21.326  0.00  0.00    +0.165 HD
BRANCH  31  36
ATOM     35  N   UNL     1      31.975  -2.456 -25.991  0.00  0.00    -0.242 NA
ATOM     36  C   UNL     1      32.110  -4.462 -24.648  0.00  0.00    +0.050 C 
ATOM     37  C   UNL     1      33.029  -5.005 -25.540  0.00  0.00    +0.006 C 
ATOM     38  C   UNL     1      31.617  -3.195 -24.918  0.00  0.00    +0.101 C 
ATOM     39  C   UNL     1      33.421  -4.274 -26.657  0.00  0.00    +0.021 C 
ATOM     40  C   UNL     1      32.869  -3.016 -26.835  0.00  0.00    +0.099 C 
ENDBRANCH  31  36
ENDBRANCH  23  27
ENDBRANCH   2  21
TORSDOF 6
ENDMDL
MODEL 9
REMARK VINA RESULT:     -10.8      6.095     15.520
REMARK  Name = 4369496
REMARK  6 active torsions:
REMARK  status: ('A' for Active; 'I' for Inactive)
REMARK    1  A    between atoms: N_2  and  C_21
REMARK    2  A    between atoms: C_3  and  C_10
REMARK    3  A    between atoms: C_5  and  C_11
REMARK    4  A    between atoms: C_11  and  N_12
REMARK    5  A    between atoms: C_23  and  N_27
REMARK    6  A    between atoms: C_31  and  C_36
REMARK                            x       y       z     vdW  Elec       q    Type
REMARK                         _______ _______ _______ _____ _____    ______ ____
ROOT
ATOM      1  O   UNL     1      34.437  -9.057 -23.941  0.00  0.00    -0.270 OA
ATOM      2  N   UNL     1      32.738  -9.468 -22.378  0.00  0.00    -0.280 N 
ATOM      3  C   UNL     1      33.632  -9.828 -23.395  0.00  0.00    +0.249 C 
ATOM      4  H   UNL     1      32.159 -10.190 -22.042  0.00  0.00    +0.155 HD
ENDROOT
BRANCH   3  10
ATOM      5  C   UNL     1      33.448 -13.854 -24.679  0.00  0.00    -0.043 C 
ATOM      6  C   UNL     1      33.236 -13.553 -23.341  0.00  0.00    -0.006 C 
ATOM      7  C   UNL     1      33.720 -12.854 -25.602  0.00  0.00    -0.006 C 
ATOM      8  C   UNL     1      33.295 -12.225 -22.918  0.00  0.00    +0.004 C 
ATOM      9  C   UNL     1      33.780 -11.527 -25.179  0.00  0.00    +0.004 C 
ATOM     10  C   UNL     1      33.568 -11.212 -23.837  0.00  0.00    +0.054 C 
BRANCH   5  11
ATOM     11  C   UNL     1      33.382 -15.287 -25.137  0.00  0.00    -0.050 C 
BRANCH  11  12
ATOM     12  N   UNL     1      33.733 -16.217 -24.065  0.00  0.00    +0.387 N 
ATOM     13  N   UNL     1      35.455 -18.174 -22.814  0.00  0.00    +0.383 N 
ATOM     14  C   UNL     1      34.995 -15.825 -23.427  0.00  0.00    -0.100 C 
ATOM     15  C   UNL     1      33.823 -17.590 -24.576  0.00  0.00    -0.100 C 
ATOM     16  C   UNL     1      35.366 -16.800 -22.305  0.00  0.00    -0.101 C 
ATOM     17  C   UNL     1      34.193 -18.567 -23.454  0.00  0.00    -0.101 C 
ATOM     18  C   UNL     1      35.804 -19.104 -21.742  0.00  0.00    -0.101 C 
ATOM     19  H   UNL     1      32.995 -16.183 -23.363  0.00  0.00    -0.079 HD
ATOM     20  H   UNL     1      36.196 -18.210 -23.516  0.00  0.00    -0.080 HD
ENDBRANCH  11  12
ENDBRANCH   5  11
ENDBRANCH   3  10
BRANCH   2  21
ATOM     21  C   UNL     1      32.557  -8.201 -21.770  0.00  0.00    +0.052 C 
ATOM     22  C   UNL     1      31.839  -7.226 -22.440  0.00  0.00    +0.030 C 
ATOM     23  C   UNL     1      31.662  -5.978 -21.842  0.00  0.00    +0.059 C 
ATOM     24  C   UNL     1      33.102  -7.968 -20.519  0.00  0.00    +0.015 C 
ATOM     25  C   UNL     1      32.205  -5.726 -20.582  0.00  0.00    +0.015 C 
ATOM     26  C   UNL     1      32.925  -6.721 -19.920  0.00  0.00    +0.003 C 
BRANCH  23  27
ATOM     27  N   UNL     1      30.933  -4.972 -22.510  0.00  0.00    -0.247 N 
ATOM     28  N   UNL     1      32.483  -4.242 -24.113  0.00  0.00    -0.337 NA
ATOM     29  N   UNL     1      30.291  -3.254 -23.972  0.00  0.00    -0.170 NA
ATOM     30  C   UNL     1      31.251  -4.116 -23.581  0.00  0.00    +0.149 C 
ATOM     31  C   UNL     1      32.754  -3.407 -25.137  0.00  0.00    +0.147 C 
ATOM     32  C   UNL     1      31.856  -2.482 -25.628  0.00  0.00    +0.055 C 
ATOM     33  C   UNL     1      30.628  -2.449 -25.001  0.00  0.00    +0.114 C 
ATOM     34  H   UNL     1      30.023  -4.843 -22.156  0.00  0.00    +0.165 HD
BRANCH  31  36
ATOM     35  N   UNL     1      35.861  -2.590 -27.027  0.00  0.00    -0.242 NA
ATOM     36  C   UNL     1      34.072  -3.543 -25.707  0.00  0.00    +0.050 C 
ATOM     37  C   UNL     1      34.824  -4.697 -25.511  0.00  0.00    +0.006 C 
ATOM     38  C   UNL     1      34.632  -2.528 -26.466  0.00  0.00    +0.101 C 
ATOM     39  C   UNL     1      36.092  -4.799 -26.073  0.00  0.00    +0.021 C 
ATOM     40  C   UNL     1      36.560  -3.727 -26.815  0.00  0.00    +0.099 C 
ENDBRANCH  31  36
ENDBRANCH  23  27
ENDBRANCH   2  21
TORSDOF 6
ENDMDL
