MODEL 1
REMARK VINA RESULT:     -10.5      0.000      0.000
REMARK  Name = 5288679
REMARK  6 active torsions:
REMARK  status: ('A' for Active; 'I' for Inactive)
REMARK    1  A    between atoms: N_3  and  C_24
REMARK    2  A    between atoms: C_4  and  C_8
REMARK    3  A    between atoms: C_5  and  N_14
REMARK    4  A    between atoms: N_14  and  C_16
REMARK    5  A    between atoms: C_21  and  O_22
REMARK    6  A    between atoms: C_24  and  C_25
REMARK                            x       y       z     vdW  Elec       q    Type
REMARK                         _______ _______ _______ _____ _____    ______ ____
ROOT
ATOM      1  O   UNL     1      33.470 -23.483 -13.040  0.00  0.00    -0.269 OA
ATOM      2  O   UNL     1      31.596 -22.527 -17.125  0.00  0.00    -0.268 OA
ATOM      3  N   UNL     1      32.174 -22.892 -14.890  0.00  0.00    -0.217 N 
ATOM      4  C   UNL     1      34.345 -23.489 -15.274  0.00  0.00    +0.072 C 
ATOM      5  C   UNL     1      33.795 -23.207 -16.465  0.00  0.00    +0.107 C 
ATOM      6  C   UNL     1      33.305 -23.293 -14.233  0.00  0.00    +0.257 C 
ATOM      7  C   UNL     1      32.381 -22.827 -16.240  0.00  0.00    +0.269 C 
ENDROOT
BRANCH   4   8
ATOM      8  C   UNL     1      35.725 -23.895 -15.006  0.00  0.00    +0.006 C 
ATOM      9  C   UNL     1      36.778 -22.993 -15.202  0.00  0.00    +0.000 C 
ATOM     10  C   UNL     1      36.008 -25.188 -14.552  0.00  0.00    +0.000 C 
ATOM     11  C   UNL     1      38.094 -23.379 -14.948  0.00  0.00    +0.000 C 
ATOM     12  C   UNL     1      37.324 -25.575 -14.298  0.00  0.00    +0.000 C 
ATOM     13  C   UNL     1      38.367 -24.670 -14.495  0.00  0.00    +0.000 C 
ENDBRANCH   4   8
BRANCH   5  14
ATOM     14  N   UNL     1      34.299 -23.202 -17.722  0.00  0.00    -0.309 N 
ATOM     15  H   UNL     1      34.459 -24.087 -18.121  0.00  0.00    +0.152 HD
BRANCH  14  16
ATOM     16  C   UNL     1      34.626 -22.100 -18.533  0.00  0.00    +0.049 C 
ATOM     17  C   UNL     1      35.953 -21.677 -18.639  0.00  0.00    +0.018 C 
ATOM     18  C   UNL     1      33.625 -21.425 -19.235  0.00  0.00    +0.018 C 
ATOM     19  C   UNL     1      36.277 -20.585 -19.443  0.00  0.00    +0.038 C 
ATOM     20  C   UNL     1      33.950 -20.331 -20.039  0.00  0.00    +0.038 C 
ATOM     21  C   UNL     1      35.276 -19.911 -20.143  0.00  0.00    +0.139 C 
BRANCH  21  22
ATOM     22  O   UNL     1      35.592 -18.845 -20.927  0.00  0.00    -0.471 OA
ATOM     23  C   UNL     1      35.140 -18.878 -22.280  0.00  0.00    +0.252 C 
ENDBRANCH  21  22
ENDBRANCH  14  16
ENDBRANCH   5  14
BRANCH   3  24
ATOM     24  C   UNL     1      30.911 -22.600 -14.238  0.00  0.00    +0.128 C 
BRANCH  24  25
ATOM     25  C   UNL     1      29.793 -23.180 -15.035  0.00  0.00    -0.002 C 
ATOM     26  C   UNL     1      29.699 -24.562 -15.204  0.00  0.00    -0.003 C 
ATOM     27  C   UNL     1      28.838 -22.342 -15.612  0.00  0.00    -0.003 C 
ATOM     28  C   UNL     1      28.652 -25.106 -15.949  0.00  0.00    -0.000 C 
ATOM     29  C   UNL     1      27.792 -22.885 -16.357  0.00  0.00    -0.000 C 
ATOM     30  C   UNL     1      27.698 -24.266 -16.525  0.00  0.00    -0.000 C 
ENDBRANCH  24  25
ENDBRANCH   3  24
TORSDOF 6
ENDMDL
MODEL 2
REMARK VINA RESULT:     -10.1      2.075      5.526
REMARK  Name = 5288679
REMARK  6 active torsions:
REMARK  status: ('A' for Active; 'I' for Inactive)
REMARK    1  A    between atoms: N_3  and  C_24
REMARK    2  A    between atoms: C_4  and  C_8
REMARK    3  A    between atoms: C_5  and  N_14
REMARK    4  A    between atoms: N_14  and  C_16
REMARK    5  A    between atoms: C_21  and  O_22
REMARK    6  A    between atoms: C_24  and  C_25
REMARK                            x       y       z     vdW  Elec       q    Type
REMARK                         _______ _______ _______ _____ _____    ______ ____
ROOT
ATOM      1  O   UNL     1      31.728 -23.671 -16.813  0.00  0.00    -0.269 OA
ATOM      2  O   UNL     1      33.118 -24.232 -12.469  0.00  0.00    -0.268 OA
ATOM      3  N   UNL     1      32.064 -24.157 -14.554  0.00  0.00    -0.217 N 
ATOM      4  C   UNL     1      33.768 -23.129 -15.673  0.00  0.00    +0.072 C 
ATOM      5  C   UNL     1      34.172 -23.296 -14.404  0.00  0.00    +0.107 C 
ATOM      6  C   UNL     1      32.396 -23.681 -15.792  0.00  0.00    +0.257 C 
ATOM      7  C   UNL     1      33.074 -23.953 -13.656  0.00  0.00    +0.269 C 
ENDROOT
BRANCH   4   8
ATOM      8  C   UNL     1      34.526 -22.536 -16.776  0.00  0.00    +0.006 C 
ATOM      9  C   UNL     1      33.913 -22.313 -18.015  0.00  0.00    +0.000 C 
ATOM     10  C   UNL     1      35.871 -22.188 -16.605  0.00  0.00    +0.000 C 
ATOM     11  C   UNL     1      34.635 -21.748 -19.067  0.00  0.00    +0.000 C 
ATOM     12  C   UNL     1      36.593 -21.625 -17.657  0.00  0.00    +0.000 C 
ATOM     13  C   UNL     1      35.975 -21.404 -18.888  0.00  0.00    +0.000 C 
ENDBRANCH   4   8
BRANCH   5  14
ATOM     14  N   UNL     1      35.330 -22.997 -13.770  0.00  0.00    -0.309 N 
ATOM     15  H   UNL     1      35.395 -22.083 -13.409  0.00  0.00    +0.152 HD
BRANCH  14  16
ATOM     16  C   UNL     1      36.454 -23.816 -13.561  0.00  0.00    +0.049 C 
ATOM     17  C   UNL     1      36.722 -24.875 -14.431  0.00  0.00    +0.018 C 
ATOM     18  C   UNL     1      37.307 -23.575 -12.482  0.00  0.00    +0.018 C 
ATOM     19  C   UNL     1      37.836 -25.688 -14.224  0.00  0.00    +0.038 C 
ATOM     20  C   UNL     1      38.422 -24.388 -12.275  0.00  0.00    +0.038 C 
ATOM     21  C   UNL     1      38.686 -25.445 -13.146  0.00  0.00    +0.139 C 
BRANCH  21  22
ATOM     22  O   UNL     1      39.773 -26.238 -12.943  0.00  0.00    -0.471 OA
ATOM     23  C   UNL     1      40.756 -26.269 -13.976  0.00  0.00    +0.252 C 
ENDBRANCH  21  22
ENDBRANCH  14  16
ENDBRANCH   5  14
BRANCH   3  24
ATOM     24  C   UNL     1      30.792 -24.776 -14.231  0.00  0.00    +0.128 C 
BRANCH  24  25
ATOM     25  C   UNL     1      29.684 -23.994 -14.850  0.00  0.00    -0.002 C 
ATOM     26  C   UNL     1      28.926 -24.552 -15.879  0.00  0.00    -0.003 C 
ATOM     27  C   UNL     1      29.405 -22.702 -14.402  0.00  0.00    -0.003 C 
ATOM     28  C   UNL     1      27.889 -23.822 -16.460  0.00  0.00    -0.000 C 
ATOM     29  C   UNL     1      28.369 -21.971 -14.982  0.00  0.00    -0.000 C 
ATOM     30  C   UNL     1      27.610 -22.530 -16.010  0.00  0.00    -0.000 C 
ENDBRANCH  24  25
ENDBRANCH   3  24
TORSDOF 6
ENDMDL
MODEL 3
REMARK VINA RESULT:     -10.0      2.077      7.357
REMARK  Name = 5288679
REMARK  6 active torsions:
REMARK  status: ('A' for Active; 'I' for Inactive)
REMARK    1  A    between atoms: N_3  and  C_24
REMARK    2  A    between atoms: C_4  and  C_8
REMARK    3  A    between atoms: C_5  and  N_14
REMARK    4  A    between atoms: N_14  and  C_16
REMARK    5  A    between atoms: C_21  and  O_22
REMARK    6  A    between atoms: C_24  and  C_25
REMARK                            x       y       z     vdW  Elec       q    Type
REMARK                         _______ _______ _______ _____ _____    ______ ____
ROOT
ATOM      1  O   UNL     1      32.634 -22.660 -18.697  0.00  0.00    -0.269 OA
ATOM      2  O   UNL     1      36.956 -22.208 -17.205  0.00  0.00    -0.268 OA
ATOM      3  N   UNL     1      34.921 -22.347 -18.345  0.00  0.00    -0.217 N 
ATOM      4  C   UNL     1      33.617 -22.735 -16.510  0.00  0.00    +0.072 C 
ATOM      5  C   UNL     1      34.881 -22.601 -16.077  0.00  0.00    +0.107 C 
ATOM      6  C   UNL     1      33.622 -22.576 -17.986  0.00  0.00    +0.257 C 
ATOM      7  C   UNL     1      35.746 -22.358 -17.255  0.00  0.00    +0.269 C 
ENDROOT
BRANCH   4   8
ATOM      8  C   UNL     1      32.421 -22.971 -15.701  0.00  0.00    +0.006 C 
ATOM      9  C   UNL     1      32.539 -23.410 -14.377  0.00  0.00    +0.000 C 
ATOM     10  C   UNL     1      31.147 -22.761 -16.242  0.00  0.00    +0.000 C 
ATOM     11  C   UNL     1      31.400 -23.635 -13.604  0.00  0.00    +0.000 C 
ATOM     12  C   UNL     1      30.008 -22.988 -15.470  0.00  0.00    +0.000 C 
ATOM     13  C   UNL     1      30.134 -23.424 -14.151  0.00  0.00    +0.000 C 
ENDBRANCH   4   8
BRANCH   5  14
ATOM     14  N   UNL     1      35.427 -22.633 -14.839  0.00  0.00    -0.309 N 
ATOM     15  H   UNL     1      35.112 -21.938 -14.216  0.00  0.00    +0.152 HD
BRANCH  14  16
ATOM     16  C   UNL     1      36.386 -23.524 -14.324  0.00  0.00    +0.049 C 
ATOM     17  C   UNL     1      36.459 -24.832 -14.809  0.00  0.00    +0.018 C 
ATOM     18  C   UNL     1      37.268 -23.105 -13.325  0.00  0.00    +0.018 C 
ATOM     19  C   UNL     1      37.409 -25.716 -14.299  0.00  0.00    +0.038 C 
ATOM     20  C   UNL     1      38.218 -23.990 -12.815  0.00  0.00    +0.038 C 
ATOM     21  C   UNL     1      38.288 -25.295 -13.301  0.00  0.00    +0.139 C 
BRANCH  21  22
ATOM     22  O   UNL     1      39.215 -26.158 -12.803  0.00  0.00    -0.471 OA
ATOM     23  C   UNL     1      40.427 -26.307 -13.541  0.00  0.00    +0.252 C 
ENDBRANCH  21  22
ENDBRANCH  14  16
ENDBRANCH   5  14
BRANCH   3  24
ATOM     24  C   UNL     1      35.367 -22.145 -19.710  0.00  0.00    +0.128 C 
BRANCH  24  25
ATOM     25  C   UNL     1      35.422 -20.685 -20.008  0.00  0.00    -0.002 C 
ATOM     26  C   UNL     1      34.256 -19.996 -20.341  0.00  0.00    -0.003 C 
ATOM     27  C   UNL     1      36.640 -20.006 -19.953  0.00  0.00    -0.003 C 
ATOM     28  C   UNL     1      34.306 -18.630 -20.619  0.00  0.00    -0.000 C 
ATOM     29  C   UNL     1      36.691 -18.640 -20.232  0.00  0.00    -0.000 C 
ATOM     30  C   UNL     1      35.524 -17.952 -20.564  0.00  0.00    -0.000 C 
ENDBRANCH  24  25
ENDBRANCH   3  24
TORSDOF 6
ENDMDL
MODEL 4
REMARK VINA RESULT:      -9.8      7.522     12.328
REMARK  Name = 5288679
REMARK  6 active torsions:
REMARK  status: ('A' for Active; 'I' for Inactive)
REMARK    1  A    between atoms: N_3  and  C_24
REMARK    2  A    between atoms: C_4  and  C_8
REMARK    3  A    between atoms: C_5  and  N_14
REMARK    4  A    between atoms: N_14  and  C_16
REMARK    5  A    between atoms: C_21  and  O_22
REMARK    6  A    between atoms: C_24  and  C_25
REMARK                            x       y       z     vdW  Elec       q    Type
REMARK                         _______ _______ _______ _____ _____    ______ ____
ROOT
ATOM      1  O   UNL     1      35.601 -15.052 -22.724  0.00  0.00    -0.269 OA
ATOM      2  O   UNL     1      32.680 -14.547 -19.213  0.00  0.00    -0.268 OA
ATOM      3  N   UNL     1      34.369 -15.072 -20.741  0.00  0.00    -0.217 N 
ATOM      4  C   UNL     1      33.693 -13.638 -22.384  0.00  0.00    +0.072 C 
ATOM      5  C   UNL     1      32.843 -13.492 -21.356  0.00  0.00    +0.107 C 
ATOM      6  C   UNL     1      34.694 -14.666 -22.005  0.00  0.00    +0.257 C 
ATOM      7  C   UNL     1      33.257 -14.423 -20.281  0.00  0.00    +0.269 C 
ENDROOT
BRANCH   4   8
ATOM      8  C   UNL     1      33.683 -12.914 -23.656  0.00  0.00    +0.006 C 
ATOM      9  C   UNL     1      33.128 -13.502 -24.799  0.00  0.00    +0.000 C 
ATOM     10  C   UNL     1      34.229 -11.629 -23.744  0.00  0.00    +0.000 C 
ATOM     11  C   UNL     1      33.117 -12.814 -26.012  0.00  0.00    +0.000 C 
ATOM     12  C   UNL     1      34.220 -10.941 -24.958  0.00  0.00    +0.000 C 
ATOM     13  C   UNL     1      33.663 -11.532 -26.091  0.00  0.00    +0.000 C 
ENDBRANCH   4   8
BRANCH   5  14
ATOM     14  N   UNL     1      31.774 -12.682 -21.167  0.00  0.00    -0.309 N 
ATOM     15  H   UNL     1      30.893 -13.108 -21.276  0.00  0.00    +0.152 HD
BRANCH  14  16
ATOM     16  C   UNL     1      31.754 -11.315 -20.838  0.00  0.00    +0.049 C 
ATOM     17  C   UNL     1      31.583 -10.355 -21.838  0.00  0.00    +0.018 C 
ATOM     18  C   UNL     1      31.905 -10.912 -19.510  0.00  0.00    +0.018 C 
ATOM     19  C   UNL     1      31.562  -8.999 -21.512  0.00  0.00    +0.038 C 
ATOM     20  C   UNL     1      31.886  -9.555 -19.183  0.00  0.00    +0.038 C 
ATOM     21  C   UNL     1      31.715  -8.599 -20.185  0.00  0.00    +0.139 C 
BRANCH  21  22
ATOM     22  O   UNL     1      31.695  -7.277 -19.866  0.00  0.00    -0.471 OA
ATOM     23  C   UNL     1      31.520  -6.352 -20.938  0.00  0.00    +0.252 C 
ENDBRANCH  21  22
ENDBRANCH  14  16
ENDBRANCH   5  14
BRANCH   3  24
ATOM     24  C   UNL     1      35.095 -16.083 -19.995  0.00  0.00    +0.128 C 
BRANCH  24  25
ATOM     25  C   UNL     1      35.115 -17.357 -20.769  0.00  0.00    -0.002 C 
ATOM     26  C   UNL     1      34.087 -18.286 -20.612  0.00  0.00    -0.003 C 
ATOM     27  C   UNL     1      36.163 -17.622 -21.651  0.00  0.00    -0.003 C 
ATOM     28  C   UNL     1      34.104 -19.478 -21.335  0.00  0.00    -0.000 C 
ATOM     29  C   UNL     1      36.182 -18.814 -22.375  0.00  0.00    -0.000 C 
ATOM     30  C   UNL     1      35.152 -19.742 -22.218  0.00  0.00    -0.000 C 
ENDBRANCH  24  25
ENDBRANCH   3  24
TORSDOF 6
ENDMDL
MODEL 5
REMARK VINA RESULT:      -9.8      2.472      7.031
REMARK  Name = 5288679
REMARK  6 active torsions:
REMARK  status: ('A' for Active; 'I' for Inactive)
REMARK    1  A    between atoms: N_3  and  C_24
REMARK    2  A    between atoms: C_4  and  C_8
REMARK    3  A    between atoms: C_5  and  N_14
REMARK    4  A    between atoms: N_14  and  C_16
REMARK    5  A    between atoms: C_21  and  O_22
REMARK    6  A    between atoms: C_24  and  C_25
REMARK                            x       y       z     vdW  Elec       q    Type
REMARK                         _______ _______ _______ _____ _____    ______ ____
ROOT
ATOM      1  O   UNL     1      35.499 -22.485 -14.456  0.00  0.00    -0.269 OA
ATOM      2  O   UNL     1      32.208 -25.103 -12.603  0.00  0.00    -0.268 OA
ATOM      3  N   UNL     1      34.059 -23.787 -13.160  0.00  0.00    -0.217 N 
ATOM      4  C   UNL     1      33.418 -23.326 -15.303  0.00  0.00    +0.072 C 
ATOM      5  C   UNL     1      32.458 -24.090 -14.758  0.00  0.00    +0.107 C 
ATOM      6  C   UNL     1      34.473 -23.120 -14.278  0.00  0.00    +0.257 C 
ATOM      7  C   UNL     1      32.859 -24.410 -13.368  0.00  0.00    +0.269 C 
ENDROOT
BRANCH   4   8
ATOM      8  C   UNL     1      33.445 -22.760 -16.652  0.00  0.00    +0.006 C 
ATOM      9  C   UNL     1      34.627 -22.776 -17.402  0.00  0.00    +0.000 C 
ATOM     10  C   UNL     1      32.291 -22.194 -17.205  0.00  0.00    +0.000 C 
ATOM     11  C   UNL     1      34.654 -22.236 -18.688  0.00  0.00    +0.000 C 
ATOM     12  C   UNL     1      32.318 -21.653 -18.491  0.00  0.00    +0.000 C 
ATOM     13  C   UNL     1      33.498 -21.675 -19.233  0.00  0.00    +0.000 C 
ENDBRANCH   4   8
BRANCH   5  14
ATOM     14  N   UNL     1      31.280 -24.551 -15.239  0.00  0.00    -0.309 N 
ATOM     15  H   UNL     1      31.280 -25.490 -15.538  0.00  0.00    +0.152 HD
BRANCH  14  16
ATOM     16  C   UNL     1      30.056 -23.870 -15.371  0.00  0.00    +0.049 C 
ATOM     17  C   UNL     1      29.733 -22.833 -14.492  0.00  0.00    +0.018 C 
ATOM     18  C   UNL     1      29.159 -24.228 -16.379  0.00  0.00    +0.018 C 
ATOM     19  C   UNL     1      28.521 -22.157 -14.622  0.00  0.00    +0.038 C 
ATOM     20  C   UNL     1      27.945 -23.551 -16.509  0.00  0.00    +0.038 C 
ATOM     21  C   UNL     1      27.626 -22.517 -15.630  0.00  0.00    +0.139 C 
BRANCH  21  22
ATOM     22  O   UNL     1      26.442 -21.858 -15.757  0.00  0.00    -0.471 OA
ATOM     23  C   UNL     1      26.088 -21.405 -17.062  0.00  0.00    +0.252 C 
ENDBRANCH  21  22
ENDBRANCH  14  16
ENDBRANCH   5  14
BRANCH   3  24
ATOM     24  C   UNL     1      34.810 -23.849 -11.920  0.00  0.00    +0.128 C 
BRANCH  24  25
ATOM     25  C   UNL     1      36.166 -24.407 -12.185  0.00  0.00    -0.002 C 
ATOM     26  C   UNL     1      36.306 -25.587 -12.916  0.00  0.00    -0.003 C 
ATOM     27  C   UNL     1      37.299 -23.749 -11.701  0.00  0.00    -0.003 C 
ATOM     28  C   UNL     1      37.575 -26.109 -13.164  0.00  0.00    -0.000 C 
ATOM     29  C   UNL     1      38.568 -24.271 -11.949  0.00  0.00    -0.000 C 
ATOM     30  C   UNL     1      38.707 -25.451 -12.681  0.00  0.00    -0.000 C 
ENDBRANCH  24  25
ENDBRANCH   3  24
TORSDOF 6
ENDMDL
MODEL 6
REMARK VINA RESULT:      -9.6      2.012      7.147
REMARK  Name = 5288679
REMARK  6 active torsions:
REMARK  status: ('A' for Active; 'I' for Inactive)
REMARK    1  A    between atoms: N_3  and  C_24
REMARK    2  A    between atoms: C_4  and  C_8
REMARK    3  A    between atoms: C_5  and  N_14
REMARK    4  A    between atoms: N_14  and  C_16
REMARK    5  A    between atoms: C_21  and  O_22
REMARK    6  A    between atoms: C_24  and  C_25
REMARK                            x       y       z     vdW  Elec       q    Type
REMARK                         _______ _______ _______ _____ _____    ______ ____
ROOT
ATOM      1  O   UNL     1      36.580 -21.978 -15.441  0.00  0.00    -0.269 OA
ATOM      2  O   UNL     1      33.333 -24.774 -13.781  0.00  0.00    -0.268 OA
ATOM      3  N   UNL     1      35.163 -23.394 -14.242  0.00  0.00    -0.217 N 
ATOM      4  C   UNL     1      34.509 -22.784 -16.343  0.00  0.00    +0.072 C 
ATOM      5  C   UNL     1      33.561 -23.600 -15.855  0.00  0.00    +0.107 C 
ATOM      6  C   UNL     1      35.563 -22.640 -15.309  0.00  0.00    +0.257 C 
ATOM      7  C   UNL     1      33.972 -24.017 -14.494  0.00  0.00    +0.269 C 
ENDROOT
BRANCH   4   8
ATOM      8  C   UNL     1      34.522 -22.118 -17.646  0.00  0.00    +0.006 C 
ATOM      9  C   UNL     1      33.321 -21.817 -18.298  0.00  0.00    +0.000 C 
ATOM     10  C   UNL     1      35.736 -21.778 -18.255  0.00  0.00    +0.000 C 
ATOM     11  C   UNL     1      33.333 -21.182 -19.541  0.00  0.00    +0.000 C 
ATOM     12  C   UNL     1      35.748 -21.144 -19.498  0.00  0.00    +0.000 C 
ATOM     13  C   UNL     1      34.546 -20.846 -20.141  0.00  0.00    +0.000 C 
ENDBRANCH   4   8
BRANCH   5  14
ATOM     14  N   UNL     1      32.388 -24.042 -16.366  0.00  0.00    -0.309 N 
ATOM     15  H   UNL     1      32.462 -24.660 -17.129  0.00  0.00    +0.152 HD
BRANCH  14  16
ATOM     16  C   UNL     1      31.079 -23.736 -15.955  0.00  0.00    +0.049 C 
ATOM     17  C   UNL     1      30.322 -24.684 -15.262  0.00  0.00    +0.018 C 
ATOM     18  C   UNL     1      30.530 -22.483 -16.237  0.00  0.00    +0.018 C 
ATOM     19  C   UNL     1      29.023 -24.381 -14.853  0.00  0.00    +0.038 C 
ATOM     20  C   UNL     1      29.230 -22.180 -15.828  0.00  0.00    +0.038 C 
ATOM     21  C   UNL     1      28.477 -23.129 -15.137  0.00  0.00    +0.139 C 
BRANCH  21  22
ATOM     22  O   UNL     1      27.210 -22.833 -14.739  0.00  0.00    -0.471 OA
ATOM     23  C   UNL     1      26.394 -22.107 -15.656  0.00  0.00    +0.252 C 
ENDBRANCH  21  22
ENDBRANCH  14  16
ENDBRANCH   5  14
BRANCH   3  24
ATOM     24  C   UNL     1      35.919 -23.537 -13.012  0.00  0.00    +0.128 C 
BRANCH  24  25
ATOM     25  C   UNL     1      37.044 -24.492 -13.225  0.00  0.00    -0.002 C 
ATOM     26  C   UNL     1      38.328 -24.166 -12.790  0.00  0.00    -0.003 C 
ATOM     27  C   UNL     1      36.813 -25.713 -13.860  0.00  0.00    -0.003 C 
ATOM     28  C   UNL     1      39.382 -25.058 -12.989  0.00  0.00    -0.000 C 
ATOM     29  C   UNL     1      37.866 -26.606 -14.060  0.00  0.00    -0.000 C 
ATOM     30  C   UNL     1      39.150 -26.280 -13.623  0.00  0.00    -0.000 C 
ENDBRANCH  24  25
ENDBRANCH   3  24
TORSDOF 6
ENDMDL
MODEL 7
REMARK VINA RESULT:      -9.6      1.936      7.325
REMARK  Name = 5288679
REMARK  6 active torsions:
REMARK  status: ('A' for Active; 'I' for Inactive)
REMARK    1  A    between atoms: N_3  and  C_24
REMARK    2  A    between atoms: C_4  and  C_8
REMARK    3  A    between atoms: C_5  and  N_14
REMARK    4  A    between atoms: N_14  and  C_16
REMARK    5  A    between atoms: C_21  and  O_22
REMARK    6  A    between atoms: C_24  and  C_25
REMARK                            x       y       z     vdW  Elec       q    Type
REMARK                         _______ _______ _______ _____ _____    ______ ____
ROOT
ATOM      1  O   UNL     1      37.324 -21.416 -15.959  0.00  0.00    -0.269 OA
ATOM      2  O   UNL     1      34.650 -24.430 -13.750  0.00  0.00    -0.268 OA
ATOM      3  N   UNL     1      36.246 -22.906 -14.521  0.00  0.00    -0.217 N 
ATOM      4  C   UNL     1      35.231 -22.449 -16.515  0.00  0.00    +0.072 C 
ATOM      5  C   UNL     1      34.452 -23.328 -15.867  0.00  0.00    +0.107 C 
ATOM      6  C   UNL     1      36.408 -22.163 -15.657  0.00  0.00    +0.257 C 
ATOM      7  C   UNL     1      35.098 -23.648 -14.572  0.00  0.00    +0.269 C 
ENDROOT
BRANCH   4   8
ATOM      8  C   UNL     1      34.986 -21.840 -17.823  0.00  0.00    +0.006 C 
ATOM      9  C   UNL     1      36.056 -21.378 -18.599  0.00  0.00    +0.000 C 
ATOM     10  C   UNL     1      33.681 -21.711 -18.311  0.00  0.00    +0.000 C 
ATOM     11  C   UNL     1      35.824 -20.797 -19.846  0.00  0.00    +0.000 C 
ATOM     12  C   UNL     1      33.449 -21.130 -19.558  0.00  0.00    +0.000 C 
ATOM     13  C   UNL     1      34.520 -20.673 -20.326  0.00  0.00    +0.000 C 
ENDBRANCH   4   8
BRANCH   5  14
ATOM     14  N   UNL     1      33.265 -23.899 -16.182  0.00  0.00    -0.309 N 
ATOM     15  H   UNL     1      33.312 -24.672 -16.790  0.00  0.00    +0.152 HD
BRANCH  14  16
ATOM     16  C   UNL     1      31.974 -23.534 -15.760  0.00  0.00    +0.049 C 
ATOM     17  C   UNL     1      31.148 -22.783 -16.599  0.00  0.00    +0.018 C 
ATOM     18  C   UNL     1      31.514 -23.919 -14.499  0.00  0.00    +0.018 C 
ATOM     19  C   UNL     1      29.868 -22.421 -16.181  0.00  0.00    +0.038 C 
ATOM     20  C   UNL     1      30.233 -23.557 -14.080  0.00  0.00    +0.038 C 
ATOM     21  C   UNL     1      29.410 -22.807 -14.921  0.00  0.00    +0.139 C 
BRANCH  21  22
ATOM     22  O   UNL     1      28.162 -22.454 -14.512  0.00  0.00    -0.471 OA
ATOM     23  C   UNL     1      27.151 -22.366 -15.515  0.00  0.00    +0.252 C 
ENDBRANCH  21  22
ENDBRANCH  14  16
ENDBRANCH   5  14
BRANCH   3  24
ATOM     24  C   UNL     1      37.186 -22.926 -13.416  0.00  0.00    +0.128 C 
BRANCH  24  25
ATOM     25  C   UNL     1      38.129 -24.069 -13.582  0.00  0.00    -0.002 C 
ATOM     26  C   UNL     1      39.023 -24.086 -14.653  0.00  0.00    -0.003 C 
ATOM     27  C   UNL     1      38.117 -25.123 -12.668  0.00  0.00    -0.003 C 
ATOM     28  C   UNL     1      39.906 -25.155 -14.809  0.00  0.00    -0.000 C 
ATOM     29  C   UNL     1      38.999 -26.192 -12.824  0.00  0.00    -0.000 C 
ATOM     30  C   UNL     1      39.894 -26.209 -13.893  0.00  0.00    -0.000 C 
ENDBRANCH  24  25
ENDBRANCH   3  24
TORSDOF 6
ENDMDL
MODEL 8
REMARK VINA RESULT:      -9.5      5.769     10.993
REMARK  Name = 5288679
REMARK  6 active torsions:
REMARK  status: ('A' for Active; 'I' for Inactive)
REMARK    1  A    between atoms: N_3  and  C_24
REMARK    2  A    between atoms: C_4  and  C_8
REMARK    3  A    between atoms: C_5  and  N_14
REMARK    4  A    between atoms: N_14  and  C_16
REMARK    5  A    between atoms: C_21  and  O_22
REMARK    6  A    between atoms: C_24  and  C_25
REMARK                            x       y       z     vdW  Elec       q    Type
REMARK                         _______ _______ _______ _____ _____    ______ ____
ROOT
ATOM      1  O   UNL     1      34.334 -17.717 -25.065  0.00  0.00    -0.269 OA
ATOM      2  O   UNL     1      35.599 -16.967 -20.711  0.00  0.00    -0.268 OA
ATOM      3  N   UNL     1      35.084 -17.746 -22.854  0.00  0.00    -0.217 N 
ATOM      4  C   UNL     1      34.413 -15.739 -23.710  0.00  0.00    +0.072 C 
ATOM      5  C   UNL     1      34.785 -15.523 -22.438  0.00  0.00    +0.107 C 
ATOM      6  C   UNL     1      34.597 -17.182 -24.000  0.00  0.00    +0.257 C 
ATOM      7  C   UNL     1      35.215 -16.817 -21.860  0.00  0.00    +0.269 C 
ENDROOT
BRANCH   4   8
ATOM      8  C   UNL     1      33.931 -14.750 -24.675  0.00  0.00    +0.006 C 
ATOM      9  C   UNL     1      34.704 -14.419 -25.793  0.00  0.00    +0.000 C 
ATOM     10  C   UNL     1      32.693 -14.123 -24.489  0.00  0.00    +0.000 C 
ATOM     11  C   UNL     1      34.246 -13.476 -26.714  0.00  0.00    +0.000 C 
ATOM     12  C   UNL     1      32.235 -13.180 -25.409  0.00  0.00    +0.000 C 
ATOM     13  C   UNL     1      33.011 -12.857 -26.522  0.00  0.00    +0.000 C 
ENDBRANCH   4   8
BRANCH   5  14
ATOM     14  N   UNL     1      34.837 -14.400 -21.683  0.00  0.00    -0.309 N 
ATOM     15  H   UNL     1      35.720 -14.180 -21.307  0.00  0.00    +0.152 HD
BRANCH  14  16
ATOM     16  C   UNL     1      33.799 -13.507 -21.363  0.00  0.00    +0.049 C 
ATOM     17  C   UNL     1      33.670 -12.303 -22.060  0.00  0.00    +0.018 C 
ATOM     18  C   UNL     1      32.894 -13.818 -20.346  0.00  0.00    +0.018 C 
ATOM     19  C   UNL     1      32.641 -11.417 -21.743  0.00  0.00    +0.038 C 
ATOM     20  C   UNL     1      31.865 -12.931 -20.029  0.00  0.00    +0.038 C 
ATOM     21  C   UNL     1      31.739 -11.730 -20.727  0.00  0.00    +0.139 C 
BRANCH  21  22
ATOM     22  O   UNL     1      30.735 -10.866 -20.417  0.00  0.00    -0.471 OA
ATOM     23  C   UNL     1      31.021  -9.859 -19.447  0.00  0.00    +0.252 C 
ENDBRANCH  21  22
ENDBRANCH  14  16
ENDBRANCH   5  14
BRANCH   3  24
ATOM     24  C   UNL     1      35.396 -19.156 -22.705  0.00  0.00    +0.128 C 
BRANCH  24  25
ATOM     25  C   UNL     1      34.662 -19.709 -21.532  0.00  0.00    -0.002 C 
ATOM     26  C   UNL     1      35.362 -20.342 -20.505  0.00  0.00    -0.003 C 
ATOM     27  C   UNL     1      33.273 -19.595 -21.461  0.00  0.00    -0.003 C 
ATOM     28  C   UNL     1      34.675 -20.860 -19.407  0.00  0.00    -0.000 C 
ATOM     29  C   UNL     1      32.585 -20.113 -20.363  0.00  0.00    -0.000 C 
ATOM     30  C   UNL     1      33.286 -20.745 -19.336  0.00  0.00    -0.000 C 
ENDBRANCH  24  25
ENDBRANCH   3  24
TORSDOF 6
ENDMDL
MODEL 9
REMARK VINA RESULT:      -9.4     10.001     15.009
REMARK  Name = 5288679
REMARK  6 active torsions:
REMARK  status: ('A' for Active; 'I' for Inactive)
REMARK    1  A    between atoms: N_3  and  C_24
REMARK    2  A    between atoms: C_4  and  C_8
REMARK    3  A    between atoms: C_5  and  N_14
REMARK    4  A    between atoms: N_14  and  C_16
REMARK    5  A    between atoms: C_21  and  O_22
REMARK    6  A    between atoms: C_24  and  C_25
REMARK                            x       y       z     vdW  Elec       q    Type
REMARK                         _______ _______ _______ _____ _____    ______ ____
ROOT
ATOM      1  O   UNL     1      33.694  -7.698 -22.818  0.00  0.00    -0.269 OA
ATOM      2  O   UNL     1      31.333 -10.378 -19.928  0.00  0.00    -0.268 OA
ATOM      3  N   UNL     1      32.409  -8.698 -21.145  0.00  0.00    -0.217 N 
ATOM      4  C   UNL     1      33.184 -10.042 -22.820  0.00  0.00    +0.072 C 
ATOM      5  C   UNL     1      32.493 -10.822 -21.975  0.00  0.00    +0.107 C 
ATOM      6  C   UNL     1      33.145  -8.654 -22.296  0.00  0.00    +0.257 C 
ATOM      7  C   UNL     1      31.989  -9.970 -20.872  0.00  0.00    +0.269 C 
ENDROOT
BRANCH   4   8
ATOM      8  C   UNL     1      33.851 -10.446 -24.059  0.00  0.00    +0.006 C 
ATOM      9  C   UNL     1      33.271 -11.412 -24.889  0.00  0.00    +0.000 C 
ATOM     10  C   UNL     1      35.074  -9.873 -24.425  0.00  0.00    +0.000 C 
ATOM     11  C   UNL     1      33.906 -11.799 -26.070  0.00  0.00    +0.000 C 
ATOM     12  C   UNL     1      35.709 -10.260 -25.605  0.00  0.00    +0.000 C 
ATOM     13  C   UNL     1      35.124 -11.222 -26.429  0.00  0.00    +0.000 C 
ENDBRANCH   4   8
BRANCH   5  14
ATOM     14  N   UNL     1      32.200 -12.144 -21.988  0.00  0.00    -0.309 N 
ATOM     15  H   UNL     1      31.250 -12.368 -22.122  0.00  0.00    +0.152 HD
BRANCH  14  16
ATOM     16  C   UNL     1      33.069 -13.239 -21.835  0.00  0.00    +0.049 C 
ATOM     17  C   UNL     1      33.509 -13.947 -22.957  0.00  0.00    +0.018 C 
ATOM     18  C   UNL     1      33.496 -13.623 -20.563  0.00  0.00    +0.018 C 
ATOM     19  C   UNL     1      34.371 -15.032 -22.806  0.00  0.00    +0.038 C 
ATOM     20  C   UNL     1      34.359 -14.710 -20.412  0.00  0.00    +0.038 C 
ATOM     21  C   UNL     1      34.796 -15.414 -21.534  0.00  0.00    +0.139 C 
BRANCH  21  22
ATOM     22  O   UNL     1      35.637 -16.474 -21.386  0.00  0.00    -0.471 OA
ATOM     23  C   UNL     1      35.546 -17.515 -22.356  0.00  0.00    +0.252 C 
ENDBRANCH  21  22
ENDBRANCH  14  16
ENDBRANCH   5  14
BRANCH   3  24
ATOM     24  C   UNL     1      32.133  -7.546 -20.307  0.00  0.00    +0.128 C 
BRANCH  24  25
ATOM     25  C   UNL     1      31.749  -6.387 -21.162  0.00  0.00    -0.002 C 
ATOM     26  C   UNL     1      32.402  -5.163 -21.013  0.00  0.00    -0.003 C 
ATOM     27  C   UNL     1      30.735  -6.525 -22.111  0.00  0.00    -0.003 C 
ATOM     28  C   UNL     1      32.043  -4.077 -21.813  0.00  0.00    -0.000 C 
ATOM     29  C   UNL     1      30.376  -5.440 -22.911  0.00  0.00    -0.000 C 
ATOM     30  C   UNL     1      31.030  -4.216 -22.762  0.00  0.00    -0.000 C 
ENDBRANCH  24  25
ENDBRANCH   3  24
TORSDOF 6
ENDMDL
