MODEL 1
REMARK VINA RESULT:     -11.8      0.000      0.000
REMARK  Name = 447546
REMARK  10 active torsions:
REMARK  status: ('A' for Active; 'I' for Inactive)
REMARK    1  A    between atoms: N_1  and  C_23
REMARK    2  A    between atoms: C_8  and  N_11
REMARK    3  A    between atoms: N_12  and  C_16
REMARK    4  A    between atoms: C_16  and  C_17
REMARK    5  A    between atoms: C_23  and  C_24
REMARK    6  A    between atoms: C_24  and  C_25
REMARK    7  A    between atoms: C_25  and  N_26
REMARK    8  A    between atoms: C_25  and  C_36
REMARK    9  A    between atoms: C_30  and  C_33
REMARK   10  A    between atoms: C_36  and  O_37
REMARK                            x       y       z     vdW  Elec       q    Type
REMARK                         _______ _______ _______ _____ _____    ______ ____
ROOT
ATOM      1  N   UNL     1      32.445 -24.652 -13.607  0.00  0.00    -0.286 N 
ATOM      2  C   UNL     1      31.959 -23.923 -14.669  0.00  0.00    +0.053 C 
ATOM      3  C   UNL     1      30.573 -23.844 -14.512  0.00  0.00    +0.015 C 
ATOM      4  C   UNL     1      31.418 -25.034 -12.786  0.00  0.00    +0.065 C 
ATOM      5  C   UNL     1      30.247 -24.549 -13.320  0.00  0.00    +0.017 C 
ATOM      6  C   UNL     1      32.633 -23.334 -15.745  0.00  0.00    +0.030 C 
ATOM      7  C   UNL     1      29.821 -23.143 -15.476  0.00  0.00    +0.003 C 
ATOM      8  C   UNL     1      31.865 -22.644 -16.688  0.00  0.00    +0.053 C 
ATOM      9  C   UNL     1      30.481 -22.548 -16.557  0.00  0.00    +0.015 C 
ENDROOT
BRANCH   8  11
ATOM     10  O   UNL     1      34.755 -22.637 -17.497  0.00  0.00    -0.252 OA
ATOM     11  N   UNL     1      32.498 -22.040 -17.776  0.00  0.00    -0.268 N 
ATOM     12  N   UNL     1      34.097 -21.332 -19.289  0.00  0.00    -0.285 N 
ATOM     13  C   UNL     1      33.865 -22.064 -18.118  0.00  0.00    +0.305 C 
ATOM     14  H   UNL     1      31.913 -21.532 -18.383  0.00  0.00    +0.156 HD
ATOM     15  H   UNL     1      33.333 -20.900 -19.731  0.00  0.00    +0.151 HD
BRANCH  12  16
ATOM     16  C   UNL     1      35.409 -21.183 -19.877  0.00  0.00    +0.118 C 
BRANCH  16  17
ATOM     17  C   UNL     1      35.493 -19.975 -20.764  0.00  0.00    -0.003 C 
ATOM     18  C   UNL     1      34.528 -19.762 -21.747  0.00  0.00    -0.003 C 
ATOM     19  C   UNL     1      36.537 -19.063 -20.603  0.00  0.00    -0.003 C 
ATOM     20  C   UNL     1      34.606 -18.640 -22.571  0.00  0.00    -0.000 C 
ATOM     21  C   UNL     1      36.615 -17.940 -21.427  0.00  0.00    -0.000 C 
ATOM     22  C   UNL     1      35.650 -17.729 -22.410  0.00  0.00    -0.000 C 
ENDBRANCH  16  17
ENDBRANCH  12  16
ENDBRANCH   8  11
BRANCH   1  23
ATOM     23  C   UNL     1      33.836 -24.976 -13.376  0.00  0.00    +0.097 C 
BRANCH  23  24
ATOM     24  C   UNL     1      34.553 -24.030 -12.402  0.00  0.00    +0.040 C 
BRANCH  24  25
ATOM     25  C   UNL     1      35.874 -24.573 -11.813  0.00  0.00    +0.091 C 
BRANCH  25  26
ATOM     26  N   UNL     1      36.997 -24.549 -12.767  0.00  0.00    -0.246 NA
ATOM     27  N   UNL     1      38.396 -23.978 -14.393  0.00  0.00    -0.251 NA
ATOM     28  C   UNL     1      38.010 -25.471 -12.863  0.00  0.00    +0.125 C 
ATOM     29  C   UNL     1      37.260 -23.664 -13.702  0.00  0.00    +0.201 C 
ATOM     30  C   UNL     1      38.891 -25.137 -13.865  0.00  0.00    +0.124 C 
BRANCH  30  33
ATOM     31  O   UNL     1      40.508 -25.758 -15.473  0.00  0.00    -0.269 OA
ATOM     32  N   UNL     1      40.789 -26.551 -13.355  0.00  0.00    -0.324 N 
ATOM     33  C   UNL     1      40.069 -25.809 -14.299  0.00  0.00    +0.257 C 
ATOM     34  H   UNL     1      41.607 -27.027 -13.623  0.00  0.00    +0.145 HD
ATOM     35  H   UNL     1      40.477 -26.596 -12.422  0.00  0.00    +0.145 HD
ENDBRANCH  30  33
ENDBRANCH  25  26
BRANCH  25  36
ATOM     36  C   UNL     1      36.246 -23.814 -10.528  0.00  0.00    +0.153 C 
BRANCH  36  37
ATOM     37  O   UNL     1      35.625 -24.435  -9.409  0.00  0.00    -0.381 OA
ATOM     38  H   UNL     1      35.648 -23.830  -8.651  0.00  0.00    +0.210 HD
ENDBRANCH  36  37
ENDBRANCH  25  36
ENDBRANCH  24  25
ENDBRANCH  23  24
ENDBRANCH   1  23
TORSDOF 10
ENDMDL
MODEL 2
REMARK VINA RESULT:     -11.6      3.212      7.211
REMARK  Name = 447546
REMARK  10 active torsions:
REMARK  status: ('A' for Active; 'I' for Inactive)
REMARK    1  A    between atoms: N_1  and  C_23
REMARK    2  A    between atoms: C_8  and  N_11
REMARK    3  A    between atoms: N_12  and  C_16
REMARK    4  A    between atoms: C_16  and  C_17
REMARK    5  A    between atoms: C_23  and  C_24
REMARK    6  A    between atoms: C_24  and  C_25
REMARK    7  A    between atoms: C_25  and  N_26
REMARK    8  A    between atoms: C_25  and  C_36
REMARK    9  A    between atoms: C_30  and  C_33
REMARK   10  A    between atoms: C_36  and  O_37
REMARK                            x       y       z     vdW  Elec       q    Type
REMARK                         _______ _______ _______ _____ _____    ______ ____
ROOT
ATOM      1  N   UNL     1      33.760 -23.441 -15.258  0.00  0.00    -0.286 N 
ATOM      2  C   UNL     1      34.661 -22.827 -16.099  0.00  0.00    +0.053 C 
ATOM      3  C   UNL     1      35.914 -22.908 -15.486  0.00  0.00    +0.015 C 
ATOM      4  C   UNL     1      34.398 -23.907 -14.140  0.00  0.00    +0.065 C 
ATOM      5  C   UNL     1      35.732 -23.592 -14.253  0.00  0.00    +0.017 C 
ATOM      6  C   UNL     1      34.464 -22.212 -17.341  0.00  0.00    +0.030 C 
ATOM      7  C   UNL     1      37.027 -22.347 -16.145  0.00  0.00    +0.003 C 
ATOM      8  C   UNL     1      35.584 -21.664 -17.974  0.00  0.00    +0.053 C 
ATOM      9  C   UNL     1      36.846 -21.730 -17.388  0.00  0.00    +0.015 C 
ENDROOT
BRANCH   8  11
ATOM     10  O   UNL     1      37.101 -19.387 -19.207  0.00  0.00    -0.252 OA
ATOM     11  N   UNL     1      35.432 -21.043 -19.215  0.00  0.00    -0.268 N 
ATOM     12  N   UNL     1      35.706 -19.641 -21.034  0.00  0.00    -0.285 N 
ATOM     13  C   UNL     1      36.171 -19.972 -19.756  0.00  0.00    +0.305 C 
ATOM     14  H   UNL     1      34.716 -21.402 -19.788  0.00  0.00    +0.156 HD
ATOM     15  H   UNL     1      34.956 -20.157 -21.408  0.00  0.00    +0.151 HD
BRANCH  12  16
ATOM     16  C   UNL     1      36.278 -18.579 -21.829  0.00  0.00    +0.118 C 
BRANCH  16  17
ATOM     17  C   UNL     1      35.322 -18.085 -22.877  0.00  0.00    -0.003 C 
ATOM     18  C   UNL     1      34.506 -18.987 -23.558  0.00  0.00    -0.003 C 
ATOM     19  C   UNL     1      35.250 -16.722 -23.168  0.00  0.00    -0.003 C 
ATOM     20  C   UNL     1      33.619 -18.528 -24.531  0.00  0.00    -0.000 C 
ATOM     21  C   UNL     1      34.362 -16.263 -24.141  0.00  0.00    -0.000 C 
ATOM     22  C   UNL     1      33.546 -17.166 -24.822  0.00  0.00    -0.000 C 
ENDBRANCH  16  17
ENDBRANCH  12  16
ENDBRANCH   8  11
BRANCH   1  23
ATOM     23  C   UNL     1      32.341 -23.582 -15.505  0.00  0.00    +0.097 C 
BRANCH  23  24
ATOM     24  C   UNL     1      31.449 -22.815 -14.520  0.00  0.00    +0.040 C 
BRANCH  24  25
ATOM     25  C   UNL     1      30.129 -23.523 -14.140  0.00  0.00    +0.091 C 
BRANCH  25  26
ATOM     26  N   UNL     1      29.088 -23.424 -15.177  0.00  0.00    -0.246 NA
ATOM     27  N   UNL     1      27.756 -23.844 -16.902  0.00  0.00    -0.251 NA
ATOM     28  C   UNL     1      28.204 -22.389 -15.353  0.00  0.00    +0.125 C 
ATOM     29  C   UNL     1      28.791 -24.284 -16.126  0.00  0.00    +0.201 C 
ATOM     30  C   UNL     1      27.367 -22.627 -16.419  0.00  0.00    +0.124 C 
BRANCH  30  33
ATOM     31  O   UNL     1      25.570 -21.102 -16.239  0.00  0.00    -0.269 OA
ATOM     32  N   UNL     1      26.118 -21.822 -18.331  0.00  0.00    -0.324 N 
ATOM     33  C   UNL     1      26.315 -21.823 -16.945  0.00  0.00    +0.257 C 
ATOM     34  H   UNL     1      25.400 -21.277 -18.725  0.00  0.00    +0.145 HD
ATOM     35  H   UNL     1      26.698 -22.366 -18.911  0.00  0.00    +0.145 HD
ENDBRANCH  30  33
ENDBRANCH  25  26
BRANCH  25  36
ATOM     36  C   UNL     1      30.390 -24.996 -13.781  0.00  0.00    +0.153 C 
BRANCH  36  37
ATOM     37  O   UNL     1      30.791 -25.093 -12.418  0.00  0.00    -0.381 OA
ATOM     38  H   UNL     1      30.094 -24.728 -11.851  0.00  0.00    +0.210 HD
ENDBRANCH  36  37
ENDBRANCH  25  36
ENDBRANCH  24  25
ENDBRANCH  23  24
ENDBRANCH   1  23
TORSDOF 10
ENDMDL
MODEL 3
REMARK VINA RESULT:     -11.6      7.326     11.923
REMARK  Name = 447546
REMARK  10 active torsions:
REMARK  status: ('A' for Active; 'I' for Inactive)
REMARK    1  A    between atoms: N_1  and  C_23
REMARK    2  A    between atoms: C_8  and  N_11
REMARK    3  A    between atoms: N_12  and  C_16
REMARK    4  A    between atoms: C_16  and  C_17
REMARK    5  A    between atoms: C_23  and  C_24
REMARK    6  A    between atoms: C_24  and  C_25
REMARK    7  A    between atoms: C_25  and  N_26
REMARK    8  A    between atoms: C_25  and  C_36
REMARK    9  A    between atoms: C_30  and  C_33
REMARK   10  A    between atoms: C_36  and  O_37
REMARK                            x       y       z     vdW  Elec       q    Type
REMARK                         _______ _______ _______ _____ _____    ______ ____
ROOT
ATOM      1  N   UNL     1      34.764 -16.086 -22.827  0.00  0.00    -0.286 N 
ATOM      2  C   UNL     1      34.309 -14.918 -23.397  0.00  0.00    +0.053 C 
ATOM      3  C   UNL     1      33.900 -15.229 -24.697  0.00  0.00    +0.015 C 
ATOM      4  C   UNL     1      34.657 -17.120 -23.717  0.00  0.00    +0.065 C 
ATOM      5  C   UNL     1      34.125 -16.621 -24.883  0.00  0.00    +0.017 C 
ATOM      6  C   UNL     1      34.229 -13.625 -22.868  0.00  0.00    +0.030 C 
ATOM      7  C   UNL     1      33.386 -14.199 -25.510  0.00  0.00    +0.003 C 
ATOM      8  C   UNL     1      33.715 -12.621 -23.694  0.00  0.00    +0.053 C 
ATOM      9  C   UNL     1      33.299 -12.901 -24.994  0.00  0.00    +0.015 C 
ENDROOT
BRANCH   8  11
ATOM     10  O   UNL     1      31.773 -11.418 -21.747  0.00  0.00    -0.252 OA
ATOM     11  N   UNL     1      33.615 -11.317 -23.205  0.00  0.00    -0.268 N 
ATOM     12  N   UNL     1      32.922  -9.435 -22.053  0.00  0.00    -0.285 N 
ATOM     13  C   UNL     1      32.683 -10.794 -22.286  0.00  0.00    +0.305 C 
ATOM     14  H   UNL     1      34.285 -10.680 -23.545  0.00  0.00    +0.156 HD
ATOM     15  H   UNL     1      33.671  -9.003 -22.523  0.00  0.00    +0.151 HD
BRANCH  12  16
ATOM     16  C   UNL     1      32.120  -8.637 -21.154  0.00  0.00    +0.118 C 
BRANCH  16  17
ATOM     17  C   UNL     1      31.642  -7.370 -21.802  0.00  0.00    -0.003 C 
ATOM     18  C   UNL     1      31.446  -7.323 -23.181  0.00  0.00    -0.003 C 
ATOM     19  C   UNL     1      31.393  -6.240 -21.023  0.00  0.00    -0.003 C 
ATOM     20  C   UNL     1      31.001  -6.145 -23.783  0.00  0.00    -0.000 C 
ATOM     21  C   UNL     1      30.948  -5.063 -21.625  0.00  0.00    -0.000 C 
ATOM     22  C   UNL     1      30.752  -5.016 -23.005  0.00  0.00    -0.000 C 
ENDBRANCH  16  17
ENDBRANCH  12  16
ENDBRANCH   8  11
BRANCH   1  23
ATOM     23  C   UNL     1      35.285 -16.218 -21.483  0.00  0.00    +0.097 C 
BRANCH  23  24
ATOM     24  C   UNL     1      35.003 -17.577 -20.827  0.00  0.00    +0.040 C 
BRANCH  24  25
ATOM     25  C   UNL     1      36.254 -18.436 -20.536  0.00  0.00    +0.091 C 
BRANCH  25  26
ATOM     26  N   UNL     1      35.946 -19.723 -19.889  0.00  0.00    -0.246 NA
ATOM     27  N   UNL     1      36.105 -21.633 -18.768  0.00  0.00    -0.251 NA
ATOM     28  C   UNL     1      34.725 -20.348 -19.847  0.00  0.00    +0.125 C 
ATOM     29  C   UNL     1      36.755 -20.523 -19.230  0.00  0.00    +0.201 C 
ATOM     30  C   UNL     1      34.798 -21.535 -19.156  0.00  0.00    +0.124 C 
BRANCH  30  33
ATOM     31  O   UNL     1      33.896 -23.719 -19.087  0.00  0.00    -0.269 OA
ATOM     32  N   UNL     1      32.580 -22.025 -18.318  0.00  0.00    -0.324 N 
ATOM     33  C   UNL     1      33.776 -22.488 -18.878  0.00  0.00    +0.257 C 
ATOM     34  H   UNL     1      31.854 -22.658 -18.114  0.00  0.00    +0.145 HD
ATOM     35  H   UNL     1      32.463 -21.065 -18.128  0.00  0.00    +0.145 HD
ENDBRANCH  30  33
ENDBRANCH  25  26
BRANCH  25  36
ATOM     36  C   UNL     1      37.066 -18.663 -21.822  0.00  0.00    +0.153 C 
BRANCH  36  37
ATOM     37  O   UNL     1      38.428 -18.316 -21.596  0.00  0.00    -0.381 OA
ATOM     38  H   UNL     1      38.626 -17.479 -22.044  0.00  0.00    +0.210 HD
ENDBRANCH  36  37
ENDBRANCH  25  36
ENDBRANCH  24  25
ENDBRANCH  23  24
ENDBRANCH   1  23
TORSDOF 10
ENDMDL
MODEL 4
REMARK VINA RESULT:     -11.3      8.711     15.136
REMARK  Name = 447546
REMARK  10 active torsions:
REMARK  status: ('A' for Active; 'I' for Inactive)
REMARK    1  A    between atoms: N_1  and  C_23
REMARK    2  A    between atoms: C_8  and  N_11
REMARK    3  A    between atoms: N_12  and  C_16
REMARK    4  A    between atoms: C_16  and  C_17
REMARK    5  A    between atoms: C_23  and  C_24
REMARK    6  A    between atoms: C_24  and  C_25
REMARK    7  A    between atoms: C_25  and  N_26
REMARK    8  A    between atoms: C_25  and  C_36
REMARK    9  A    between atoms: C_30  and  C_33
REMARK   10  A    between atoms: C_36  and  O_37
REMARK                            x       y       z     vdW  Elec       q    Type
REMARK                         _______ _______ _______ _____ _____    ______ ____
ROOT
ATOM      1  N   UNL     1      33.705 -12.054 -24.125  0.00  0.00    -0.286 N 
ATOM      2  C   UNL     1      33.963 -13.400 -23.993  0.00  0.00    +0.053 C 
ATOM      3  C   UNL     1      33.680 -13.994 -25.225  0.00  0.00    +0.015 C 
ATOM      4  C   UNL     1      33.272 -11.778 -25.394  0.00  0.00    +0.065 C 
ATOM      5  C   UNL     1      33.247 -12.959 -26.099  0.00  0.00    +0.017 C 
ATOM      6  C   UNL     1      34.418 -14.129 -22.889  0.00  0.00    +0.030 C 
ATOM      7  C   UNL     1      33.861 -15.385 -25.364  0.00  0.00    +0.003 C 
ATOM      8  C   UNL     1      34.590 -15.507 -23.051  0.00  0.00    +0.053 C 
ATOM      9  C   UNL     1      34.317 -16.127 -24.269  0.00  0.00    +0.015 C 
ENDROOT
BRANCH   8  11
ATOM     10  O   UNL     1      35.693 -18.297 -22.978  0.00  0.00    -0.252 OA
ATOM     11  N   UNL     1      35.045 -16.271 -21.975  0.00  0.00    -0.268 N 
ATOM     12  N   UNL     1      35.907 -17.994 -20.695  0.00  0.00    -0.285 N 
ATOM     13  C   UNL     1      35.558 -17.584 -21.987  0.00  0.00    +0.305 C 
ATOM     14  H   UNL     1      35.004 -15.835 -21.093  0.00  0.00    +0.156 HD
ATOM     15  H   UNL     1      35.770 -17.366 -19.951  0.00  0.00    +0.151 HD
BRANCH  12  16
ATOM     16  C   UNL     1      36.459 -19.297 -20.405  0.00  0.00    +0.118 C 
BRANCH  16  17
ATOM     17  C   UNL     1      35.430 -20.230 -19.837  0.00  0.00    -0.003 C 
ATOM     18  C   UNL     1      35.819 -21.270 -18.995  0.00  0.00    -0.003 C 
ATOM     19  C   UNL     1      34.081 -20.054 -20.150  0.00  0.00    -0.003 C 
ATOM     20  C   UNL     1      34.862 -22.137 -18.468  0.00  0.00    -0.000 C 
ATOM     21  C   UNL     1      33.124 -20.921 -19.623  0.00  0.00    -0.000 C 
ATOM     22  C   UNL     1      33.515 -21.962 -18.781  0.00  0.00    -0.000 C 
ENDBRANCH  16  17
ENDBRANCH  12  16
ENDBRANCH   8  11
BRANCH   1  23
ATOM     23  C   UNL     1      33.863 -11.061 -23.084  0.00  0.00    +0.097 C 
BRANCH  23  24
ATOM     24  C   UNL     1      32.687 -10.082 -22.961  0.00  0.00    +0.040 C 
BRANCH  24  25
ATOM     25  C   UNL     1      32.307  -9.691 -21.515  0.00  0.00    +0.091 C 
BRANCH  25  26
ATOM     26  N   UNL     1      32.276  -8.236 -21.287  0.00  0.00    -0.246 NA
ATOM     27  N   UNL     1      32.736  -6.182 -20.583  0.00  0.00    -0.251 NA
ATOM     28  C   UNL     1      31.380  -7.343 -21.821  0.00  0.00    +0.125 C 
ATOM     29  C   UNL     1      33.078  -7.504 -20.547  0.00  0.00    +0.201 C 
ATOM     30  C   UNL     1      31.646  -6.061 -21.398  0.00  0.00    +0.124 C 
BRANCH  30  33
ATOM     31  O   UNL     1      29.787  -4.602 -21.375  0.00  0.00    -0.269 OA
ATOM     32  N   UNL     1      31.681  -3.857 -22.400  0.00  0.00    -0.324 N 
ATOM     33  C   UNL     1      30.972  -4.845 -21.706  0.00  0.00    +0.257 C 
ATOM     34  H   UNL     1      31.243  -3.006 -22.629  0.00  0.00    +0.145 HD
ATOM     35  H   UNL     1      32.618  -4.014 -22.660  0.00  0.00    +0.145 HD
ENDBRANCH  30  33
ENDBRANCH  25  26
BRANCH  25  36
ATOM     36  C   UNL     1      30.964 -10.326 -21.118  0.00  0.00    +0.153 C 
BRANCH  36  37
ATOM     37  O   UNL     1      31.105 -11.740 -21.047  0.00  0.00    -0.381 OA
ATOM     38  H   UNL     1      30.776 -12.138 -21.868  0.00  0.00    +0.210 HD
ENDBRANCH  36  37
ENDBRANCH  25  36
ENDBRANCH  24  25
ENDBRANCH  23  24
ENDBRANCH   1  23
TORSDOF 10
ENDMDL
MODEL 5
REMARK VINA RESULT:     -11.2      2.523      6.525
REMARK  Name = 447546
REMARK  10 active torsions:
REMARK  status: ('A' for Active; 'I' for Inactive)
REMARK    1  A    between atoms: N_1  and  C_23
REMARK    2  A    between atoms: C_8  and  N_11
REMARK    3  A    between atoms: N_12  and  C_16
REMARK    4  A    between atoms: C_16  and  C_17
REMARK    5  A    between atoms: C_23  and  C_24
REMARK    6  A    between atoms: C_24  and  C_25
REMARK    7  A    between atoms: C_25  and  N_26
REMARK    8  A    between atoms: C_25  and  C_36
REMARK    9  A    between atoms: C_30  and  C_33
REMARK   10  A    between atoms: C_36  and  O_37
REMARK                            x       y       z     vdW  Elec       q    Type
REMARK                         _______ _______ _______ _____ _____    ______ ____
ROOT
ATOM      1  N   UNL     1      35.432 -23.761 -13.153  0.00  0.00    -0.286 N 
ATOM      2  C   UNL     1      36.174 -23.294 -14.214  0.00  0.00    +0.053 C 
ATOM      3  C   UNL     1      37.461 -23.822 -14.078  0.00  0.00    +0.015 C 
ATOM      4  C   UNL     1      36.202 -24.563 -12.354  0.00  0.00    +0.065 C 
ATOM      5  C   UNL     1      37.462 -24.620 -12.901  0.00  0.00    +0.017 C 
ATOM      6  C   UNL     1      35.810 -22.454 -15.273  0.00  0.00    +0.030 C 
ATOM      7  C   UNL     1      38.432 -23.495 -15.045  0.00  0.00    +0.003 C 
ATOM      8  C   UNL     1      36.791 -22.145 -16.220  0.00  0.00    +0.053 C 
ATOM      9  C   UNL     1      38.082 -22.658 -16.110  0.00  0.00    +0.015 C 
ENDROOT
BRANCH   8  11
ATOM     10  O   UNL     1      35.071 -22.654 -18.625  0.00  0.00    -0.252 OA
ATOM     11  N   UNL     1      36.468 -21.313 -17.293  0.00  0.00    -0.268 N 
ATOM     12  N   UNL     1      35.579 -20.490 -19.262  0.00  0.00    -0.285 N 
ATOM     13  C   UNL     1      35.652 -21.595 -18.406  0.00  0.00    +0.305 C 
ATOM     14  H   UNL     1      36.862 -20.410 -17.267  0.00  0.00    +0.156 HD
ATOM     15  H   UNL     1      36.072 -19.675 -19.019  0.00  0.00    +0.151 HD
BRANCH  12  16
ATOM     16  C   UNL     1      34.811 -20.492 -20.486  0.00  0.00    +0.118 C 
BRANCH  16  17
ATOM     17  C   UNL     1      34.942 -19.196 -21.233  0.00  0.00    -0.003 C 
ATOM     18  C   UNL     1      35.379 -18.050 -20.571  0.00  0.00    -0.003 C 
ATOM     19  C   UNL     1      34.625 -19.139 -22.591  0.00  0.00    -0.003 C 
ATOM     20  C   UNL     1      35.500 -16.846 -21.266  0.00  0.00    -0.000 C 
ATOM     21  C   UNL     1      34.746 -17.935 -23.285  0.00  0.00    -0.000 C 
ATOM     22  C   UNL     1      35.184 -16.789 -22.622  0.00  0.00    -0.000 C 
ENDBRANCH  16  17
ENDBRANCH  12  16
ENDBRANCH   8  11
BRANCH   1  23
ATOM     23  C   UNL     1      34.039 -23.457 -12.902  0.00  0.00    +0.097 C 
BRANCH  23  24
ATOM     24  C   UNL     1      33.072 -24.009 -13.959  0.00  0.00    +0.040 C 
BRANCH  24  25
ATOM     25  C   UNL     1      31.572 -23.845 -13.625  0.00  0.00    +0.091 C 
BRANCH  25  26
ATOM     26  N   UNL     1      30.765 -23.368 -14.761  0.00  0.00    -0.246 NA
ATOM     27  N   UNL     1      30.127 -22.511 -16.707  0.00  0.00    -0.251 NA
ATOM     28  C   UNL     1      29.397 -23.397 -14.863  0.00  0.00    +0.125 C 
ATOM     29  C   UNL     1      31.174 -22.828 -15.888  0.00  0.00    +0.201 C 
ATOM     30  C   UNL     1      28.977 -22.871 -16.063  0.00  0.00    +0.124 C 
BRANCH  30  33
ATOM     31  O   UNL     1      27.286 -23.136 -17.693  0.00  0.00    -0.269 OA
ATOM     32  N   UNL     1      26.714 -22.064 -15.765  0.00  0.00    -0.324 N 
ATOM     33  C   UNL     1      27.657 -22.712 -16.572  0.00  0.00    +0.257 C 
ATOM     34  H   UNL     1      25.793 -21.938 -16.088  0.00  0.00    +0.145 HD
ATOM     35  H   UNL     1      26.972 -21.734 -14.874  0.00  0.00    +0.145 HD
ENDBRANCH  30  33
ENDBRANCH  25  26
BRANCH  25  36
ATOM     36  C   UNL     1      30.995 -25.159 -13.071  0.00  0.00    +0.153 C 
BRANCH  36  37
ATOM     37  O   UNL     1      30.341 -24.909 -11.832  0.00  0.00    -0.381 OA
ATOM     38  H   UNL     1      29.636 -25.562 -11.702  0.00  0.00    +0.210 HD
ENDBRANCH  36  37
ENDBRANCH  25  36
ENDBRANCH  24  25
ENDBRANCH  23  24
ENDBRANCH   1  23
TORSDOF 10
ENDMDL
MODEL 6
REMARK VINA RESULT:     -11.2      3.638      7.415
REMARK  Name = 447546
REMARK  10 active torsions:
REMARK  status: ('A' for Active; 'I' for Inactive)
REMARK    1  A    between atoms: N_1  and  C_23
REMARK    2  A    between atoms: C_8  and  N_11
REMARK    3  A    between atoms: N_12  and  C_16
REMARK    4  A    between atoms: C_16  and  C_17
REMARK    5  A    between atoms: C_23  and  C_24
REMARK    6  A    between atoms: C_24  and  C_25
REMARK    7  A    between atoms: C_25  and  N_26
REMARK    8  A    between atoms: C_25  and  C_36
REMARK    9  A    between atoms: C_30  and  C_33
REMARK   10  A    between atoms: C_36  and  O_37
REMARK                            x       y       z     vdW  Elec       q    Type
REMARK                         _______ _______ _______ _____ _____    ______ ____
ROOT
ATOM      1  N   UNL     1      34.658 -22.345 -17.403  0.00  0.00    -0.286 N 
ATOM      2  C   UNL     1      35.110 -21.501 -18.392  0.00  0.00    +0.053 C 
ATOM      3  C   UNL     1      36.459 -21.247 -18.130  0.00  0.00    +0.015 C 
ATOM      4  C   UNL     1      35.672 -22.634 -16.528  0.00  0.00    +0.065 C 
ATOM      5  C   UNL     1      36.798 -21.969 -16.952  0.00  0.00    +0.017 C 
ATOM      6  C   UNL     1      34.436 -20.948 -19.487  0.00  0.00    +0.030 C 
ATOM      7  C   UNL     1      37.171 -20.400 -19.003  0.00  0.00    +0.003 C 
ATOM      8  C   UNL     1      35.164 -20.111 -20.338  0.00  0.00    +0.053 C 
ATOM      9  C   UNL     1      36.510 -19.841 -20.102  0.00  0.00    +0.015 C 
ENDROOT
BRANCH   8  11
ATOM     10  O   UNL     1      36.267 -18.402 -22.545  0.00  0.00    -0.252 OA
ATOM     11  N   UNL     1      34.529 -19.541 -21.443  0.00  0.00    -0.268 N 
ATOM     12  N   UNL     1      34.116 -18.367 -23.392  0.00  0.00    -0.285 N 
ATOM     13  C   UNL     1      35.090 -18.742 -22.460  0.00  0.00    +0.305 C 
ATOM     14  H   UNL     1      33.564 -19.721 -21.523  0.00  0.00    +0.156 HD
ATOM     15  H   UNL     1      33.192 -18.678 -23.257  0.00  0.00    +0.151 HD
BRANCH  12  16
ATOM     16  C   UNL     1      34.404 -17.544 -24.544  0.00  0.00    +0.118 C 
BRANCH  16  17
ATOM     17  C   UNL     1      34.162 -16.088 -24.270  0.00  0.00    -0.003 C 
ATOM     18  C   UNL     1      34.708 -15.491 -23.135  0.00  0.00    -0.003 C 
ATOM     19  C   UNL     1      33.390 -15.331 -25.153  0.00  0.00    -0.003 C 
ATOM     20  C   UNL     1      34.483 -14.138 -22.881  0.00  0.00    -0.000 C 
ATOM     21  C   UNL     1      33.164 -13.979 -24.898  0.00  0.00    -0.000 C 
ATOM     22  C   UNL     1      33.712 -13.382 -23.762  0.00  0.00    -0.000 C 
ENDBRANCH  16  17
ENDBRANCH  12  16
ENDBRANCH   8  11
BRANCH   1  23
ATOM     23  C   UNL     1      33.311 -22.861 -17.289  0.00  0.00    +0.097 C 
BRANCH  23  24
ATOM     24  C   UNL     1      33.108 -23.845 -16.127  0.00  0.00    +0.040 C 
BRANCH  24  25
ATOM     25  C   UNL     1      32.249 -23.311 -14.959  0.00  0.00    +0.091 C 
BRANCH  25  26
ATOM     26  N   UNL     1      30.808 -23.568 -15.123  0.00  0.00    -0.246 NA
ATOM     27  N   UNL     1      28.784 -24.476 -15.029  0.00  0.00    -0.251 NA
ATOM     28  C   UNL     1      29.904 -22.774 -15.783  0.00  0.00    +0.125 C 
ATOM     29  C   UNL     1      30.101 -24.585 -14.680  0.00  0.00    +0.201 C 
ATOM     30  C   UNL     1      28.641 -23.317 -15.738  0.00  0.00    +0.124 C 
BRANCH  30  33
ATOM     31  O   UNL     1      27.072 -23.009 -17.479  0.00  0.00    -0.269 OA
ATOM     32  N   UNL     1      26.556 -22.121 -15.445  0.00  0.00    -0.324 N 
ATOM     33  C   UNL     1      27.422 -22.827 -16.289  0.00  0.00    +0.257 C 
ATOM     34  H   UNL     1      25.706 -21.769 -15.795  0.00  0.00    +0.145 HD
ATOM     35  H   UNL     1      26.797 -21.976 -14.501  0.00  0.00    +0.145 HD
ENDBRANCH  30  33
ENDBRANCH  25  26
BRANCH  25  36
ATOM     36  C   UNL     1      32.747 -23.879 -13.619  0.00  0.00    +0.153 C 
BRANCH  36  37
ATOM     37  O   UNL     1      32.509 -22.934 -12.581  0.00  0.00    -0.381 OA
ATOM     38  H   UNL     1      32.173 -22.110 -12.967  0.00  0.00    +0.210 HD
ENDBRANCH  36  37
ENDBRANCH  25  36
ENDBRANCH  24  25
ENDBRANCH  23  24
ENDBRANCH   1  23
TORSDOF 10
ENDMDL
MODEL 7
REMARK VINA RESULT:     -11.0      9.504     14.186
REMARK  Name = 447546
REMARK  10 active torsions:
REMARK  status: ('A' for Active; 'I' for Inactive)
REMARK    1  A    between atoms: N_1  and  C_23
REMARK    2  A    between atoms: C_8  and  N_11
REMARK    3  A    between atoms: N_12  and  C_16
REMARK    4  A    between atoms: C_16  and  C_17
REMARK    5  A    between atoms: C_23  and  C_24
REMARK    6  A    between atoms: C_24  and  C_25
REMARK    7  A    between atoms: C_25  and  N_26
REMARK    8  A    between atoms: C_25  and  C_36
REMARK    9  A    between atoms: C_30  and  C_33
REMARK   10  A    between atoms: C_36  and  O_37
REMARK                            x       y       z     vdW  Elec       q    Type
REMARK                         _______ _______ _______ _____ _____    ______ ____
ROOT
ATOM      1  N   UNL     1      33.160 -12.996 -21.958  0.00  0.00    -0.286 N 
ATOM      2  C   UNL     1      32.609 -11.748 -21.775  0.00  0.00    +0.053 C 
ATOM      3  C   UNL     1      31.943 -11.770 -20.546  0.00  0.00    +0.015 C 
ATOM      4  C   UNL     1      32.868 -13.803 -20.892  0.00  0.00    +0.065 C 
ATOM      5  C   UNL     1      32.116 -13.073 -20.002  0.00  0.00    +0.017 C 
ATOM      6  C   UNL     1      32.648 -10.613 -22.593  0.00  0.00    +0.030 C 
ATOM      7  C   UNL     1      31.283 -10.603 -20.113  0.00  0.00    +0.003 C 
ATOM      8  C   UNL     1      31.986  -9.468 -22.140  0.00  0.00    +0.053 C 
ATOM      9  C   UNL     1      31.315  -9.461 -20.919  0.00  0.00    +0.015 C 
ENDROOT
BRANCH   8  11
ATOM     10  O   UNL     1      33.477  -6.889 -21.773  0.00  0.00    -0.252 OA
ATOM     11  N   UNL     1      32.003  -8.313 -22.925  0.00  0.00    -0.268 N 
ATOM     12  N   UNL     1      32.466  -6.197 -23.734  0.00  0.00    -0.285 N 
ATOM     13  C   UNL     1      32.722  -7.120 -22.713  0.00  0.00    +0.305 C 
ATOM     14  H   UNL     1      31.439  -8.336 -23.732  0.00  0.00    +0.156 HD
ATOM     15  H   UNL     1      31.848  -6.454 -24.455  0.00  0.00    +0.151 HD
BRANCH  12  16
ATOM     16  C   UNL     1      33.067  -4.884 -23.777  0.00  0.00    +0.118 C 
BRANCH  16  17
ATOM     17  C   UNL     1      33.752  -4.623 -25.087  0.00  0.00    -0.003 C 
ATOM     18  C   UNL     1      33.026  -4.122 -26.167  0.00  0.00    -0.003 C 
ATOM     19  C   UNL     1      35.117  -4.880 -25.225  0.00  0.00    -0.003 C 
ATOM     20  C   UNL     1      33.662  -3.880 -27.384  0.00  0.00    -0.000 C 
ATOM     21  C   UNL     1      35.753  -4.637 -26.442  0.00  0.00    -0.000 C 
ATOM     22  C   UNL     1      35.025  -4.137 -27.521  0.00  0.00    -0.000 C 
ENDBRANCH  16  17
ENDBRANCH  12  16
ENDBRANCH   8  11
BRANCH   1  23
ATOM     23  C   UNL     1      33.938 -13.411 -23.106  0.00  0.00    +0.097 C 
BRANCH  23  24
ATOM     24  C   UNL     1      34.918 -14.559 -22.823  0.00  0.00    +0.040 C 
BRANCH  24  25
ATOM     25  C   UNL     1      34.797 -15.773 -23.771  0.00  0.00    +0.091 C 
BRANCH  25  26
ATOM     26  N   UNL     1      34.922 -17.071 -23.086  0.00  0.00    -0.246 NA
ATOM     27  N   UNL     1      34.769 -19.221 -22.557  0.00  0.00    -0.251 NA
ATOM     28  C   UNL     1      35.574 -17.313 -21.903  0.00  0.00    +0.125 C 
ATOM     29  C   UNL     1      34.448 -18.241 -23.453  0.00  0.00    +0.201 C 
ATOM     30  C   UNL     1      35.494 -18.641 -21.554  0.00  0.00    +0.124 C 
BRANCH  30  33
ATOM     31  O   UNL     1      37.137 -19.045 -19.904  0.00  0.00    -0.269 OA
ATOM     32  N   UNL     1      35.251 -20.321 -19.827  0.00  0.00    -0.324 N 
ATOM     33  C   UNL     1      36.025 -19.315 -20.417  0.00  0.00    +0.257 C 
ATOM     34  H   UNL     1      35.589 -20.806 -19.041  0.00  0.00    +0.145 HD
ATOM     35  H   UNL     1      34.366 -20.544 -20.199  0.00  0.00    +0.145 HD
ENDBRANCH  30  33
ENDBRANCH  25  26
BRANCH  25  36
ATOM     36  C   UNL     1      33.481 -15.710 -24.566  0.00  0.00    +0.153 C 
BRANCH  36  37
ATOM     37  O   UNL     1      33.758 -15.807 -25.959  0.00  0.00    -0.381 OA
ATOM     38  H   UNL     1      33.286 -15.103 -26.431  0.00  0.00    +0.210 HD
ENDBRANCH  36  37
ENDBRANCH  25  36
ENDBRANCH  24  25
ENDBRANCH  23  24
ENDBRANCH   1  23
TORSDOF 10
ENDMDL
MODEL 8
REMARK VINA RESULT:     -10.9      9.817     14.352
REMARK  Name = 447546
REMARK  10 active torsions:
REMARK  status: ('A' for Active; 'I' for Inactive)
REMARK    1  A    between atoms: N_1  and  C_23
REMARK    2  A    between atoms: C_8  and  N_11
REMARK    3  A    between atoms: N_12  and  C_16
REMARK    4  A    between atoms: C_16  and  C_17
REMARK    5  A    between atoms: C_23  and  C_24
REMARK    6  A    between atoms: C_24  and  C_25
REMARK    7  A    between atoms: C_25  and  N_26
REMARK    8  A    between atoms: C_25  and  C_36
REMARK    9  A    between atoms: C_30  and  C_33
REMARK   10  A    between atoms: C_36  and  O_37
REMARK                            x       y       z     vdW  Elec       q    Type
REMARK                         _______ _______ _______ _____ _____    ______ ____
ROOT
ATOM      1  N   UNL     1      33.167 -13.171 -21.928  0.00  0.00    -0.286 N 
ATOM      2  C   UNL     1      32.635 -11.921 -21.702  0.00  0.00    +0.053 C 
ATOM      3  C   UNL     1      32.038 -11.952 -20.439  0.00  0.00    +0.015 C 
ATOM      4  C   UNL     1      32.930 -13.987 -20.854  0.00  0.00    +0.065 C 
ATOM      5  C   UNL     1      32.233 -13.261 -19.917  0.00  0.00    +0.017 C 
ATOM      6  C   UNL     1      32.635 -10.779 -22.510  0.00  0.00    +0.030 C 
ATOM      7  C   UNL     1      31.410 -10.786 -19.957  0.00  0.00    +0.003 C 
ATOM      8  C   UNL     1      32.006  -9.634 -22.010  0.00  0.00    +0.053 C 
ATOM      9  C   UNL     1      31.403  -9.636 -20.754  0.00  0.00    +0.015 C 
ENDROOT
BRANCH   8  11
ATOM     10  O   UNL     1      33.616  -7.113 -21.773  0.00  0.00    -0.252 OA
ATOM     11  N   UNL     1      31.985  -8.472 -22.783  0.00  0.00    -0.268 N 
ATOM     12  N   UNL     1      32.441  -6.364 -23.617  0.00  0.00    -0.285 N 
ATOM     13  C   UNL     1      32.764  -7.307 -22.635  0.00  0.00    +0.305 C 
ATOM     14  H   UNL     1      31.344  -8.467 -23.530  0.00  0.00    +0.156 HD
ATOM     15  H   UNL     1      31.746  -6.592 -24.276  0.00  0.00    +0.151 HD
BRANCH  12  16
ATOM     16  C   UNL     1      33.081  -5.072 -23.710  0.00  0.00    +0.118 C 
BRANCH  16  17
ATOM     17  C   UNL     1      32.194  -3.968 -23.211  0.00  0.00    -0.003 C 
ATOM     18  C   UNL     1      31.950  -3.832 -21.846  0.00  0.00    -0.003 C 
ATOM     19  C   UNL     1      31.615  -3.077 -24.115  0.00  0.00    -0.003 C 
ATOM     20  C   UNL     1      31.126  -2.806 -21.383  0.00  0.00    -0.000 C 
ATOM     21  C   UNL     1      30.791  -2.051 -23.652  0.00  0.00    -0.000 C 
ATOM     22  C   UNL     1      30.547  -1.916 -22.286  0.00  0.00    -0.000 C 
ENDBRANCH  16  17
ENDBRANCH  12  16
ENDBRANCH   8  11
BRANCH   1  23
ATOM     23  C   UNL     1      33.877 -13.579 -23.121  0.00  0.00    +0.097 C 
BRANCH  23  24
ATOM     24  C   UNL     1      34.931 -14.670 -22.887  0.00  0.00    +0.040 C 
BRANCH  24  25
ATOM     25  C   UNL     1      34.811 -15.906 -23.806  0.00  0.00    +0.091 C 
BRANCH  25  26
ATOM     26  N   UNL     1      34.930 -17.187 -23.088  0.00  0.00    -0.246 NA
ATOM     27  N   UNL     1      34.764 -19.322 -22.503  0.00  0.00    -0.251 NA
ATOM     28  C   UNL     1      35.588 -17.404 -21.903  0.00  0.00    +0.125 C 
ATOM     29  C   UNL     1      34.445 -18.362 -23.422  0.00  0.00    +0.201 C 
ATOM     30  C   UNL     1      35.499 -18.722 -21.520  0.00  0.00    +0.124 C 
BRANCH  30  33
ATOM     31  O   UNL     1      37.132 -19.071 -19.847  0.00  0.00    -0.269 OA
ATOM     32  N   UNL     1      35.274 -20.389 -19.778  0.00  0.00    -0.324 N 
ATOM     33  C   UNL     1      36.033 -19.372 -20.370  0.00  0.00    +0.257 C 
ATOM     34  H   UNL     1      35.615 -20.857 -18.983  0.00  0.00    +0.145 HD
ATOM     35  H   UNL     1      34.400 -20.637 -20.158  0.00  0.00    +0.145 HD
ENDBRANCH  30  33
ENDBRANCH  25  26
BRANCH  25  36
ATOM     36  C   UNL     1      33.499 -15.860 -24.607  0.00  0.00    +0.153 C 
BRANCH  36  37
ATOM     37  O   UNL     1      33.788 -15.684 -25.989  0.00  0.00    -0.381 OA
ATOM     38  H   UNL     1      32.975 -15.444 -26.460  0.00  0.00    +0.210 HD
ENDBRANCH  36  37
ENDBRANCH  25  36
ENDBRANCH  24  25
ENDBRANCH  23  24
ENDBRANCH   1  23
TORSDOF 10
ENDMDL
MODEL 9
REMARK VINA RESULT:     -10.6      6.039     10.138
REMARK  Name = 447546
REMARK  10 active torsions:
REMARK  status: ('A' for Active; 'I' for Inactive)
REMARK    1  A    between atoms: N_1  and  C_23
REMARK    2  A    between atoms: C_8  and  N_11
REMARK    3  A    between atoms: N_12  and  C_16
REMARK    4  A    between atoms: C_16  and  C_17
REMARK    5  A    between atoms: C_23  and  C_24
REMARK    6  A    between atoms: C_24  and  C_25
REMARK    7  A    between atoms: C_25  and  N_26
REMARK    8  A    between atoms: C_25  and  C_36
REMARK    9  A    between atoms: C_30  and  C_33
REMARK   10  A    between atoms: C_36  and  O_37
REMARK                            x       y       z     vdW  Elec       q    Type
REMARK                         _______ _______ _______ _____ _____    ______ ____
ROOT
ATOM      1  N   UNL     1      34.911 -18.303 -22.216  0.00  0.00    -0.286 N 
ATOM      2  C   UNL     1      34.661 -17.140 -22.910  0.00  0.00    +0.053 C 
ATOM      3  C   UNL     1      34.275 -17.510 -24.201  0.00  0.00    +0.015 C 
ATOM      4  C   UNL     1      34.696 -19.390 -23.020  0.00  0.00    +0.065 C 
ATOM      5  C   UNL     1      34.302 -18.931 -24.255  0.00  0.00    +0.017 C 
ATOM      6  C   UNL     1      34.746 -15.805 -22.499  0.00  0.00    +0.030 C 
ATOM      7  C   UNL     1      33.958 -16.497 -25.129  0.00  0.00    +0.003 C 
ATOM      8  C   UNL     1      34.426 -14.819 -23.438  0.00  0.00    +0.053 C 
ATOM      9  C   UNL     1      34.038 -15.158 -24.732  0.00  0.00    +0.015 C 
ENDROOT
BRANCH   8  11
ATOM     10  O   UNL     1      33.451 -12.361 -24.855  0.00  0.00    -0.252 OA
ATOM     11  N   UNL     1      34.496 -13.475 -23.068  0.00  0.00    -0.268 N 
ATOM     12  N   UNL     1      34.286 -11.172 -23.056  0.00  0.00    -0.285 N 
ATOM     13  C   UNL     1      34.021 -12.348 -23.768  0.00  0.00    +0.305 C 
ATOM     14  H   UNL     1      34.932 -13.291 -22.204  0.00  0.00    +0.156 HD
ATOM     15  H   UNL     1      34.748 -11.242 -22.191  0.00  0.00    +0.151 HD
BRANCH  12  16
ATOM     16  C   UNL     1      33.912  -9.861 -23.534  0.00  0.00    +0.118 C 
BRANCH  16  17
ATOM     17  C   UNL     1      33.280  -9.029 -22.456  0.00  0.00    -0.003 C 
ATOM     18  C   UNL     1      33.750  -7.742 -22.201  0.00  0.00    -0.003 C 
ATOM     19  C   UNL     1      32.219  -9.545 -21.710  0.00  0.00    -0.003 C 
ATOM     20  C   UNL     1      33.162  -6.970 -21.199  0.00  0.00    -0.000 C 
ATOM     21  C   UNL     1      31.632  -8.772 -20.708  0.00  0.00    -0.000 C 
ATOM     22  C   UNL     1      32.103  -7.485 -20.453  0.00  0.00    -0.000 C 
ENDBRANCH  16  17
ENDBRANCH  12  16
ENDBRANCH   8  11
BRANCH   1  23
ATOM     23  C   UNL     1      35.340 -18.382 -20.836  0.00  0.00    +0.097 C 
BRANCH  23  24
ATOM     24  C   UNL     1      35.986 -19.720 -20.451  0.00  0.00    +0.040 C 
BRANCH  24  25
ATOM     25  C   UNL     1      35.024 -20.759 -19.833  0.00  0.00    +0.091 C 
BRANCH  25  26
ATOM     26  N   UNL     1      35.509 -21.328 -18.564  0.00  0.00    -0.246 NA
ATOM     27  N   UNL     1      36.778 -21.894 -16.832  0.00  0.00    -0.251 NA
ATOM     28  C   UNL     1      34.786 -22.088 -17.677  0.00  0.00    +0.125 C 
ATOM     29  C   UNL     1      36.704 -21.230 -18.024  0.00  0.00    +0.201 C 
ATOM     30  C   UNL     1      35.553 -22.450 -16.594  0.00  0.00    +0.124 C 
BRANCH  30  33
ATOM     31  O   UNL     1      35.337 -24.474 -15.393  0.00  0.00    -0.269 OA
ATOM     32  N   UNL     1      34.701 -22.561 -14.330  0.00  0.00    -0.324 N 
ATOM     33  C   UNL     1      35.203 -23.229 -15.454  0.00  0.00    +0.257 C 
ATOM     34  H   UNL     1      34.450 -23.070 -13.527  0.00  0.00    +0.145 HD
ATOM     35  H   UNL     1      34.600 -21.581 -14.344  0.00  0.00    +0.145 HD
ENDBRANCH  30  33
ENDBRANCH  25  26
BRANCH  25  36
ATOM     36  C   UNL     1      33.621 -20.156 -19.650  0.00  0.00    +0.153 C 
BRANCH  36  37
ATOM     37  O   UNL     1      32.636 -21.136 -19.954  0.00  0.00    -0.381 OA
ATOM     38  H   UNL     1      32.003 -21.195 -19.221  0.00  0.00    +0.210 HD
ENDBRANCH  36  37
ENDBRANCH  25  36
ENDBRANCH  24  25
ENDBRANCH  23  24
ENDBRANCH   1  23
TORSDOF 10
ENDMDL
