MODEL 1
REMARK VINA RESULT:     -11.6      0.000      0.000
REMARK  Name = 3055168
REMARK  6 active torsions:
REMARK  status: ('A' for Active; 'I' for Inactive)
REMARK    1  A    between atoms: C_1  and  C_21
REMARK    2  A    between atoms: C_4  and  O_7
REMARK    3  A    between atoms: O_7  and  C_8
REMARK    4  A    between atoms: C_8  and  C_12
REMARK    5  A    between atoms: C_17  and  O_19
REMARK    6  A    between atoms: C_21  and  C_26
REMARK                            x       y       z     vdW  Elec       q    Type
REMARK                         _______ _______ _______ _____ _____    ______ ____
ROOT
ATOM      1  C   UNL     1      35.084 -20.113 -20.209  0.00  0.00    -0.021 C 
ATOM      2  C   UNL     1      35.896 -21.004 -19.507  0.00  0.00    -0.001 C 
ATOM      3  C   UNL     1      33.697 -20.251 -20.165  0.00  0.00    -0.001 C 
ATOM      4  C   UNL     1      33.935 -22.165 -18.722  0.00  0.00    +0.139 C 
ATOM      5  C   UNL     1      35.320 -22.034 -18.762  0.00  0.00    +0.037 C 
ATOM      6  C   UNL     1      33.121 -21.278 -19.419  0.00  0.00    +0.037 C 
ENDROOT
BRANCH   4   7
ATOM      7  O   UNL     1      33.371 -23.174 -17.989  0.00  0.00    -0.466 OA
BRANCH   7   8
ATOM      8  C   UNL     1      32.855 -22.821 -16.707  0.00  0.00    +0.279 C 
BRANCH   8  12
ATOM      9  N   UNL     1      33.419 -23.436 -14.361  0.00  0.00    -0.274 N 
ATOM     10  N   UNL     1      34.945 -23.905 -15.907  0.00  0.00    -0.390 NA
ATOM     11  C   UNL     1      34.461 -24.018 -13.684  0.00  0.00    +0.153 C 
ATOM     12  C   UNL     1      33.756 -23.391 -15.685  0.00  0.00    +0.205 C 
ATOM     13  C   UNL     1      35.401 -24.301 -14.672  0.00  0.00    +0.133 C 
ATOM     14  C   UNL     1      34.655 -24.310 -12.334  0.00  0.00    +0.037 C 
ATOM     15  C   UNL     1      32.188 -22.959 -13.776  0.00  0.00    +0.115 C 
ATOM     16  C   UNL     1      36.613 -24.913 -14.308  0.00  0.00    +0.033 C 
ATOM     17  C   UNL     1      35.867 -24.920 -11.990  0.00  0.00    +0.137 C 
ATOM     18  C   UNL     1      36.829 -25.216 -12.958  0.00  0.00    +0.039 C 
BRANCH  17  19
ATOM     19  O   UNL     1      36.112 -25.228 -10.685  0.00  0.00    -0.472 OA
ATOM     20  C   UNL     1      35.764 -24.246  -9.711  0.00  0.00    +0.252 C 
ENDBRANCH  17  19
ENDBRANCH   8  12
ENDBRANCH   7   8
ENDBRANCH   4   7
BRANCH   1  21
ATOM     21  C   UNL     1      35.700 -19.013 -21.007  0.00  0.00    +0.047 C 
BRANCH  21  26
ATOM     22  S   UNL     1      35.053 -16.331 -21.025  0.00  0.00    -0.048 S 
ATOM     23  O   UNL     1      34.455 -19.005 -23.744  0.00  0.00    -0.274 OA
ATOM     24  O   UNL     1      35.330 -14.543 -22.933  0.00  0.00    -0.263 OA
ATOM     25  N   UNL     1      34.877 -16.740 -23.541  0.00  0.00    -0.246 N 
ATOM     26  C   UNL     1      34.661 -18.031 -21.542  0.00  0.00    +0.137 C 
ATOM     27  C   UNL     1      34.648 -18.011 -23.053  0.00  0.00    +0.239 C 
ATOM     28  C   UNL     1      35.110 -15.714 -22.663  0.00  0.00    +0.279 C 
ATOM     29  H   UNL     1      34.873 -16.572 -24.511  0.00  0.00    +0.158 HD
ENDBRANCH  21  26
ENDBRANCH   1  21
TORSDOF 6
ENDMDL
MODEL 2
REMARK VINA RESULT:     -11.4      2.836     10.904
REMARK  Name = 3055168
REMARK  6 active torsions:
REMARK  status: ('A' for Active; 'I' for Inactive)
REMARK    1  A    between atoms: C_1  and  C_21
REMARK    2  A    between atoms: C_4  and  O_7
REMARK    3  A    between atoms: O_7  and  C_8
REMARK    4  A    between atoms: C_8  and  C_12
REMARK    5  A    between atoms: C_17  and  O_19
REMARK    6  A    between atoms: C_21  and  C_26
REMARK                            x       y       z     vdW  Elec       q    Type
REMARK                         _______ _______ _______ _____ _____    ______ ____
ROOT
ATOM      1  C   UNL     1      34.171 -22.387 -18.043  0.00  0.00    -0.021 C 
ATOM      2  C   UNL     1      33.352 -21.644 -18.894  0.00  0.00    -0.001 C 
ATOM      3  C   UNL     1      35.547 -22.164 -18.030  0.00  0.00    -0.001 C 
ATOM      4  C   UNL     1      35.285 -20.461 -19.714  0.00  0.00    +0.139 C 
ATOM      5  C   UNL     1      33.911 -20.679 -19.732  0.00  0.00    +0.037 C 
ATOM      6  C   UNL     1      36.106 -21.198 -18.866  0.00  0.00    +0.037 C 
ENDROOT
BRANCH   4   7
ATOM      7  O   UNL     1      35.832 -19.513 -20.535  0.00  0.00    -0.466 OA
BRANCH   7   8
ATOM      8  C   UNL     1      35.235 -19.358 -21.821  0.00  0.00    +0.279 C 
BRANCH   8  12
ATOM      9  N   UNL     1      34.538 -17.427 -23.230  0.00  0.00    -0.274 N 
ATOM     10  N   UNL     1      35.226 -16.958 -21.169  0.00  0.00    -0.390 NA
ATOM     11  C   UNL     1      34.443 -16.063 -23.113  0.00  0.00    +0.153 C 
ATOM     12  C   UNL     1      35.010 -17.915 -22.044  0.00  0.00    +0.205 C 
ATOM     13  C   UNL     1      34.878 -15.796 -21.817  0.00  0.00    +0.133 C 
ATOM     14  C   UNL     1      34.028 -15.072 -24.002  0.00  0.00    +0.037 C 
ATOM     15  C   UNL     1      34.198 -18.204 -24.399  0.00  0.00    +0.115 C 
ATOM     16  C   UNL     1      34.907 -14.465 -21.366  0.00  0.00    +0.033 C 
ATOM     17  C   UNL     1      34.062 -13.754 -23.536  0.00  0.00    +0.137 C 
ATOM     18  C   UNL     1      34.493 -13.454 -22.241  0.00  0.00    +0.039 C 
BRANCH  17  19
ATOM     19  O   UNL     1      33.668 -12.743 -24.362  0.00  0.00    -0.472 OA
ATOM     20  C   UNL     1      34.072 -11.422 -24.006  0.00  0.00    +0.252 C 
ENDBRANCH  17  19
ENDBRANCH   8  12
ENDBRANCH   7   8
ENDBRANCH   4   7
BRANCH   1  21
ATOM     21  C   UNL     1      33.574 -23.419 -17.148  0.00  0.00    +0.047 C 
BRANCH  21  26
ATOM     22  S   UNL     1      32.196 -23.198 -14.768  0.00  0.00    -0.048 S 
ATOM     23  O   UNL     1      35.839 -24.310 -15.383  0.00  0.00    -0.274 OA
ATOM     24  O   UNL     1      32.110 -24.832 -12.709  0.00  0.00    -0.263 OA
ATOM     25  N   UNL     1      34.085 -24.696 -13.927  0.00  0.00    -0.246 N 
ATOM     26  C   UNL     1      33.772 -23.092 -15.670  0.00  0.00    +0.137 C 
ATOM     27  C   UNL     1      34.695 -24.087 -15.004  0.00  0.00    +0.239 C 
ATOM     28  C   UNL     1      32.787 -24.382 -13.622  0.00  0.00    +0.279 C 
ATOM     29  H   UNL     1      34.578 -25.352 -13.382  0.00  0.00    +0.158 HD
ENDBRANCH  21  26
ENDBRANCH   1  21
TORSDOF 6
ENDMDL
MODEL 3
REMARK VINA RESULT:     -11.4      1.340      2.132
REMARK  Name = 3055168
REMARK  6 active torsions:
REMARK  status: ('A' for Active; 'I' for Inactive)
REMARK    1  A    between atoms: C_1  and  C_21
REMARK    2  A    between atoms: C_4  and  O_7
REMARK    3  A    between atoms: O_7  and  C_8
REMARK    4  A    between atoms: C_8  and  C_12
REMARK    5  A    between atoms: C_17  and  O_19
REMARK    6  A    between atoms: C_21  and  C_26
REMARK                            x       y       z     vdW  Elec       q    Type
REMARK                         _______ _______ _______ _____ _____    ______ ____
ROOT
ATOM      1  C   UNL     1      35.293 -18.977 -20.564  0.00  0.00    -0.021 C 
ATOM      2  C   UNL     1      33.987 -19.449 -20.441  0.00  0.00    -0.001 C 
ATOM      3  C   UNL     1      36.360 -19.745 -20.097  0.00  0.00    -0.001 C 
ATOM      4  C   UNL     1      34.814 -21.452 -19.385  0.00  0.00    +0.139 C 
ATOM      5  C   UNL     1      33.746 -20.689 -19.849  0.00  0.00    +0.037 C 
ATOM      6  C   UNL     1      36.120 -20.986 -19.507  0.00  0.00    +0.037 C 
ENDROOT
BRANCH   4   7
ATOM      7  O   UNL     1      34.578 -22.669 -18.807  0.00  0.00    -0.466 OA
BRANCH   7   8
ATOM      8  C   UNL     1      33.513 -22.732 -17.860  0.00  0.00    +0.279 C 
BRANCH   8  12
ATOM      9  N   UNL     1      33.341 -23.381 -15.462  0.00  0.00    -0.274 N 
ATOM     10  N   UNL     1      35.381 -22.949 -16.232  0.00  0.00    -0.390 NA
ATOM     11  C   UNL     1      34.183 -23.566 -14.395  0.00  0.00    +0.153 C 
ATOM     12  C   UNL     1      34.104 -23.013 -16.535  0.00  0.00    +0.205 C 
ATOM     13  C   UNL     1      35.450 -23.291 -14.901  0.00  0.00    +0.133 C 
ATOM     14  C   UNL     1      33.951 -23.938 -13.071  0.00  0.00    +0.037 C 
ATOM     15  C   UNL     1      31.906 -23.546 -15.450  0.00  0.00    +0.115 C 
ATOM     16  C   UNL     1      36.564 -23.388 -14.050  0.00  0.00    +0.033 C 
ATOM     17  C   UNL     1      35.071 -24.031 -12.237  0.00  0.00    +0.137 C 
ATOM     18  C   UNL     1      36.355 -23.761 -12.716  0.00  0.00    +0.039 C 
BRANCH  17  19
ATOM     19  O   UNL     1      34.904 -24.390 -10.933  0.00  0.00    -0.472 OA
ATOM     20  C   UNL     1      35.964 -24.069 -10.033  0.00  0.00    +0.252 C 
ENDBRANCH  17  19
ENDBRANCH   8  12
ENDBRANCH   7   8
ENDBRANCH   4   7
BRANCH   1  21
ATOM     21  C   UNL     1      35.550 -17.650 -21.195  0.00  0.00    +0.047 C 
BRANCH  21  26
ATOM     22  S   UNL     1      34.557 -19.062 -23.348  0.00  0.00    -0.048 S 
ATOM     23  O   UNL     1      35.620 -15.357 -23.139  0.00  0.00    -0.274 OA
ATOM     24  O   UNL     1      32.740 -18.376 -25.121  0.00  0.00    -0.263 OA
ATOM     25  N   UNL     1      34.108 -16.713 -24.246  0.00  0.00    -0.246 N 
ATOM     26  C   UNL     1      35.632 -17.737 -22.717  0.00  0.00    +0.137 C 
ATOM     27  C   UNL     1      35.144 -16.463 -23.369  0.00  0.00    +0.239 C 
ATOM     28  C   UNL     1      33.644 -17.993 -24.393  0.00  0.00    +0.279 C 
ATOM     29  H   UNL     1      33.706 -15.977 -24.763  0.00  0.00    +0.158 HD
ENDBRANCH  21  26
ENDBRANCH   1  21
TORSDOF 6
ENDMDL
MODEL 4
REMARK VINA RESULT:     -11.3      2.945     11.028
REMARK  Name = 3055168
REMARK  6 active torsions:
REMARK  status: ('A' for Active; 'I' for Inactive)
REMARK    1  A    between atoms: C_1  and  C_21
REMARK    2  A    between atoms: C_4  and  O_7
REMARK    3  A    between atoms: O_7  and  C_8
REMARK    4  A    between atoms: C_8  and  C_12
REMARK    5  A    between atoms: C_17  and  O_19
REMARK    6  A    between atoms: C_21  and  C_26
REMARK                            x       y       z     vdW  Elec       q    Type
REMARK                         _______ _______ _______ _____ _____    ______ ____
ROOT
ATOM      1  C   UNL     1      34.046 -22.110 -18.599  0.00  0.00    -0.021 C 
ATOM      2  C   UNL     1      33.210 -21.256 -19.318  0.00  0.00    -0.001 C 
ATOM      3  C   UNL     1      35.431 -21.978 -18.700  0.00  0.00    -0.001 C 
ATOM      4  C   UNL     1      35.141 -20.143 -20.234  0.00  0.00    +0.139 C 
ATOM      5  C   UNL     1      33.759 -20.270 -20.138  0.00  0.00    +0.037 C 
ATOM      6  C   UNL     1      35.980 -20.992 -19.518  0.00  0.00    +0.037 C 
ENDROOT
BRANCH   4   7
ATOM      7  O   UNL     1      35.679 -19.174 -21.037  0.00  0.00    -0.466 OA
BRANCH   7   8
ATOM      8  C   UNL     1      35.597 -17.832 -20.562  0.00  0.00    +0.279 C 
BRANCH   8  12
ATOM      9  N   UNL     1      34.815 -15.669 -21.517  0.00  0.00    -0.274 N 
ATOM     10  N   UNL     1      35.042 -17.360 -22.940  0.00  0.00    -0.390 NA
ATOM     11  C   UNL     1      34.455 -15.168 -22.742  0.00  0.00    +0.153 C 
ATOM     12  C   UNL     1      35.156 -16.981 -21.687  0.00  0.00    +0.205 C 
ATOM     13  C   UNL     1      34.606 -16.243 -23.614  0.00  0.00    +0.133 C 
ATOM     14  C   UNL     1      34.024 -13.905 -23.150  0.00  0.00    +0.037 C 
ATOM     15  C   UNL     1      34.829 -14.936 -20.272  0.00  0.00    +0.115 C 
ATOM     16  C   UNL     1      34.313 -16.066 -24.977  0.00  0.00    +0.033 C 
ATOM     17  C   UNL     1      33.738 -13.747 -24.510  0.00  0.00    +0.137 C 
ATOM     18  C   UNL     1      33.879 -14.807 -25.409  0.00  0.00    +0.039 C 
BRANCH  17  19
ATOM     19  O   UNL     1      33.311 -12.535 -24.965  0.00  0.00    -0.472 OA
ATOM     20  C   UNL     1      33.721 -11.385 -24.228  0.00  0.00    +0.252 C 
ENDBRANCH  17  19
ENDBRANCH   8  12
ENDBRANCH   7   8
ENDBRANCH   4   7
BRANCH   1  21
ATOM     21  C   UNL     1      33.459 -23.165 -17.723  0.00  0.00    +0.047 C 
BRANCH  21  26
ATOM     22  S   UNL     1      31.825 -23.161 -15.500  0.00  0.00    -0.048 S 
ATOM     23  O   UNL     1      35.665 -23.484 -15.706  0.00  0.00    -0.274 OA
ATOM     24  O   UNL     1      31.872 -24.701 -13.370  0.00  0.00    -0.263 OA
ATOM     25  N   UNL     1      33.890 -24.187 -14.401  0.00  0.00    -0.246 N 
ATOM     26  C   UNL     1      33.429 -22.751 -16.255  0.00  0.00    +0.137 C 
ATOM     27  C   UNL     1      34.467 -23.499 -15.449  0.00  0.00    +0.239 C 
ATOM     28  C   UNL     1      32.531 -24.149 -14.238  0.00  0.00    +0.279 C 
ATOM     29  H   UNL     1      34.451 -24.701 -13.776  0.00  0.00    +0.158 HD
ENDBRANCH  21  26
ENDBRANCH   1  21
TORSDOF 6
ENDMDL
MODEL 5
REMARK VINA RESULT:     -11.2      4.601     11.963
REMARK  Name = 3055168
REMARK  6 active torsions:
REMARK  status: ('A' for Active; 'I' for Inactive)
REMARK    1  A    between atoms: C_1  and  C_21
REMARK    2  A    between atoms: C_4  and  O_7
REMARK    3  A    between atoms: O_7  and  C_8
REMARK    4  A    between atoms: C_8  and  C_12
REMARK    5  A    between atoms: C_17  and  O_19
REMARK    6  A    between atoms: C_21  and  C_26
REMARK                            x       y       z     vdW  Elec       q    Type
REMARK                         _______ _______ _______ _____ _____    ______ ____
ROOT
ATOM      1  C   UNL     1      34.922 -18.436 -22.111  0.00  0.00    -0.021 C 
ATOM      2  C   UNL     1      34.528 -18.168 -23.422  0.00  0.00    -0.001 C 
ATOM      3  C   UNL     1      35.300 -17.391 -21.269  0.00  0.00    -0.001 C 
ATOM      4  C   UNL     1      34.894 -15.815 -23.046  0.00  0.00    +0.139 C 
ATOM      5  C   UNL     1      34.515 -16.853 -23.891  0.00  0.00    +0.037 C 
ATOM      6  C   UNL     1      35.286 -16.077 -21.736  0.00  0.00    +0.037 C 
ENDROOT
BRANCH   4   7
ATOM      7  O   UNL     1      34.878 -14.526 -23.505  0.00  0.00    -0.466 OA
BRANCH   7   8
ATOM      8  C   UNL     1      33.640 -14.048 -24.027  0.00  0.00    +0.279 C 
BRANCH   8  12
ATOM      9  N   UNL     1      33.328 -11.660 -23.396  0.00  0.00    -0.274 N 
ATOM     10  N   UNL     1      32.505 -13.175 -21.994  0.00  0.00    -0.390 NA
ATOM     11  C   UNL     1      32.763 -10.943 -22.372  0.00  0.00    +0.153 C 
ATOM     12  C   UNL     1      33.149 -12.987 -23.124  0.00  0.00    +0.205 C 
ATOM     13  C   UNL     1      32.256 -11.912 -21.510  0.00  0.00    +0.133 C 
ATOM     14  C   UNL     1      32.655  -9.573 -22.134  0.00  0.00    +0.037 C 
ATOM     15  C   UNL     1      33.993 -11.106 -24.553  0.00  0.00    +0.115 C 
ATOM     16  C   UNL     1      31.599 -11.507 -20.335  0.00  0.00    +0.033 C 
ATOM     17  C   UNL     1      31.998  -9.188 -20.960  0.00  0.00    +0.137 C 
ATOM     18  C   UNL     1      31.479 -10.136 -20.076  0.00  0.00    +0.039 C 
BRANCH  17  19
ATOM     19  O   UNL     1      31.864  -7.861 -20.674  0.00  0.00    -0.472 OA
ATOM     20  C   UNL     1      33.001  -7.201 -20.121  0.00  0.00    +0.252 C 
ENDBRANCH  17  19
ENDBRANCH   8  12
ENDBRANCH   7   8
ENDBRANCH   4   7
BRANCH   1  21
ATOM     21  C   UNL     1      34.937 -19.841 -21.610  0.00  0.00    +0.047 C 
BRANCH  21  26
ATOM     22  S   UNL     1      32.966 -20.485 -19.790  0.00  0.00    -0.048 S 
ATOM     23  O   UNL     1      36.792 -20.899 -19.494  0.00  0.00    -0.274 OA
ATOM     24  O   UNL     1      32.681 -22.636 -18.303  0.00  0.00    -0.263 OA
ATOM     25  N   UNL     1      34.835 -21.906 -18.783  0.00  0.00    -0.246 N 
ATOM     26  C   UNL     1      34.668 -19.926 -20.110  0.00  0.00    +0.137 C 
ATOM     27  C   UNL     1      35.568 -20.942 -19.445  0.00  0.00    +0.239 C 
ATOM     28  C   UNL     1      33.467 -21.861 -18.829  0.00  0.00    +0.279 C 
ATOM     29  H   UNL     1      35.292 -22.621 -18.283  0.00  0.00    +0.158 HD
ENDBRANCH  21  26
ENDBRANCH   1  21
TORSDOF 6
ENDMDL
MODEL 6
REMARK VINA RESULT:     -11.1      3.047     10.753
REMARK  Name = 3055168
REMARK  6 active torsions:
REMARK  status: ('A' for Active; 'I' for Inactive)
REMARK    1  A    between atoms: C_1  and  C_21
REMARK    2  A    between atoms: C_4  and  O_7
REMARK    3  A    between atoms: O_7  and  C_8
REMARK    4  A    between atoms: C_8  and  C_12
REMARK    5  A    between atoms: C_17  and  O_19
REMARK    6  A    between atoms: C_21  and  C_26
REMARK                            x       y       z     vdW  Elec       q    Type
REMARK                         _______ _______ _______ _____ _____    ______ ____
ROOT
ATOM      1  C   UNL     1      35.529 -22.734 -16.340  0.00  0.00    -0.021 C 
ATOM      2  C   UNL     1      34.678 -22.592 -17.436  0.00  0.00    -0.001 C 
ATOM      3  C   UNL     1      36.727 -22.021 -16.290  0.00  0.00    -0.001 C 
ATOM      4  C   UNL     1      36.221 -21.027 -18.426  0.00  0.00    +0.139 C 
ATOM      5  C   UNL     1      35.026 -21.737 -18.482  0.00  0.00    +0.037 C 
ATOM      6  C   UNL     1      37.073 -21.165 -17.334  0.00  0.00    +0.037 C 
ENDROOT
BRANCH   4   7
ATOM      7  O   UNL     1      36.561 -20.187 -19.451  0.00  0.00    -0.466 OA
BRANCH   7   8
ATOM      8  C   UNL     1      35.703 -20.189 -20.591  0.00  0.00    +0.279 C 
BRANCH   8  12
ATOM      9  N   UNL     1      35.104 -18.405 -22.221  0.00  0.00    -0.274 N 
ATOM     10  N   UNL     1      35.437 -17.762 -20.120  0.00  0.00    -0.390 NA
ATOM     11  C   UNL     1      34.903 -17.048 -22.217  0.00  0.00    +0.153 C 
ATOM     12  C   UNL     1      35.421 -18.784 -20.946  0.00  0.00    +0.205 C 
ATOM     13  C   UNL     1      35.117 -16.671 -20.893  0.00  0.00    +0.133 C 
ATOM     14  C   UNL     1      34.564 -16.147 -23.226  0.00  0.00    +0.037 C 
ATOM     15  C   UNL     1      34.999 -19.275 -23.370  0.00  0.00    +0.115 C 
ATOM     16  C   UNL     1      34.988 -15.317 -20.538  0.00  0.00    +0.033 C 
ATOM     17  C   UNL     1      34.440 -14.804 -22.854  0.00  0.00    +0.137 C 
ATOM     18  C   UNL     1      34.648 -14.394 -21.535  0.00  0.00    +0.039 C 
BRANCH  17  19
ATOM     19  O   UNL     1      34.112 -13.877 -23.799  0.00  0.00    -0.472 OA
ATOM     20  C   UNL     1      34.118 -12.510 -23.394  0.00  0.00    +0.252 C 
ENDBRANCH  17  19
ENDBRANCH   8  12
ENDBRANCH   7   8
ENDBRANCH   4   7
BRANCH   1  21
ATOM     21  C   UNL     1      35.158 -23.649 -15.222  0.00  0.00    +0.047 C 
BRANCH  21  26
ATOM     22  S   UNL     1      36.486 -23.629 -12.804  0.00  0.00    -0.048 S 
ATOM     23  O   UNL     1      36.173 -26.474 -15.392  0.00  0.00    -0.274 OA
ATOM     24  O   UNL     1      36.563 -25.448 -10.906  0.00  0.00    -0.263 OA
ATOM     25  N   UNL     1      36.379 -26.163 -13.110  0.00  0.00    -0.246 N 
ATOM     26  C   UNL     1      36.381 -24.231 -14.517  0.00  0.00    +0.137 C 
ATOM     27  C   UNL     1      36.297 -25.738 -14.420  0.00  0.00    +0.239 C 
ATOM     28  C   UNL     1      36.484 -25.235 -12.107  0.00  0.00    +0.279 C 
ATOM     29  H   UNL     1      36.362 -27.124 -12.897  0.00  0.00    +0.158 HD
ENDBRANCH  21  26
ENDBRANCH   1  21
TORSDOF 6
ENDMDL
MODEL 7
REMARK VINA RESULT:     -11.1      1.861      2.719
REMARK  Name = 3055168
REMARK  6 active torsions:
REMARK  status: ('A' for Active; 'I' for Inactive)
REMARK    1  A    between atoms: C_1  and  C_21
REMARK    2  A    between atoms: C_4  and  O_7
REMARK    3  A    between atoms: O_7  and  C_8
REMARK    4  A    between atoms: C_8  and  C_12
REMARK    5  A    between atoms: C_17  and  O_19
REMARK    6  A    between atoms: C_21  and  C_26
REMARK                            x       y       z     vdW  Elec       q    Type
REMARK                         _______ _______ _______ _____ _____    ______ ____
ROOT
ATOM      1  C   UNL     1      35.566 -18.218 -22.348  0.00  0.00    -0.021 C 
ATOM      2  C   UNL     1      36.815 -18.241 -21.727  0.00  0.00    -0.001 C 
ATOM      3  C   UNL     1      34.534 -19.025 -21.868  0.00  0.00    -0.001 C 
ATOM      4  C   UNL     1      35.999 -19.874 -20.153  0.00  0.00    +0.139 C 
ATOM      5  C   UNL     1      37.032 -19.071 -20.627  0.00  0.00    +0.037 C 
ATOM      6  C   UNL     1      34.751 -19.854 -20.768  0.00  0.00    +0.037 C 
ENDROOT
BRANCH   4   7
ATOM      7  O   UNL     1      36.212 -20.686 -19.073  0.00  0.00    -0.466 OA
BRANCH   7   8
ATOM      8  C   UNL     1      35.193 -21.639 -18.779  0.00  0.00    +0.279 C 
BRANCH   8  12
ATOM      9  N   UNL     1      34.420 -22.733 -16.679  0.00  0.00    -0.274 N 
ATOM     10  N   UNL     1      36.525 -22.021 -16.714  0.00  0.00    -0.390 NA
ATOM     11  C   UNL     1      34.935 -23.053 -15.449  0.00  0.00    +0.153 C 
ATOM     12  C   UNL     1      35.407 -22.119 -17.398  0.00  0.00    +0.205 C 
ATOM     13  C   UNL     1      36.250 -22.597 -15.496  0.00  0.00    +0.133 C 
ATOM     14  C   UNL     1      34.381 -23.680 -14.334  0.00  0.00    +0.037 C 
ATOM     15  C   UNL     1      33.074 -23.001 -17.131  0.00  0.00    +0.115 C 
ATOM     16  C   UNL     1      37.076 -22.771 -14.371  0.00  0.00    +0.033 C 
ATOM     17  C   UNL     1      35.216 -23.845 -13.224  0.00  0.00    +0.137 C 
ATOM     18  C   UNL     1      36.540 -23.399 -13.240  0.00  0.00    +0.039 C 
BRANCH  17  19
ATOM     19  O   UNL     1      34.728 -24.452 -12.105  0.00  0.00    -0.472 OA
ATOM     20  C   UNL     1      35.608 -24.554 -10.987  0.00  0.00    +0.252 C 
ENDBRANCH  17  19
ENDBRANCH   8  12
ENDBRANCH   7   8
ENDBRANCH   4   7
BRANCH   1  21
ATOM     21  C   UNL     1      35.334 -17.332 -23.524  0.00  0.00    +0.047 C 
BRANCH  21  26
ATOM     22  S   UNL     1      34.632 -15.052 -22.137  0.00  0.00    -0.048 S 
ATOM     23  O   UNL     1      33.458 -16.254 -25.611  0.00  0.00    -0.274 OA
ATOM     24  O   UNL     1      34.386 -12.573 -22.980  0.00  0.00    -0.263 OA
ATOM     25  N   UNL     1      33.856 -14.294 -24.450  0.00  0.00    -0.246 N 
ATOM     26  C   UNL     1      34.170 -16.368 -23.305  0.00  0.00    +0.137 C 
ATOM     27  C   UNL     1      33.787 -15.665 -24.588  0.00  0.00    +0.239 C 
ATOM     28  C   UNL     1      34.270 -13.757 -23.259  0.00  0.00    +0.279 C 
ATOM     29  H   UNL     1      33.610 -13.706 -25.201  0.00  0.00    +0.158 HD
ENDBRANCH  21  26
ENDBRANCH   1  21
TORSDOF 6
ENDMDL
MODEL 8
REMARK VINA RESULT:     -11.0      1.774      2.278
REMARK  Name = 3055168
REMARK  6 active torsions:
REMARK  status: ('A' for Active; 'I' for Inactive)
REMARK    1  A    between atoms: C_1  and  C_21
REMARK    2  A    between atoms: C_4  and  O_7
REMARK    3  A    between atoms: O_7  and  C_8
REMARK    4  A    between atoms: C_8  and  C_12
REMARK    5  A    between atoms: C_17  and  O_19
REMARK    6  A    between atoms: C_21  and  C_26
REMARK                            x       y       z     vdW  Elec       q    Type
REMARK                         _______ _______ _______ _____ _____    ______ ____
ROOT
ATOM      1  C   UNL     1      35.363 -20.180 -20.160  0.00  0.00    -0.021 C 
ATOM      2  C   UNL     1      36.262 -21.002 -19.480  0.00  0.00    -0.001 C 
ATOM      3  C   UNL     1      33.990 -20.343 -19.973  0.00  0.00    -0.001 C 
ATOM      4  C   UNL     1      34.417 -22.145 -18.431  0.00  0.00    +0.139 C 
ATOM      5  C   UNL     1      35.787 -21.988 -18.614  0.00  0.00    +0.037 C 
ATOM      6  C   UNL     1      33.516 -21.327 -19.106  0.00  0.00    +0.037 C 
ENDROOT
BRANCH   4   7
ATOM      7  O   UNL     1      33.953 -23.110 -17.579  0.00  0.00    -0.466 OA
BRANCH   7   8
ATOM      8  C   UNL     1      33.980 -22.802 -16.187  0.00  0.00    +0.279 C 
BRANCH   8  12
ATOM      9  N   UNL     1      36.205 -23.268 -15.169  0.00  0.00    -0.274 N 
ATOM     10  N   UNL     1      34.779 -24.970 -15.267  0.00  0.00    -0.390 NA
ATOM     11  C   UNL     1      36.865 -24.332 -14.610  0.00  0.00    +0.153 C 
ATOM     12  C   UNL     1      34.963 -23.699 -15.546  0.00  0.00    +0.205 C 
ATOM     13  C   UNL     1      35.954 -25.382 -14.683  0.00  0.00    +0.133 C 
ATOM     14  C   UNL     1      38.143 -24.462 -14.064  0.00  0.00    +0.037 C 
ATOM     15  C   UNL     1      36.730 -21.931 -15.328  0.00  0.00    +0.115 C 
ATOM     16  C   UNL     1      36.323 -26.645 -14.187  0.00  0.00    +0.033 C 
ATOM     17  C   UNL     1      38.493 -25.724 -13.575  0.00  0.00    +0.137 C 
ATOM     18  C   UNL     1      37.601 -26.798 -13.634  0.00  0.00    +0.039 C 
BRANCH  17  19
ATOM     19  O   UNL     1      39.729 -25.911 -13.031  0.00  0.00    -0.472 OA
ATOM     20  C   UNL     1      40.764 -26.344 -13.911  0.00  0.00    +0.252 C 
ENDBRANCH  17  19
ENDBRANCH   8  12
ENDBRANCH   7   8
ENDBRANCH   4   7
BRANCH   1  21
ATOM     21  C   UNL     1      35.870 -19.128 -21.087  0.00  0.00    +0.047 C 
BRANCH  21  26
ATOM     22  S   UNL     1      35.149 -16.466 -20.996  0.00  0.00    -0.048 S 
ATOM     23  O   UNL     1      34.450 -19.092 -23.736  0.00  0.00    -0.274 OA
ATOM     24  O   UNL     1      35.250 -14.626 -22.873  0.00  0.00    -0.263 OA
ATOM     25  N   UNL     1      34.820 -16.821 -23.504  0.00  0.00    -0.246 N 
ATOM     26  C   UNL     1      34.771 -18.164 -21.529  0.00  0.00    +0.137 C 
ATOM     27  C   UNL     1      34.659 -18.109 -23.035  0.00  0.00    +0.239 C 
ATOM     28  C   UNL     1      35.081 -15.810 -22.619  0.00  0.00    +0.279 C 
ATOM     29  H   UNL     1      34.748 -16.631 -24.468  0.00  0.00    +0.158 HD
ENDBRANCH  21  26
ENDBRANCH   1  21
TORSDOF 6
ENDMDL
MODEL 9
REMARK VINA RESULT:     -11.0      2.519      3.615
REMARK  Name = 3055168
REMARK  6 active torsions:
REMARK  status: ('A' for Active; 'I' for Inactive)
REMARK    1  A    between atoms: C_1  and  C_21
REMARK    2  A    between atoms: C_4  and  O_7
REMARK    3  A    between atoms: O_7  and  C_8
REMARK    4  A    between atoms: C_8  and  C_12
REMARK    5  A    between atoms: C_17  and  O_19
REMARK    6  A    between atoms: C_21  and  C_26
REMARK                            x       y       z     vdW  Elec       q    Type
REMARK                         _______ _______ _______ _____ _____    ______ ____
ROOT
ATOM      1  C   UNL     1      35.496 -18.226 -22.172  0.00  0.00    -0.021 C 
ATOM      2  C   UNL     1      36.671 -18.314 -21.426  0.00  0.00    -0.001 C 
ATOM      3  C   UNL     1      34.393 -19.009 -21.831  0.00  0.00    -0.001 C 
ATOM      4  C   UNL     1      35.640 -19.963 -20.003  0.00  0.00    +0.139 C 
ATOM      5  C   UNL     1      36.743 -19.185 -20.338  0.00  0.00    +0.037 C 
ATOM      6  C   UNL     1      34.465 -19.879 -20.744  0.00  0.00    +0.037 C 
ENDROOT
BRANCH   4   7
ATOM      7  O   UNL     1      35.710 -20.816 -18.935  0.00  0.00    -0.466 OA
BRANCH   7   8
ATOM      8  C   UNL     1      35.190 -22.130 -19.131  0.00  0.00    +0.279 C 
BRANCH   8  12
ATOM      9  N   UNL     1      34.684 -22.661 -16.751  0.00  0.00    -0.274 N 
ATOM     10  N   UNL     1      32.943 -22.462 -18.119  0.00  0.00    -0.390 NA
ATOM     11  C   UNL     1      33.577 -22.885 -15.972  0.00  0.00    +0.153 C 
ATOM     12  C   UNL     1      34.253 -22.413 -18.025  0.00  0.00    +0.205 C 
ATOM     13  C   UNL     1      32.504 -22.754 -16.849  0.00  0.00    +0.133 C 
ATOM     14  C   UNL     1      33.429 -23.181 -14.617  0.00  0.00    +0.037 C 
ATOM     15  C   UNL     1      36.057 -22.684 -16.303  0.00  0.00    +0.115 C 
ATOM     16  C   UNL     1      31.197 -22.927 -16.361  0.00  0.00    +0.033 C 
ATOM     17  C   UNL     1      32.122 -23.349 -14.148  0.00  0.00    +0.137 C 
ATOM     18  C   UNL     1      31.024 -23.225 -15.004  0.00  0.00    +0.039 C 
BRANCH  17  19
ATOM     19  O   UNL     1      31.916 -23.641 -12.833  0.00  0.00    -0.472 OA
ATOM     20  C   UNL     1      30.698 -24.305 -12.500  0.00  0.00    +0.252 C 
ENDBRANCH  17  19
ENDBRANCH   8  12
ENDBRANCH   7   8
ENDBRANCH   4   7
BRANCH   1  21
ATOM     21  C   UNL     1      35.419 -17.295 -23.335  0.00  0.00    +0.047 C 
BRANCH  21  26
ATOM     22  S   UNL     1      34.624 -14.885 -22.254  0.00  0.00    -0.048 S 
ATOM     23  O   UNL     1      33.530 -16.558 -25.555  0.00  0.00    -0.274 OA
ATOM     24  O   UNL     1      34.302 -12.543 -23.406  0.00  0.00    -0.263 OA
ATOM     25  N   UNL     1      33.848 -14.455 -24.649  0.00  0.00    -0.246 N 
ATOM     26  C   UNL     1      34.221 -16.354 -23.248  0.00  0.00    +0.137 C 
ATOM     27  C   UNL     1      33.828 -15.834 -24.612  0.00  0.00    +0.239 C 
ATOM     28  C   UNL     1      34.229 -13.757 -23.533  0.00  0.00    +0.279 C 
ATOM     29  H   UNL     1      33.590 -13.975 -25.470  0.00  0.00    +0.158 HD
ENDBRANCH  21  26
ENDBRANCH   1  21
TORSDOF 6
ENDMDL
