MODEL 1
REMARK VINA RESULT:     -11.5      0.000      0.000
REMARK  Name = 56832738
REMARK  10 active torsions:
REMARK  status: ('A' for Active; 'I' for Inactive)
REMARK    1  A    between atoms: C_2  and  C_11
REMARK    2  A    between atoms: C_5  and  C_25
REMARK    3  A    between atoms: C_10  and  C_22
REMARK    4  A    between atoms: C_12  and  O_16
REMARK    5  A    between atoms: C_13  and  O_18
REMARK    6  A    between atoms: C_14  and  O_20
REMARK    7  A    between atoms: C_22  and  O_23
REMARK    8  A    between atoms: C_25  and  C_27
REMARK    9  A    between atoms: C_32  and  O_33
REMARK   10  A    between atoms: O_33  and  C_34
REMARK                            x       y       z     vdW  Elec       q    Type
REMARK                         _______ _______ _______ _____ _____    ______ ____
ROOT
ATOM      1 CL   UNL     1      30.794 -22.459 -16.796  0.00  0.00    -0.083 Cl
ATOM      2  C   UNL     1      34.448 -23.655 -14.428  0.00  0.00    +0.031 C 
ATOM      3  C   UNL     1      34.472 -23.743 -15.819  0.00  0.00    -0.003 C 
ATOM      4  C   UNL     1      33.302 -23.198 -13.778  0.00  0.00    +0.001 C 
ATOM      5  C   UNL     1      33.349 -23.376 -16.561  0.00  0.00    -0.007 C 
ATOM      6  C   UNL     1      32.179 -22.831 -14.519  0.00  0.00    +0.011 C 
ATOM      7  C   UNL     1      32.202 -22.920 -15.911  0.00  0.00    +0.054 C 
ENDROOT
BRANCH   2  11
ATOM      8  O   UNL     1      35.319 -24.497 -12.295  0.00  0.00    -0.326 OA
ATOM      9  O   UNL     1      36.546 -22.916 -13.474  0.00  0.00    -0.326 OA
ATOM     10  C   UNL     1      36.529 -24.266 -11.562  0.00  0.00    +0.176 C 
ATOM     11  C   UNL     1      35.668 -24.054 -13.622  0.00  0.00    +0.235 C 
ATOM     12  C   UNL     1      37.534 -25.381 -11.952  0.00  0.00    +0.169 C 
ATOM     13  C   UNL     1      36.478 -25.196 -14.278  0.00  0.00    +0.196 C 
ATOM     14  C   UNL     1      37.758 -25.504 -13.475  0.00  0.00    +0.172 C 
ATOM     15  C   UNL     1      36.908 -22.889 -12.086  0.00  0.00    +0.177 C 
BRANCH  12  16
ATOM     16  O   UNL     1      37.024 -26.630 -11.475  0.00  0.00    -0.379 OA
ATOM     17  H   UNL     1      37.111 -27.301 -12.169  0.00  0.00    +0.211 HD
ENDBRANCH  12  16
BRANCH  13  18
ATOM     18  O   UNL     1      35.679 -26.377 -14.342  0.00  0.00    -0.377 OA
ATOM     19  H   UNL     1      36.113 -27.029 -14.916  0.00  0.00    +0.211 HD
ENDBRANCH  13  18
BRANCH  14  20
ATOM     20  O   UNL     1      38.773 -24.583 -13.877  0.00  0.00    -0.379 OA
ATOM     21  H   UNL     1      39.082 -24.085 -13.104  0.00  0.00    +0.211 HD
ENDBRANCH  14  20
BRANCH  10  22
ATOM     22  C   UNL     1      36.225 -24.251 -10.070  0.00  0.00    +0.169 C 
BRANCH  22  23
ATOM     23  O   UNL     1      35.222 -25.215  -9.804  0.00  0.00    -0.379 OA
ATOM     24  H   UNL     1      34.833 -25.045  -8.931  0.00  0.00    +0.211 HD
ENDBRANCH  22  23
ENDBRANCH  10  22
ENDBRANCH   2  11
BRANCH   5  25
ATOM     25  C   UNL     1      33.414 -23.487 -18.050  0.00  0.00    +0.054 C 
BRANCH  25  27
ATOM     26  F   UNL     1      37.121 -20.686 -19.559  0.00  0.00    -0.201 F 
ATOM     27  C   UNL     1      33.941 -22.242 -18.733  0.00  0.00    -0.015 C 
ATOM     28  C   UNL     1      35.316 -22.030 -18.835  0.00  0.00    +0.029 C 
ATOM     29  C   UNL     1      33.050 -21.306 -19.260  0.00  0.00    -0.001 C 
ATOM     30  C   UNL     1      35.799 -20.884 -19.464  0.00  0.00    +0.174 C 
ATOM     31  C   UNL     1      33.533 -20.160 -19.888  0.00  0.00    +0.039 C 
ATOM     32  C   UNL     1      34.908 -19.948 -19.990  0.00  0.00    +0.166 C 
BRANCH  32  33
ATOM     33  O   UNL     1      35.380 -18.828 -20.604  0.00  0.00    -0.473 OA
BRANCH  33  34
ATOM     34  C   UNL     1      34.721 -18.420 -21.803  0.00  0.00    +0.206 C 
ATOM     35  C   UNL     1      35.053 -19.402 -22.906  0.00  0.00    +0.051 C 
ENDBRANCH  33  34
ENDBRANCH  32  33
ENDBRANCH  25  27
ENDBRANCH   5  25
TORSDOF 10
ENDMDL
MODEL 2
REMARK VINA RESULT:     -10.7      0.945      2.389
REMARK  Name = 56832738
REMARK  10 active torsions:
REMARK  status: ('A' for Active; 'I' for Inactive)
REMARK    1  A    between atoms: C_2  and  C_11
REMARK    2  A    between atoms: C_5  and  C_25
REMARK    3  A    between atoms: C_10  and  C_22
REMARK    4  A    between atoms: C_12  and  O_16
REMARK    5  A    between atoms: C_13  and  O_18
REMARK    6  A    between atoms: C_14  and  O_20
REMARK    7  A    between atoms: C_22  and  O_23
REMARK    8  A    between atoms: C_25  and  C_27
REMARK    9  A    between atoms: C_32  and  O_33
REMARK   10  A    between atoms: O_33  and  C_34
REMARK                            x       y       z     vdW  Elec       q    Type
REMARK                         _______ _______ _______ _____ _____    ______ ____
ROOT
ATOM      1 CL   UNL     1      30.975 -22.419 -16.524  0.00  0.00    -0.083 Cl
ATOM      2  C   UNL     1      34.658 -24.015 -14.457  0.00  0.00    +0.031 C 
ATOM      3  C   UNL     1      34.582 -24.050 -15.849  0.00  0.00    -0.003 C 
ATOM      4  C   UNL     1      33.601 -23.489 -13.713  0.00  0.00    +0.001 C 
ATOM      5  C   UNL     1      33.449 -23.559 -16.498  0.00  0.00    -0.007 C 
ATOM      6  C   UNL     1      32.468 -22.998 -14.363  0.00  0.00    +0.011 C 
ATOM      7  C   UNL     1      32.392 -23.033 -15.755  0.00  0.00    +0.054 C 
ENDROOT
BRANCH   2  11
ATOM      8  O   UNL     1      37.086 -23.857 -14.156  0.00  0.00    -0.326 OA
ATOM      9  O   UNL     1      36.071 -25.944 -14.078  0.00  0.00    -0.326 OA
ATOM     10  C   UNL     1      38.111 -24.818 -13.871  0.00  0.00    +0.176 C 
ATOM     11  C   UNL     1      35.889 -24.548 -13.751  0.00  0.00    +0.235 C 
ATOM     12  C   UNL     1      38.327 -24.832 -12.335  0.00  0.00    +0.169 C 
ATOM     13  C   UNL     1      35.801 -24.430 -12.212  0.00  0.00    +0.196 C 
ATOM     14  C   UNL     1      37.029 -25.068 -11.533  0.00  0.00    +0.172 C 
ATOM     15  C   UNL     1      37.459 -26.083 -14.410  0.00  0.00    +0.177 C 
BRANCH  12  16
ATOM     16  O   UNL     1      38.865 -23.564 -11.947  0.00  0.00    -0.379 OA
ATOM     17  H   UNL     1      39.055 -23.037 -12.739  0.00  0.00    +0.211 HD
ENDBRANCH  12  16
BRANCH  13  18
ATOM     18  O   UNL     1      35.731 -23.055 -11.838  0.00  0.00    -0.377 OA
ATOM     19  H   UNL     1      34.900 -22.890 -11.365  0.00  0.00    +0.211 HD
ENDBRANCH  13  18
BRANCH  14  20
ATOM     20  O   UNL     1      36.798 -26.473 -11.415  0.00  0.00    -0.379 OA
ATOM     21  H   UNL     1      37.003 -26.906 -12.259  0.00  0.00    +0.211 HD
ENDBRANCH  14  20
BRANCH  10  22
ATOM     22  C   UNL     1      39.378 -24.453 -14.634  0.00  0.00    +0.169 C 
BRANCH  22  23
ATOM     23  O   UNL     1      40.499 -24.849 -13.863  0.00  0.00    -0.379 OA
ATOM     24  H   UNL     1      40.514 -25.816 -13.788  0.00  0.00    +0.211 HD
ENDBRANCH  22  23
ENDBRANCH  10  22
ENDBRANCH   2  11
BRANCH   5  25
ATOM     25  C   UNL     1      33.406 -23.616 -17.991  0.00  0.00    +0.054 C 
BRANCH  25  27
ATOM     26  F   UNL     1      37.072 -20.683 -19.341  0.00  0.00    -0.201 F 
ATOM     27  C   UNL     1      33.917 -22.360 -18.665  0.00  0.00    -0.015 C 
ATOM     28  C   UNL     1      35.286 -22.091 -18.695  0.00  0.00    +0.029 C 
ATOM     29  C   UNL     1      33.020 -21.471 -19.256  0.00  0.00    -0.001 C 
ATOM     30  C   UNL     1      35.756 -20.935 -19.316  0.00  0.00    +0.174 C 
ATOM     31  C   UNL     1      33.490 -20.315 -19.877  0.00  0.00    +0.039 C 
ATOM     32  C   UNL     1      34.858 -20.047 -19.907  0.00  0.00    +0.166 C 
BRANCH  32  33
ATOM     33  O   UNL     1      35.316 -18.917 -20.513  0.00  0.00    -0.473 OA
BRANCH  33  34
ATOM     34  C   UNL     1      35.214 -18.857 -21.936  0.00  0.00    +0.206 C 
ATOM     35  C   UNL     1      35.434 -17.429 -22.385  0.00  0.00    +0.051 C 
ENDBRANCH  33  34
ENDBRANCH  32  33
ENDBRANCH  25  27
ENDBRANCH   5  25
TORSDOF 10
ENDMDL
MODEL 3
REMARK VINA RESULT:     -10.4      1.443      2.345
REMARK  Name = 56832738
REMARK  10 active torsions:
REMARK  status: ('A' for Active; 'I' for Inactive)
REMARK    1  A    between atoms: C_2  and  C_11
REMARK    2  A    between atoms: C_5  and  C_25
REMARK    3  A    between atoms: C_10  and  C_22
REMARK    4  A    between atoms: C_12  and  O_16
REMARK    5  A    between atoms: C_13  and  O_18
REMARK    6  A    between atoms: C_14  and  O_20
REMARK    7  A    between atoms: C_22  and  O_23
REMARK    8  A    between atoms: C_25  and  C_27
REMARK    9  A    between atoms: C_32  and  O_33
REMARK   10  A    between atoms: O_33  and  C_34
REMARK                            x       y       z     vdW  Elec       q    Type
REMARK                         _______ _______ _______ _____ _____    ______ ____
ROOT
ATOM      1 CL   UNL     1      30.707 -22.816 -16.554  0.00  0.00    -0.083 Cl
ATOM      2  C   UNL     1      34.307 -23.456 -13.905  0.00  0.00    +0.031 C 
ATOM      3  C   UNL     1      34.421 -23.658 -15.280  0.00  0.00    -0.003 C 
ATOM      4  C   UNL     1      33.088 -23.056 -13.358  0.00  0.00    +0.001 C 
ATOM      5  C   UNL     1      33.315 -23.463 -16.108  0.00  0.00    -0.007 C 
ATOM      6  C   UNL     1      31.982 -22.861 -14.185  0.00  0.00    +0.011 C 
ATOM      7  C   UNL     1      32.096 -23.064 -15.561  0.00  0.00    +0.054 C 
ENDROOT
BRANCH   2  11
ATOM      8  O   UNL     1      36.179 -24.912 -13.282  0.00  0.00    -0.326 OA
ATOM      9  O   UNL     1      35.081 -23.711 -11.626  0.00  0.00    -0.326 OA
ATOM     10  C   UNL     1      36.848 -25.187 -12.045  0.00  0.00    +0.176 C 
ATOM     11  C   UNL     1      35.509 -23.667 -13.006  0.00  0.00    +0.235 C 
ATOM     12  C   UNL     1      38.077 -24.245 -11.956  0.00  0.00    +0.169 C 
ATOM     13  C   UNL     1      36.567 -22.547 -13.138  0.00  0.00    +0.196 C 
ATOM     14  C   UNL     1      37.723 -22.753 -12.140  0.00  0.00    +0.172 C 
ATOM     15  C   UNL     1      35.743 -24.849 -11.055  0.00  0.00    +0.177 C 
BRANCH  12  16
ATOM     16  O   UNL     1      38.999 -24.614 -12.985  0.00  0.00    -0.379 OA
ATOM     17  H   UNL     1      39.751 -24.001 -12.981  0.00  0.00    +0.211 HD
ENDBRANCH  12  16
BRANCH  13  18
ATOM     18  O   UNL     1      37.097 -22.542 -14.463  0.00  0.00    -0.377 OA
ATOM     19  H   UNL     1      38.056 -22.393 -14.426  0.00  0.00    +0.211 HD
ENDBRANCH  13  18
BRANCH  14  20
ATOM     20  O   UNL     1      37.333 -22.204 -10.881  0.00  0.00    -0.379 OA
ATOM     21  H   UNL     1      38.084 -22.233 -10.268  0.00  0.00    +0.211 HD
ENDBRANCH  14  20
BRANCH  10  22
ATOM     22  C   UNL     1      37.237 -26.659 -11.992  0.00  0.00    +0.169 C 
BRANCH  22  23
ATOM     23  O   UNL     1      37.591 -27.079 -13.299  0.00  0.00    -0.379 OA
ATOM     24  H   UNL     1      37.008 -26.650 -13.945  0.00  0.00    +0.211 HD
ENDBRANCH  22  23
ENDBRANCH  10  22
ENDBRANCH   2  11
BRANCH   5  25
ATOM     25  C   UNL     1      33.478 -23.693 -17.576  0.00  0.00    +0.054 C 
BRANCH  25  27
ATOM     26  F   UNL     1      32.535 -19.730 -20.273  0.00  0.00    -0.201 F 
ATOM     27  C   UNL     1      33.941 -22.469 -18.338  0.00  0.00    -0.015 C 
ATOM     28  C   UNL     1      33.009 -21.645 -18.968  0.00  0.00    +0.029 C 
ATOM     29  C   UNL     1      35.301 -22.167 -18.412  0.00  0.00    -0.001 C 
ATOM     30  C   UNL     1      33.436 -20.518 -19.670  0.00  0.00    +0.174 C 
ATOM     31  C   UNL     1      35.728 -21.040 -19.114  0.00  0.00    +0.039 C 
ATOM     32  C   UNL     1      34.795 -20.216 -19.744  0.00  0.00    +0.166 C 
BRANCH  32  33
ATOM     33  O   UNL     1      35.214 -19.117 -20.429  0.00  0.00    -0.473 OA
BRANCH  33  34
ATOM     34  C   UNL     1      36.622 -18.955 -20.599  0.00  0.00    +0.206 C 
ATOM     35  C   UNL     1      36.883 -18.293 -21.935  0.00  0.00    +0.051 C 
ENDBRANCH  33  34
ENDBRANCH  32  33
ENDBRANCH  25  27
ENDBRANCH   5  25
TORSDOF 10
ENDMDL
MODEL 4
REMARK VINA RESULT:     -10.4      3.171      4.947
REMARK  Name = 56832738
REMARK  10 active torsions:
REMARK  status: ('A' for Active; 'I' for Inactive)
REMARK    1  A    between atoms: C_2  and  C_11
REMARK    2  A    between atoms: C_5  and  C_25
REMARK    3  A    between atoms: C_10  and  C_22
REMARK    4  A    between atoms: C_12  and  O_16
REMARK    5  A    between atoms: C_13  and  O_18
REMARK    6  A    between atoms: C_14  and  O_20
REMARK    7  A    between atoms: C_22  and  O_23
REMARK    8  A    between atoms: C_25  and  C_27
REMARK    9  A    between atoms: C_32  and  O_33
REMARK   10  A    between atoms: O_33  and  C_34
REMARK                            x       y       z     vdW  Elec       q    Type
REMARK                         _______ _______ _______ _____ _____    ______ ____
ROOT
ATOM      1 CL   UNL     1      37.092 -22.025 -17.120  0.00  0.00    -0.083 Cl
ATOM      2  C   UNL     1      33.162 -23.169 -15.214  0.00  0.00    +0.031 C 
ATOM      3  C   UNL     1      33.291 -23.213 -16.602  0.00  0.00    -0.003 C 
ATOM      4  C   UNL     1      34.243 -22.776 -14.425  0.00  0.00    +0.001 C 
ATOM      5  C   UNL     1      34.500 -22.862 -17.201  0.00  0.00    -0.007 C 
ATOM      6  C   UNL     1      35.453 -22.425 -15.025  0.00  0.00    +0.011 C 
ATOM      7  C   UNL     1      35.582 -22.469 -16.413  0.00  0.00    +0.054 C 
ENDROOT
BRANCH   2  11
ATOM      8  O   UNL     1      30.962 -24.221 -15.481  0.00  0.00    -0.326 OA
ATOM      9  O   UNL     1      31.167 -22.360 -14.106  0.00  0.00    -0.326 OA
ATOM     10  C   UNL     1      29.673 -23.973 -14.906  0.00  0.00    +0.176 C 
ATOM     11  C   UNL     1      31.848 -23.551 -14.562  0.00  0.00    +0.235 C 
ATOM     12  C   UNL     1      29.521 -24.904 -13.675  0.00  0.00    +0.169 C 
ATOM     13  C   UNL     1      32.027 -24.489 -13.346  0.00  0.00    +0.196 C 
ATOM     14  C   UNL     1      30.677 -24.775 -12.659  0.00  0.00    +0.172 C 
ATOM     15  C   UNL     1      29.810 -22.501 -14.548  0.00  0.00    +0.177 C 
BRANCH  12  16
ATOM     16  O   UNL     1      29.486 -26.257 -14.139  0.00  0.00    -0.379 OA
ATOM     17  H   UNL     1      29.745 -26.286 -15.073  0.00  0.00    +0.211 HD
ENDBRANCH  12  16
BRANCH  13  18
ATOM     18  O   UNL     1      32.597 -25.726 -13.773  0.00  0.00    -0.377 OA
ATOM     19  H   UNL     1      33.083 -26.130 -13.036  0.00  0.00    +0.211 HD
ENDBRANCH  13  18
BRANCH  14  20
ATOM     20  O   UNL     1      30.395 -23.702 -11.760  0.00  0.00    -0.379 OA
ATOM     21  H   UNL     1      30.610 -22.858 -12.187  0.00  0.00    +0.211 HD
ENDBRANCH  14  20
BRANCH  10  22
ATOM     22  C   UNL     1      28.593 -24.213 -15.954  0.00  0.00    +0.169 C 
BRANCH  22  23
ATOM     23  O   UNL     1      28.562 -23.101 -16.831  0.00  0.00    -0.379 OA
ATOM     24  H   UNL     1      27.660 -22.982 -17.170  0.00  0.00    +0.211 HD
ENDBRANCH  22  23
ENDBRANCH  10  22
ENDBRANCH   2  11
BRANCH   5  25
ATOM     25  C   UNL     1      34.597 -22.921 -18.692  0.00  0.00    +0.054 C 
BRANCH  25  27
ATOM     26  F   UNL     1      37.202 -19.240 -20.571  0.00  0.00    -0.201 F 
ATOM     27  C   UNL     1      34.682 -21.561 -19.353  0.00  0.00    -0.015 C 
ATOM     28  C   UNL     1      35.926 -21.013 -19.665  0.00  0.00    +0.029 C 
ATOM     29  C   UNL     1      33.515 -20.856 -19.649  0.00  0.00    -0.001 C 
ATOM     30  C   UNL     1      36.003 -19.761 -20.274  0.00  0.00    +0.174 C 
ATOM     31  C   UNL     1      33.592 -19.604 -20.257  0.00  0.00    +0.039 C 
ATOM     32  C   UNL     1      34.837 -19.056 -20.569  0.00  0.00    +0.166 C 
BRANCH  32  33
ATOM     33  O   UNL     1      34.911 -17.833 -21.163  0.00  0.00    -0.473 OA
BRANCH  33  34
ATOM     34  C   UNL     1      35.386 -17.793 -22.508  0.00  0.00    +0.206 C 
ATOM     35  C   UNL     1      34.388 -18.496 -23.403  0.00  0.00    +0.051 C 
ENDBRANCH  33  34
ENDBRANCH  32  33
ENDBRANCH  25  27
ENDBRANCH   5  25
TORSDOF 10
ENDMDL
MODEL 5
REMARK VINA RESULT:      -9.6      3.148      5.122
REMARK  Name = 56832738
REMARK  10 active torsions:
REMARK  status: ('A' for Active; 'I' for Inactive)
REMARK    1  A    between atoms: C_2  and  C_11
REMARK    2  A    between atoms: C_5  and  C_25
REMARK    3  A    between atoms: C_10  and  C_22
REMARK    4  A    between atoms: C_12  and  O_16
REMARK    5  A    between atoms: C_13  and  O_18
REMARK    6  A    between atoms: C_14  and  O_20
REMARK    7  A    between atoms: C_22  and  O_23
REMARK    8  A    between atoms: C_25  and  C_27
REMARK    9  A    between atoms: C_32  and  O_33
REMARK   10  A    between atoms: O_33  and  C_34
REMARK                            x       y       z     vdW  Elec       q    Type
REMARK                         _______ _______ _______ _____ _____    ______ ____
ROOT
ATOM      1 CL   UNL     1      35.506 -20.896 -19.275  0.00  0.00    -0.083 Cl
ATOM      2  C   UNL     1      36.665 -22.930 -15.414  0.00  0.00    +0.031 C 
ATOM      3  C   UNL     1      35.392 -23.137 -15.944  0.00  0.00    -0.003 C 
ATOM      4  C   UNL     1      37.571 -22.102 -16.077  0.00  0.00    +0.001 C 
ATOM      5  C   UNL     1      35.024 -22.514 -17.136  0.00  0.00    -0.007 C 
ATOM      6  C   UNL     1      37.202 -21.479 -17.269  0.00  0.00    +0.011 C 
ATOM      7  C   UNL     1      35.928 -21.685 -17.800  0.00  0.00    +0.054 C 
ENDROOT
BRANCH   2  11
ATOM      8  O   UNL     1      35.944 -24.231 -13.464  0.00  0.00    -0.326 OA
ATOM      9  O   UNL     1      37.602 -22.626 -13.202  0.00  0.00    -0.326 OA
ATOM     10  C   UNL     1      36.369 -24.279 -12.096  0.00  0.00    +0.176 C 
ATOM     11  C   UNL     1      37.066 -23.607 -14.118  0.00  0.00    +0.235 C 
ATOM     12  C   UNL     1      37.411 -25.420 -11.968  0.00  0.00    +0.169 C 
ATOM     13  C   UNL     1      38.137 -24.705 -14.317  0.00  0.00    +0.196 C 
ATOM     14  C   UNL     1      38.582 -25.300 -12.966  0.00  0.00    +0.172 C 
ATOM     15  C   UNL     1      36.963 -22.886 -11.945  0.00  0.00    +0.177 C 
BRANCH  12  16
ATOM     16  O   UNL     1      36.745 -26.663 -12.211  0.00  0.00    -0.379 OA
ATOM     17  H   UNL     1      36.971 -26.983 -13.098  0.00  0.00    +0.211 HD
ENDBRANCH  12  16
BRANCH  13  18
ATOM     18  O   UNL     1      37.607 -25.752 -15.130  0.00  0.00    -0.377 OA
ATOM     19  H   UNL     1      37.712 -25.519 -16.066  0.00  0.00    +0.211 HD
ENDBRANCH  13  18
BRANCH  14  20
ATOM     20  O   UNL     1      39.588 -24.451 -12.411  0.00  0.00    -0.379 OA
ATOM     21  H   UNL     1      39.195 -23.597 -12.174  0.00  0.00    +0.211 HD
ENDBRANCH  14  20
BRANCH  10  22
ATOM     22  C   UNL     1      35.159 -24.490 -11.194  0.00  0.00    +0.169 C 
BRANCH  22  23
ATOM     23  O   UNL     1      35.590 -25.125 -10.003  0.00  0.00    -0.379 OA
ATOM     24  H   UNL     1      35.016 -25.885  -9.816  0.00  0.00    +0.211 HD
ENDBRANCH  22  23
ENDBRANCH  10  22
ENDBRANCH   2  11
BRANCH   5  25
ATOM     25  C   UNL     1      33.649 -22.759 -17.671  0.00  0.00    +0.054 C 
BRANCH  25  27
ATOM     26  F   UNL     1      29.030 -22.389 -16.123  0.00  0.00    -0.201 F 
ATOM     27  C   UNL     1      32.596 -22.925 -16.595  0.00  0.00    -0.015 C 
ATOM     28  C   UNL     1      31.271 -22.575 -16.856  0.00  0.00    +0.029 C 
ATOM     29  C   UNL     1      32.951 -23.427 -15.343  0.00  0.00    -0.001 C 
ATOM     30  C   UNL     1      30.302 -22.728 -15.866  0.00  0.00    +0.174 C 
ATOM     31  C   UNL     1      31.981 -23.579 -14.353  0.00  0.00    +0.039 C 
ATOM     32  C   UNL     1      30.657 -23.229 -14.614  0.00  0.00    +0.166 C 
BRANCH  32  33
ATOM     33  O   UNL     1      29.711 -23.378 -13.646  0.00  0.00    -0.473 OA
BRANCH  33  34
ATOM     34  C   UNL     1      29.557 -24.682 -13.085  0.00  0.00    +0.206 C 
ATOM     35  C   UNL     1      29.023 -25.616 -14.150  0.00  0.00    +0.051 C 
ENDBRANCH  33  34
ENDBRANCH  32  33
ENDBRANCH  25  27
ENDBRANCH   5  25
TORSDOF 10
ENDMDL
MODEL 6
REMARK VINA RESULT:      -8.5      3.143      5.585
REMARK  Name = 56832738
REMARK  10 active torsions:
REMARK  status: ('A' for Active; 'I' for Inactive)
REMARK    1  A    between atoms: C_2  and  C_11
REMARK    2  A    between atoms: C_5  and  C_25
REMARK    3  A    between atoms: C_10  and  C_22
REMARK    4  A    between atoms: C_12  and  O_16
REMARK    5  A    between atoms: C_13  and  O_18
REMARK    6  A    between atoms: C_14  and  O_20
REMARK    7  A    between atoms: C_22  and  O_23
REMARK    8  A    between atoms: C_25  and  C_27
REMARK    9  A    between atoms: C_32  and  O_33
REMARK   10  A    between atoms: O_33  and  C_34
REMARK                            x       y       z     vdW  Elec       q    Type
REMARK                         _______ _______ _______ _____ _____    ______ ____
ROOT
ATOM      1 CL   UNL     1      35.526 -20.746 -19.246  0.00  0.00    -0.083 Cl
ATOM      2  C   UNL     1      36.564 -23.116 -15.546  0.00  0.00    +0.031 C 
ATOM      3  C   UNL     1      35.279 -23.206 -16.081  0.00  0.00    -0.003 C 
ATOM      4  C   UNL     1      37.518 -22.300 -16.154  0.00  0.00    +0.001 C 
ATOM      5  C   UNL     1      34.948 -22.478 -17.224  0.00  0.00    -0.007 C 
ATOM      6  C   UNL     1      37.186 -21.573 -17.297  0.00  0.00    +0.011 C 
ATOM      7  C   UNL     1      35.901 -21.662 -17.833  0.00  0.00    +0.054 C 
ENDROOT
BRANCH   2  11
ATOM      8  O   UNL     1      38.350 -23.984 -14.107  0.00  0.00    -0.326 OA
ATOM      9  O   UNL     1      36.438 -25.262 -14.432  0.00  0.00    -0.326 OA
ATOM     10  C   UNL     1      38.490 -25.168 -13.311  0.00  0.00    +0.176 C 
ATOM     11  C   UNL     1      36.924 -23.907 -14.304  0.00  0.00    +0.235 C 
ATOM     12  C   UNL     1      38.047 -24.818 -11.867  0.00  0.00    +0.169 C 
ATOM     13  C   UNL     1      36.323 -23.308 -13.012  0.00  0.00    +0.196 C 
ATOM     14  C   UNL     1      36.636 -24.194 -11.789  0.00  0.00    +0.172 C 
ATOM     15  C   UNL     1      37.532 -26.101 -14.037  0.00  0.00    +0.177 C 
BRANCH  12  16
ATOM     16  O   UNL     1      38.979 -23.876 -11.328  0.00  0.00    -0.379 OA
ATOM     17  H   UNL     1      39.368 -23.357 -12.049  0.00  0.00    +0.211 HD
ENDBRANCH  12  16
BRANCH  13  18
ATOM     18  O   UNL     1      36.865 -22.007 -12.787  0.00  0.00    -0.377 OA
ATOM     19  H   UNL     1      37.467 -21.778 -13.513  0.00  0.00    +0.211 HD
ENDBRANCH  13  18
BRANCH  14  20
ATOM     20  O   UNL     1      35.663 -25.238 -11.731  0.00  0.00    -0.379 OA
ATOM     21  H   UNL     1      35.962 -25.989 -12.267  0.00  0.00    +0.211 HD
ENDBRANCH  14  20
BRANCH  10  22
ATOM     22  C   UNL     1      39.931 -25.658 -13.376  0.00  0.00    +0.169 C 
BRANCH  22  23
ATOM     23  O   UNL     1      40.754 -24.583 -13.793  0.00  0.00    -0.379 OA
ATOM     24  H   UNL     1      41.296 -24.282 -13.047  0.00  0.00    +0.211 HD
ENDBRANCH  22  23
ENDBRANCH  10  22
ENDBRANCH   2  11
BRANCH   5  25
ATOM     25  C   UNL     1      33.560 -22.600 -17.766  0.00  0.00    +0.054 C 
BRANCH  25  27
ATOM     26  F   UNL     1      28.925 -22.370 -16.240  0.00  0.00    -0.201 F 
ATOM     27  C   UNL     1      32.504 -22.813 -16.701  0.00  0.00    -0.015 C 
ATOM     28  C   UNL     1      31.173 -22.488 -16.963  0.00  0.00    +0.029 C 
ATOM     29  C   UNL     1      32.864 -23.331 -15.457  0.00  0.00    -0.001 C 
ATOM     30  C   UNL     1      30.202 -22.684 -15.982  0.00  0.00    +0.174 C 
ATOM     31  C   UNL     1      31.893 -23.527 -14.477  0.00  0.00    +0.039 C 
ATOM     32  C   UNL     1      30.561 -23.203 -14.739  0.00  0.00    +0.166 C 
BRANCH  32  33
ATOM     33  O   UNL     1      29.614 -23.393 -13.780  0.00  0.00    -0.473 OA
BRANCH  33  34
ATOM     34  C   UNL     1      29.578 -24.674 -13.149  0.00  0.00    +0.206 C 
ATOM     35  C   UNL     1      28.986 -25.680 -14.113  0.00  0.00    +0.051 C 
ENDBRANCH  33  34
ENDBRANCH  32  33
ENDBRANCH  25  27
ENDBRANCH   5  25
TORSDOF 10
ENDMDL
