MODEL 1
REMARK VINA RESULT:     -11.6      0.000      0.000
REMARK  Name = 9933475
REMARK  8 active torsions:
REMARK  status: ('A' for Active; 'I' for Inactive)
REMARK    1  A    between atoms: C_3  and  O_13
REMARK    2  A    between atoms: C_4  and  O_11
REMARK    3  A    between atoms: C_9  and  O_23
REMARK    4  A    between atoms: O_13  and  C_14
REMARK    5  A    between atoms: C_14  and  C_15
REMARK    6  A    between atoms: C_15  and  C_16
REMARK    7  A    between atoms: C_16  and  N_17
REMARK    8  A    between atoms: O_23  and  C_31
REMARK                            x       y       z     vdW  Elec       q    Type
REMARK                         _______ _______ _______ _____ _____    ______ ____
ROOT
ATOM      1  N   UNL     1      33.993 -17.847 -25.091  0.00  0.00    -0.248 NA
ATOM      2  N   UNL     1      34.899 -19.546 -23.642  0.00  0.00    -0.214 NA
ATOM      3  C   UNL     1      34.083 -14.609 -23.396  0.00  0.00    +0.173 C 
ATOM      4  C   UNL     1      34.645 -14.942 -22.173  0.00  0.00    +0.169 C 
ATOM      5  C   UNL     1      33.867 -15.584 -24.369  0.00  0.00    +0.055 C 
ATOM      6  C   UNL     1      34.774 -17.248 -22.904  0.00  0.00    +0.141 C 
ATOM      7  C   UNL     1      34.206 -16.916 -24.145  0.00  0.00    +0.072 C 
ATOM      8  C   UNL     1      34.992 -16.265 -21.922  0.00  0.00    +0.029 C 
ATOM      9  C   UNL     1      35.099 -18.589 -22.717  0.00  0.00    +0.213 C 
ATOM     10  C   UNL     1      34.351 -19.112 -24.788  0.00  0.00    +0.253 C 
ENDROOT
BRANCH   4  11
ATOM     11  O   UNL     1      34.859 -13.997 -21.217  0.00  0.00    -0.469 OA
ATOM     12  C   UNL     1      33.808 -13.773 -20.278  0.00  0.00    +0.253 C 
ENDBRANCH   4  11
BRANCH   3  13
ATOM     13  O   UNL     1      33.731 -13.311 -23.665  0.00  0.00    -0.472 OA
BRANCH  13  14
ATOM     14  C   UNL     1      33.532 -12.970 -25.029  0.00  0.00    +0.203 C 
BRANCH  14  15
ATOM     15  C   UNL     1      33.813 -11.485 -25.211  0.00  0.00    +0.025 C 
BRANCH  15  16
ATOM     16  C   UNL     1      34.214 -10.825 -23.895  0.00  0.00    -0.074 C 
BRANCH  16  17
ATOM     17  N   UNL     1      33.132  -9.989 -23.398  0.00  0.00    +0.387 N 
ATOM     18  C   UNL     1      32.534 -10.517 -22.173  0.00  0.00    -0.077 C 
ATOM     19  C   UNL     1      33.583  -8.641 -23.051  0.00  0.00    -0.077 C 
ATOM     20  C   UNL     1      31.741  -9.333 -21.641  0.00  0.00    -0.025 C 
ATOM     21  C   UNL     1      32.427  -8.099 -22.221  0.00  0.00    -0.025 C 
ATOM     22  H   UNL     1      32.460  -9.972 -24.166  0.00  0.00    -0.080 HD
ENDBRANCH  16  17
ENDBRANCH  15  16
ENDBRANCH  14  15
ENDBRANCH  13  14
ENDBRANCH   3  13
BRANCH   9  23
ATOM     23  O   UNL     1      35.659 -19.010 -21.539  0.00  0.00    -0.437 OA
BRANCH  23  31
ATOM     24  F   UNL     1      36.815 -20.708 -19.716  0.00  0.00    -0.201 F 
ATOM     25  N   UNL     1      32.724 -22.107 -18.096  0.00  0.00    -0.316 N 
ATOM     26  C   UNL     1      34.664 -21.386 -18.928  0.00  0.00    +0.045 C 
ATOM     27  C   UNL     1      33.277 -21.260 -19.031  0.00  0.00    +0.050 C 
ATOM     28  C   UNL     1      33.710 -22.760 -17.409  0.00  0.00    +0.026 C 
ATOM     29  C   UNL     1      34.923 -22.334 -17.900  0.00  0.00    +0.014 C 
ATOM     30  C   UNL     1      35.479 -20.617 -19.783  0.00  0.00    +0.176 C 
ATOM     31  C   UNL     1      34.868 -19.765 -20.696  0.00  0.00    +0.174 C 
ATOM     32  C   UNL     1      32.661 -20.403 -19.949  0.00  0.00    +0.018 C 
ATOM     33  C   UNL     1      33.490 -19.651 -20.787  0.00  0.00    +0.041 C 
ATOM     34  C   UNL     1      33.389 -23.730 -16.345  0.00  0.00    +0.047 C 
ATOM     35  H   UNL     1      31.758 -22.225 -17.944  0.00  0.00    +0.152 HD
ENDBRANCH  23  31
ENDBRANCH   9  23
TORSDOF 8
ENDMDL
MODEL 2
REMARK VINA RESULT:     -11.3      3.141     10.952
REMARK  Name = 9933475
REMARK  8 active torsions:
REMARK  status: ('A' for Active; 'I' for Inactive)
REMARK    1  A    between atoms: C_3  and  O_13
REMARK    2  A    between atoms: C_4  and  O_11
REMARK    3  A    between atoms: C_9  and  O_23
REMARK    4  A    between atoms: O_13  and  C_14
REMARK    5  A    between atoms: C_14  and  C_15
REMARK    6  A    between atoms: C_15  and  C_16
REMARK    7  A    between atoms: C_16  and  N_17
REMARK    8  A    between atoms: O_23  and  C_31
REMARK                            x       y       z     vdW  Elec       q    Type
REMARK                         _______ _______ _______ _____ _____    ______ ____
ROOT
ATOM      1  N   UNL     1      32.361 -21.178 -19.700  0.00  0.00    -0.248 NA
ATOM      2  N   UNL     1      33.355 -19.545 -21.167  0.00  0.00    -0.214 NA
ATOM      3  C   UNL     1      34.908 -22.520 -17.446  0.00  0.00    +0.173 C 
ATOM      4  C   UNL     1      36.039 -21.827 -17.848  0.00  0.00    +0.169 C 
ATOM      5  C   UNL     1      33.680 -22.301 -18.069  0.00  0.00    +0.055 C 
ATOM      6  C   UNL     1      34.699 -20.682 -19.511  0.00  0.00    +0.141 C 
ATOM      7  C   UNL     1      33.550 -21.382 -19.108  0.00  0.00    +0.072 C 
ATOM      8  C   UNL     1      35.938 -20.904 -18.884  0.00  0.00    +0.029 C 
ATOM      9  C   UNL     1      34.531 -19.774 -20.552  0.00  0.00    +0.213 C 
ATOM     10  C   UNL     1      32.327 -20.271 -20.697  0.00  0.00    +0.253 C 
ENDROOT
BRANCH   4  11
ATOM     11  O   UNL     1      37.242 -22.036 -17.247  0.00  0.00    -0.469 OA
ATOM     12  C   UNL     1      37.488 -21.341 -16.025  0.00  0.00    +0.253 C 
ENDBRANCH   4  11
BRANCH   3  13
ATOM     13  O   UNL     1      34.984 -23.436 -16.429  0.00  0.00    -0.472 OA
BRANCH  13  14
ATOM     14  C   UNL     1      33.907 -23.457 -15.503  0.00  0.00    +0.203 C 
BRANCH  14  15
ATOM     15  C   UNL     1      34.368 -24.146 -14.226  0.00  0.00    +0.025 C 
BRANCH  15  16
ATOM     16  C   UNL     1      35.649 -23.520 -13.683  0.00  0.00    -0.074 C 
BRANCH  16  17
ATOM     17  N   UNL     1      36.801 -24.333 -14.044  0.00  0.00    +0.387 N 
ATOM     18  C   UNL     1      37.856 -24.287 -13.033  0.00  0.00    -0.077 C 
ATOM     19  C   UNL     1      36.464 -25.751 -14.177  0.00  0.00    -0.077 C 
ATOM     20  C   UNL     1      38.741 -25.466 -13.408  0.00  0.00    -0.025 C 
ATOM     21  C   UNL     1      37.827 -26.427 -14.164  0.00  0.00    -0.025 C 
ATOM     22  H   UNL     1      37.114 -23.939 -14.931  0.00  0.00    -0.080 HD
ENDBRANCH  16  17
ENDBRANCH  15  16
ENDBRANCH  14  15
ENDBRANCH  13  14
ENDBRANCH   3  13
BRANCH   9  23
ATOM     23  O   UNL     1      35.594 -19.042 -21.014  0.00  0.00    -0.437 OA
BRANCH  23  31
ATOM     24  F   UNL     1      35.288 -16.591 -19.813  0.00  0.00    -0.201 F 
ATOM     25  N   UNL     1      34.462 -14.479 -23.836  0.00  0.00    -0.316 N 
ATOM     26  C   UNL     1      34.869 -15.565 -21.930  0.00  0.00    +0.045 C 
ATOM     27  C   UNL     1      34.744 -15.721 -23.312  0.00  0.00    +0.050 C 
ATOM     28  C   UNL     1      34.406 -13.547 -22.836  0.00  0.00    +0.026 C 
ATOM     29  C   UNL     1      34.654 -14.188 -21.644  0.00  0.00    +0.014 C 
ATOM     30  C   UNL     1      35.160 -16.698 -21.144  0.00  0.00    +0.176 C 
ATOM     31  C   UNL     1      35.311 -17.927 -21.777  0.00  0.00    +0.174 C 
ATOM     32  C   UNL     1      34.895 -16.957 -23.950  0.00  0.00    +0.018 C 
ATOM     33  C   UNL     1      35.183 -18.066 -23.150  0.00  0.00    +0.041 C 
ATOM     34  C   UNL     1      34.119 -12.129 -23.125  0.00  0.00    +0.047 C 
ATOM     35  H   UNL     1      34.323 -14.289 -24.792  0.00  0.00    +0.152 HD
ENDBRANCH  23  31
ENDBRANCH   9  23
TORSDOF 8
ENDMDL
MODEL 3
REMARK VINA RESULT:     -11.2      2.766     10.486
REMARK  Name = 9933475
REMARK  8 active torsions:
REMARK  status: ('A' for Active; 'I' for Inactive)
REMARK    1  A    between atoms: C_3  and  O_13
REMARK    2  A    between atoms: C_4  and  O_11
REMARK    3  A    between atoms: C_9  and  O_23
REMARK    4  A    between atoms: O_13  and  C_14
REMARK    5  A    between atoms: C_14  and  C_15
REMARK    6  A    between atoms: C_15  and  C_16
REMARK    7  A    between atoms: C_16  and  N_17
REMARK    8  A    between atoms: O_23  and  C_31
REMARK                            x       y       z     vdW  Elec       q    Type
REMARK                         _______ _______ _______ _____ _____    ______ ____
ROOT
ATOM      1  N   UNL     1      32.342 -21.276 -19.492  0.00  0.00    -0.248 NA
ATOM      2  N   UNL     1      33.343 -19.689 -21.002  0.00  0.00    -0.214 NA
ATOM      3  C   UNL     1      34.901 -22.640 -17.264  0.00  0.00    +0.173 C 
ATOM      4  C   UNL     1      36.039 -21.977 -17.698  0.00  0.00    +0.169 C 
ATOM      5  C   UNL     1      33.666 -22.402 -17.867  0.00  0.00    +0.055 C 
ATOM      6  C   UNL     1      34.693 -20.830 -19.353  0.00  0.00    +0.141 C 
ATOM      7  C   UNL     1      33.537 -21.497 -18.918  0.00  0.00    +0.072 C 
ATOM      8  C   UNL     1      35.939 -21.069 -18.746  0.00  0.00    +0.029 C 
ATOM      9  C   UNL     1      34.525 -19.934 -20.406  0.00  0.00    +0.213 C 
ATOM     10  C   UNL     1      32.309 -20.384 -20.502  0.00  0.00    +0.253 C 
ENDROOT
BRANCH   4  11
ATOM     11  O   UNL     1      37.248 -22.204 -17.115  0.00  0.00    -0.469 OA
ATOM     12  C   UNL     1      37.587 -21.399 -15.987  0.00  0.00    +0.253 C 
ENDBRANCH   4  11
BRANCH   3  13
ATOM     13  O   UNL     1      34.975 -23.541 -16.234  0.00  0.00    -0.472 OA
BRANCH  13  14
ATOM     14  C   UNL     1      34.547 -23.092 -14.956  0.00  0.00    +0.203 C 
BRANCH  14  15
ATOM     15  C   UNL     1      33.252 -23.806 -14.592  0.00  0.00    +0.025 C 
BRANCH  15  16
ATOM     16  C   UNL     1      32.157 -22.816 -14.206  0.00  0.00    -0.074 C 
BRANCH  16  17
ATOM     17  N   UNL     1      30.871 -23.493 -14.122  0.00  0.00    +0.387 N 
ATOM     18  C   UNL     1      30.072 -23.327 -15.335  0.00  0.00    -0.077 C 
ATOM     19  C   UNL     1      31.012 -24.939 -13.955  0.00  0.00    -0.077 C 
ATOM     20  C   UNL     1      29.002 -24.398 -15.188  0.00  0.00    -0.025 C 
ATOM     21  C   UNL     1      29.617 -25.456 -14.278  0.00  0.00    -0.025 C 
ATOM     22  H   UNL     1      30.420 -23.065 -13.314  0.00  0.00    -0.080 HD
ENDBRANCH  16  17
ENDBRANCH  15  16
ENDBRANCH  14  15
ENDBRANCH  13  14
ENDBRANCH   3  13
BRANCH   9  23
ATOM     23  O   UNL     1      35.595 -19.233 -20.899  0.00  0.00    -0.437 OA
BRANCH  23  31
ATOM     24  F   UNL     1      35.324 -16.747 -19.763  0.00  0.00    -0.201 F 
ATOM     25  N   UNL     1      34.507 -14.734 -23.837  0.00  0.00    -0.316 N 
ATOM     26  C   UNL     1      34.908 -15.773 -21.905  0.00  0.00    +0.045 C 
ATOM     27  C   UNL     1      34.776 -15.965 -23.282  0.00  0.00    +0.050 C 
ATOM     28  C   UNL     1      34.466 -13.774 -22.862  0.00  0.00    +0.026 C 
ATOM     29  C   UNL     1      34.712 -14.387 -21.654  0.00  0.00    +0.014 C 
ATOM     30  C   UNL     1      35.189 -16.888 -21.090  0.00  0.00    +0.176 C 
ATOM     31  C   UNL     1      35.322 -18.135 -21.690  0.00  0.00    +0.174 C 
ATOM     32  C   UNL     1      34.909 -17.219 -23.887  0.00  0.00    +0.018 C 
ATOM     33  C   UNL     1      35.187 -18.310 -23.058  0.00  0.00    +0.041 C 
ATOM     34  C   UNL     1      34.195 -12.362 -23.188  0.00  0.00    +0.047 C 
ATOM     35  H   UNL     1      34.366 -14.568 -24.797  0.00  0.00    +0.152 HD
ENDBRANCH  23  31
ENDBRANCH   9  23
TORSDOF 8
ENDMDL
MODEL 4
REMARK VINA RESULT:     -10.6      2.649     10.209
REMARK  Name = 9933475
REMARK  8 active torsions:
REMARK  status: ('A' for Active; 'I' for Inactive)
REMARK    1  A    between atoms: C_3  and  O_13
REMARK    2  A    between atoms: C_4  and  O_11
REMARK    3  A    between atoms: C_9  and  O_23
REMARK    4  A    between atoms: O_13  and  C_14
REMARK    5  A    between atoms: C_14  and  C_15
REMARK    6  A    between atoms: C_15  and  C_16
REMARK    7  A    between atoms: C_16  and  N_17
REMARK    8  A    between atoms: O_23  and  C_31
REMARK                            x       y       z     vdW  Elec       q    Type
REMARK                         _______ _______ _______ _____ _____    ______ ____
ROOT
ATOM      1  N   UNL     1      33.692 -14.592 -25.689  0.00  0.00    -0.248 NA
ATOM      2  N   UNL     1      32.845 -12.556 -24.718  0.00  0.00    -0.214 NA
ATOM      3  C   UNL     1      35.151 -16.688 -23.072  0.00  0.00    +0.173 C 
ATOM      4  C   UNL     1      34.952 -15.913 -21.941  0.00  0.00    +0.169 C 
ATOM      5  C   UNL     1      34.729 -16.243 -24.324  0.00  0.00    +0.055 C 
ATOM      6  C   UNL     1      33.896 -14.230 -23.328  0.00  0.00    +0.141 C 
ATOM      7  C   UNL     1      34.096 -15.011 -24.477  0.00  0.00    +0.072 C 
ATOM      8  C   UNL     1      34.323 -14.678 -22.065  0.00  0.00    +0.029 C 
ATOM      9  C   UNL     1      33.262 -13.006 -23.520  0.00  0.00    +0.213 C 
ATOM     10  C   UNL     1      33.088 -13.388 -25.744  0.00  0.00    +0.253 C 
ENDROOT
BRANCH   4  11
ATOM     11  O   UNL     1      35.362 -16.340 -20.715  0.00  0.00    -0.469 OA
ATOM     12  C   UNL     1      34.857 -15.638 -19.580  0.00  0.00    +0.253 C 
ENDBRANCH   4  11
BRANCH   3  13
ATOM     13  O   UNL     1      35.771 -17.908 -22.975  0.00  0.00    -0.472 OA
BRANCH  13  14
ATOM     14  C   UNL     1      34.951 -19.058 -23.128  0.00  0.00    +0.203 C 
BRANCH  14  15
ATOM     15  C   UNL     1      34.344 -19.414 -21.778  0.00  0.00    +0.025 C 
BRANCH  15  16
ATOM     16  C   UNL     1      35.423 -19.701 -20.738  0.00  0.00    -0.074 C 
BRANCH  16  17
ATOM     17  N   UNL     1      34.843 -20.362 -19.578  0.00  0.00    +0.387 N 
ATOM     18  C   UNL     1      33.420 -20.650 -19.752  0.00  0.00    -0.077 C 
ATOM     19  C   UNL     1      35.463 -21.658 -19.306  0.00  0.00    -0.077 C 
ATOM     20  C   UNL     1      33.136 -21.651 -18.643  0.00  0.00    -0.025 C 
ATOM     21  C   UNL     1      34.480 -22.311 -18.345  0.00  0.00    -0.025 C 
ATOM     22  H   UNL     1      35.001 -19.704 -18.815  0.00  0.00    -0.080 HD
ENDBRANCH  16  17
ENDBRANCH  15  16
ENDBRANCH  14  15
ENDBRANCH  13  14
ENDBRANCH   3  13
BRANCH   9  23
ATOM     23  O   UNL     1      33.022 -12.173 -22.457  0.00  0.00    -0.437 OA
BRANCH  23  31
ATOM     24  F   UNL     1      31.178 -10.415 -21.430  0.00  0.00    -0.201 F 
ATOM     25  N   UNL     1      33.373  -6.750 -23.184  0.00  0.00    -0.316 N 
ATOM     26  C   UNL     1      32.366  -8.566 -22.367  0.00  0.00    +0.045 C 
ATOM     27  C   UNL     1      33.461  -8.122 -23.113  0.00  0.00    +0.050 C 
ATOM     28  C   UNL     1      32.265  -6.312 -22.510  0.00  0.00    +0.026 C 
ATOM     29  C   UNL     1      31.621  -7.413 -21.992  0.00  0.00    +0.014 C 
ATOM     30  C   UNL     1      32.215  -9.948 -22.141  0.00  0.00    +0.176 C 
ATOM     31  C   UNL     1      33.163 -10.817 -22.672  0.00  0.00    +0.174 C 
ATOM     32  C   UNL     1      34.414  -8.996 -23.647  0.00  0.00    +0.018 C 
ATOM     33  C   UNL     1      34.244 -10.362 -23.411  0.00  0.00    +0.041 C 
ATOM     34  C   UNL     1      31.935  -4.877 -22.429  0.00  0.00    +0.047 C 
ATOM     35  H   UNL     1      34.015  -6.168 -23.650  0.00  0.00    +0.152 HD
ENDBRANCH  23  31
ENDBRANCH   9  23
TORSDOF 8
ENDMDL
MODEL 5
REMARK VINA RESULT:     -10.4      2.350      9.851
REMARK  Name = 9933475
REMARK  8 active torsions:
REMARK  status: ('A' for Active; 'I' for Inactive)
REMARK    1  A    between atoms: C_3  and  O_13
REMARK    2  A    between atoms: C_4  and  O_11
REMARK    3  A    between atoms: C_9  and  O_23
REMARK    4  A    between atoms: O_13  and  C_14
REMARK    5  A    between atoms: C_14  and  C_15
REMARK    6  A    between atoms: C_15  and  C_16
REMARK    7  A    between atoms: C_16  and  N_17
REMARK    8  A    between atoms: O_23  and  C_31
REMARK                            x       y       z     vdW  Elec       q    Type
REMARK                         _______ _______ _______ _____ _____    ______ ____
ROOT
ATOM      1  N   UNL     1      33.430 -17.185 -25.005  0.00  0.00    -0.248 NA
ATOM      2  N   UNL     1      33.847 -14.814 -24.898  0.00  0.00    -0.214 NA
ATOM      3  C   UNL     1      34.864 -18.821 -22.066  0.00  0.00    +0.173 C 
ATOM      4  C   UNL     1      35.414 -17.748 -21.383  0.00  0.00    +0.169 C 
ATOM      5  C   UNL     1      34.201 -18.628 -23.278  0.00  0.00    +0.055 C 
ATOM      6  C   UNL     1      34.632 -16.276 -23.140  0.00  0.00    +0.141 C 
ATOM      7  C   UNL     1      34.072 -17.359 -23.837  0.00  0.00    +0.072 C 
ATOM      8  C   UNL     1      35.301 -16.470 -21.919  0.00  0.00    +0.029 C 
ATOM      9  C   UNL     1      34.483 -15.024 -23.730  0.00  0.00    +0.213 C 
ATOM     10  C   UNL     1      33.352 -15.923 -25.473  0.00  0.00    +0.253 C 
ENDROOT
BRANCH   4  11
ATOM     11  O   UNL     1      36.064 -17.927 -20.200  0.00  0.00    -0.469 OA
ATOM     12  C   UNL     1      37.208 -18.780 -20.209  0.00  0.00    +0.253 C 
ENDBRANCH   4  11
BRANCH   3  13
ATOM     13  O   UNL     1      34.965 -20.091 -21.558  0.00  0.00    -0.472 OA
BRANCH  13  14
ATOM     14  C   UNL     1      34.039 -20.452 -20.544  0.00  0.00    +0.203 C 
BRANCH  14  15
ATOM     15  C   UNL     1      34.770 -21.247 -19.471  0.00  0.00    +0.025 C 
BRANCH  15  16
ATOM     16  C   UNL     1      33.795 -22.007 -18.576  0.00  0.00    -0.074 C 
BRANCH  16  17
ATOM     17  N   UNL     1      34.519 -22.746 -17.553  0.00  0.00    +0.387 N 
ATOM     18  C   UNL     1      35.659 -21.998 -17.025  0.00  0.00    -0.077 C 
ATOM     19  C   UNL     1      33.688 -23.045 -16.387  0.00  0.00    -0.077 C 
ATOM     20  C   UNL     1      36.004 -22.755 -15.752  0.00  0.00    -0.025 C 
ATOM     21  C   UNL     1      34.710 -23.447 -15.334  0.00  0.00    -0.025 C 
ATOM     22  H   UNL     1      34.818 -23.597 -18.028  0.00  0.00    -0.080 HD
ENDBRANCH  16  17
ENDBRANCH  15  16
ENDBRANCH  14  15
ENDBRANCH  13  14
ENDBRANCH   3  13
BRANCH   9  23
ATOM     23  O   UNL     1      34.995 -13.906 -23.125  0.00  0.00    -0.437 OA
BRANCH  23  31
ATOM     24  F   UNL     1      34.872 -11.420 -24.288  0.00  0.00    -0.201 F 
ATOM     25  N   UNL     1      31.503 -10.021 -21.457  0.00  0.00    -0.316 N 
ATOM     26  C   UNL     1      33.131 -10.764 -22.789  0.00  0.00    +0.045 C 
ATOM     27  C   UNL     1      32.295 -11.114 -21.726  0.00  0.00    +0.050 C 
ATOM     28  C   UNL     1      31.808  -8.996 -22.311  0.00  0.00    +0.026 C 
ATOM     29  C   UNL     1      32.811  -9.425 -23.148  0.00  0.00    +0.014 C 
ATOM     30  C   UNL     1      34.052 -11.716 -23.269  0.00  0.00    +0.176 C 
ATOM     31  C   UNL     1      34.093 -12.967 -22.662  0.00  0.00    +0.174 C 
ATOM     32  C   UNL     1      32.336 -12.373 -21.116  0.00  0.00    +0.018 C 
ATOM     33  C   UNL     1      33.258 -13.300 -21.608  0.00  0.00    +0.041 C 
ATOM     34  C   UNL     1      31.102  -7.702 -22.237  0.00  0.00    +0.047 C 
ATOM     35  H   UNL     1      30.816  -9.983 -20.753  0.00  0.00    +0.152 HD
ENDBRANCH  23  31
ENDBRANCH   9  23
TORSDOF 8
ENDMDL
MODEL 6
REMARK VINA RESULT:     -10.2      3.640      6.787
REMARK  Name = 9933475
REMARK  8 active torsions:
REMARK  status: ('A' for Active; 'I' for Inactive)
REMARK    1  A    between atoms: C_3  and  O_13
REMARK    2  A    between atoms: C_4  and  O_11
REMARK    3  A    between atoms: C_9  and  O_23
REMARK    4  A    between atoms: O_13  and  C_14
REMARK    5  A    between atoms: C_14  and  C_15
REMARK    6  A    between atoms: C_15  and  C_16
REMARK    7  A    between atoms: C_16  and  N_17
REMARK    8  A    between atoms: O_23  and  C_31
REMARK                            x       y       z     vdW  Elec       q    Type
REMARK                         _______ _______ _______ _____ _____    ______ ____
ROOT
ATOM      1  N   UNL     1      34.817  -9.537 -24.349  0.00  0.00    -0.248 NA
ATOM      2  N   UNL     1      34.276 -11.817 -24.910  0.00  0.00    -0.214 NA
ATOM      3  C   UNL     1      32.850  -8.482 -21.453  0.00  0.00    +0.173 C 
ATOM      4  C   UNL     1      32.113  -9.623 -21.178  0.00  0.00    +0.169 C 
ATOM      5  C   UNL     1      33.754  -8.457 -22.515  0.00  0.00    +0.055 C 
ATOM      6  C   UNL     1      33.193 -10.725 -23.045  0.00  0.00    +0.141 C 
ATOM      7  C   UNL     1      33.943  -9.572 -23.328  0.00  0.00    +0.072 C 
ATOM      8  C   UNL     1      32.282 -10.750 -21.975  0.00  0.00    +0.029 C 
ATOM      9  C   UNL     1      33.409 -11.818 -23.880  0.00  0.00    +0.213 C 
ATOM     10  C   UNL     1      34.936 -10.661 -25.085  0.00  0.00    +0.253 C 
ENDROOT
BRANCH   4  11
ATOM     11  O   UNL     1      31.228  -9.655 -20.143  0.00  0.00    -0.469 OA
ATOM     12  C   UNL     1      31.643 -10.326 -18.954  0.00  0.00    +0.253 C 
ENDBRANCH   4  11
BRANCH   3  13
ATOM     13  O   UNL     1      32.699  -7.358 -20.682  0.00  0.00    -0.472 OA
BRANCH  13  14
ATOM     14  C   UNL     1      31.684  -6.444 -21.072  0.00  0.00    +0.203 C 
BRANCH  14  15
ATOM     15  C   UNL     1      32.339  -5.185 -21.623  0.00  0.00    +0.025 C 
BRANCH  15  16
ATOM     16  C   UNL     1      31.752  -4.795 -22.976  0.00  0.00    -0.074 C 
BRANCH  16  17
ATOM     17  N   UNL     1      32.812  -4.401 -23.892  0.00  0.00    +0.387 N 
ATOM     18  C   UNL     1      33.912  -5.364 -23.921  0.00  0.00    -0.077 C 
ATOM     19  C   UNL     1      32.348  -4.311 -25.276  0.00  0.00    -0.077 C 
ATOM     20  C   UNL     1      34.673  -4.975 -25.179  0.00  0.00    -0.025 C 
ATOM     21  C   UNL     1      33.647  -4.279 -26.069  0.00  0.00    -0.025 C 
ATOM     22  H   UNL     1      33.117  -3.494 -23.540  0.00  0.00    -0.080 HD
ENDBRANCH  16  17
ENDBRANCH  15  16
ENDBRANCH  14  15
ENDBRANCH  13  14
ENDBRANCH   3  13
BRANCH   9  23
ATOM     23  O   UNL     1      32.724 -12.989 -23.682  0.00  0.00    -0.437 OA
BRANCH  23  31
ATOM     24  F   UNL     1      33.745 -13.766 -21.253  0.00  0.00    -0.201 F 
ATOM     25  N   UNL     1      35.710 -17.543 -23.042  0.00  0.00    -0.316 N 
ATOM     26  C   UNL     1      34.735 -15.701 -22.247  0.00  0.00    +0.045 C 
ATOM     27  C   UNL     1      34.949 -16.454 -23.403  0.00  0.00    +0.050 C 
ATOM     28  C   UNL     1      35.982 -17.505 -21.701  0.00  0.00    +0.026 C 
ATOM     29  C   UNL     1      35.391 -16.376 -21.181  0.00  0.00    +0.014 C 
ATOM     30  C   UNL     1      33.974 -14.518 -22.340  0.00  0.00    +0.176 C 
ATOM     31  C   UNL     1      33.468 -14.148 -23.581  0.00  0.00    +0.174 C 
ATOM     32  C   UNL     1      34.440 -16.082 -24.653  0.00  0.00    +0.018 C 
ATOM     33  C   UNL     1      33.690 -14.905 -24.720  0.00  0.00    +0.041 C 
ATOM     34  C   UNL     1      36.784 -18.559 -21.052  0.00  0.00    +0.047 C 
ATOM     35  H   UNL     1      36.013 -18.248 -23.658  0.00  0.00    +0.152 HD
ENDBRANCH  23  31
ENDBRANCH   9  23
TORSDOF 8
ENDMDL
MODEL 7
REMARK VINA RESULT:     -10.2      3.725     11.501
REMARK  Name = 9933475
REMARK  8 active torsions:
REMARK  status: ('A' for Active; 'I' for Inactive)
REMARK    1  A    between atoms: C_3  and  O_13
REMARK    2  A    between atoms: C_4  and  O_11
REMARK    3  A    between atoms: C_9  and  O_23
REMARK    4  A    between atoms: O_13  and  C_14
REMARK    5  A    between atoms: C_14  and  C_15
REMARK    6  A    between atoms: C_15  and  C_16
REMARK    7  A    between atoms: C_16  and  N_17
REMARK    8  A    between atoms: O_23  and  C_31
REMARK                            x       y       z     vdW  Elec       q    Type
REMARK                         _______ _______ _______ _____ _____    ______ ____
ROOT
ATOM      1  N   UNL     1      32.408 -12.403 -19.769  0.00  0.00    -0.248 NA
ATOM      2  N   UNL     1      31.649 -10.217 -20.443  0.00  0.00    -0.214 NA
ATOM      3  C   UNL     1      33.816 -14.160 -22.650  0.00  0.00    +0.173 C 
ATOM      4  C   UNL     1      33.659 -13.224 -23.660  0.00  0.00    +0.169 C 
ATOM      5  C   UNL     1      33.395 -13.882 -21.350  0.00  0.00    +0.055 C 
ATOM      6  C   UNL     1      32.652 -11.716 -22.053  0.00  0.00    +0.141 C 
ATOM      7  C   UNL     1      32.809 -12.661 -21.026  0.00  0.00    +0.072 C 
ATOM      8  C   UNL     1      33.075 -11.997 -23.364  0.00  0.00    +0.029 C 
ATOM      9  C   UNL     1      32.062 -10.508 -21.692  0.00  0.00    +0.213 C 
ATOM     10  C   UNL     1      31.850 -11.196 -19.546  0.00  0.00    +0.253 C 
ENDROOT
BRANCH   4  11
ATOM     11  O   UNL     1      34.066 -13.488 -24.932  0.00  0.00    -0.469 OA
ATOM     12  C   UNL     1      33.428 -12.762 -25.982  0.00  0.00    +0.253 C 
ENDBRANCH   4  11
BRANCH   3  13
ATOM     13  O   UNL     1      34.386 -15.378 -22.917  0.00  0.00    -0.472 OA
BRANCH  13  14
ATOM     14  C   UNL     1      35.055 -16.023 -21.843  0.00  0.00    +0.203 C 
BRANCH  14  15
ATOM     15  C   UNL     1      35.270 -17.486 -22.204  0.00  0.00    +0.025 C 
BRANCH  15  16
ATOM     16  C   UNL     1      36.253 -18.160 -21.252  0.00  0.00    -0.074 C 
BRANCH  16  17
ATOM     17  N   UNL     1      35.540 -18.992 -20.295  0.00  0.00    +0.387 N 
ATOM     18  C   UNL     1      34.298 -19.536 -20.844  0.00  0.00    -0.077 C 
ATOM     19  C   UNL     1      36.317 -20.161 -19.884  0.00  0.00    -0.077 C 
ATOM     20  C   UNL     1      33.946 -20.642 -19.861  0.00  0.00    -0.025 C 
ATOM     21  C   UNL     1      35.272 -21.051 -19.226  0.00  0.00    -0.025 C 
ATOM     22  H   UNL     1      35.360 -18.367 -19.509  0.00  0.00    -0.080 HD
ENDBRANCH  16  17
ENDBRANCH  15  16
ENDBRANCH  14  15
ENDBRANCH  13  14
ENDBRANCH   3  13
BRANCH   9  23
ATOM     23  O   UNL     1      31.868  -9.523 -22.625  0.00  0.00    -0.437 OA
BRANCH  23  31
ATOM     24  F   UNL     1      29.958  -7.611 -23.112  0.00  0.00    -0.201 F 
ATOM     25  N   UNL     1      32.465  -4.285 -21.118  0.00  0.00    -0.316 N 
ATOM     26  C   UNL     1      31.309  -5.941 -22.066  0.00  0.00    +0.045 C 
ATOM     27  C   UNL     1      32.503  -5.630 -21.411  0.00  0.00    +0.050 C 
ATOM     28  C   UNL     1      31.292  -3.738 -21.563  0.00  0.00    +0.026 C 
ATOM     29  C   UNL     1      30.555  -4.738 -22.154  0.00  0.00    +0.014 C 
ATOM     30  C   UNL     1      31.090  -7.270 -22.480  0.00  0.00    +0.176 C 
ATOM     31  C   UNL     1      32.073  -8.219 -22.220  0.00  0.00    +0.174 C 
ATOM     32  C   UNL     1      33.492  -6.584 -21.149  0.00  0.00    +0.018 C 
ATOM     33  C   UNL     1      33.253  -7.895 -21.570  0.00  0.00    +0.041 C 
ATOM     34  C   UNL     1      30.995  -2.305 -21.376  0.00  0.00    +0.047 C 
ATOM     35  H   UNL     1      33.178  -3.789 -20.654  0.00  0.00    +0.152 HD
ENDBRANCH  23  31
ENDBRANCH   9  23
TORSDOF 8
ENDMDL
MODEL 8
REMARK VINA RESULT:     -10.1      3.149     10.906
REMARK  Name = 9933475
REMARK  8 active torsions:
REMARK  status: ('A' for Active; 'I' for Inactive)
REMARK    1  A    between atoms: C_3  and  O_13
REMARK    2  A    between atoms: C_4  and  O_11
REMARK    3  A    between atoms: C_9  and  O_23
REMARK    4  A    between atoms: O_13  and  C_14
REMARK    5  A    between atoms: C_14  and  C_15
REMARK    6  A    between atoms: C_15  and  C_16
REMARK    7  A    between atoms: C_16  and  N_17
REMARK    8  A    between atoms: O_23  and  C_31
REMARK                            x       y       z     vdW  Elec       q    Type
REMARK                         _______ _______ _______ _____ _____    ______ ____
ROOT
ATOM      1  N   UNL     1      37.713 -19.528 -20.136  0.00  0.00    -0.248 NA
ATOM      2  N   UNL     1      36.796 -18.249 -21.960  0.00  0.00    -0.214 NA
ATOM      3  C   UNL     1      35.098 -21.611 -18.655  0.00  0.00    +0.173 C 
ATOM      4  C   UNL     1      33.998 -21.285 -19.433  0.00  0.00    +0.169 C 
ATOM      5  C   UNL     1      36.338 -21.021 -18.893  0.00  0.00    +0.055 C 
ATOM      6  C   UNL     1      35.395 -19.764 -20.701  0.00  0.00    +0.141 C 
ATOM      7  C   UNL     1      36.512 -20.091 -19.915  0.00  0.00    +0.072 C 
ATOM      8  C   UNL     1      34.143 -20.359 -20.461  0.00  0.00    +0.029 C 
ATOM      9  C   UNL     1      35.607 -18.831 -21.712  0.00  0.00    +0.213 C 
ATOM     10  C   UNL     1      37.790 -18.639 -21.146  0.00  0.00    +0.253 C 
ENDROOT
BRANCH   4  11
ATOM     11  O   UNL     1      32.783 -21.856 -19.207  0.00  0.00    -0.469 OA
ATOM     12  C   UNL     1      32.351 -21.947 -17.851  0.00  0.00    +0.253 C 
ENDBRANCH   4  11
BRANCH   3  13
ATOM     13  O   UNL     1      34.979 -22.520 -17.635  0.00  0.00    -0.472 OA
BRANCH  13  14
ATOM     14  C   UNL     1      35.840 -22.349 -16.519  0.00  0.00    +0.203 C 
BRANCH  14  15
ATOM     15  C   UNL     1      35.155 -22.903 -15.278  0.00  0.00    +0.025 C 
BRANCH  15  16
ATOM     16  C   UNL     1      36.159 -23.196 -14.167  0.00  0.00    -0.074 C 
BRANCH  16  17
ATOM     17  N   UNL     1      36.952 -24.371 -14.500  0.00  0.00    +0.387 N 
ATOM     18  C   UNL     1      38.031 -24.605 -13.542  0.00  0.00    -0.077 C 
ATOM     19  C   UNL     1      36.160 -25.600 -14.488  0.00  0.00    -0.077 C 
ATOM     20  C   UNL     1      38.451 -26.036 -13.844  0.00  0.00    -0.025 C 
ATOM     21  C   UNL     1      37.222 -26.690 -14.470  0.00  0.00    -0.025 C 
ATOM     22  H   UNL     1      37.314 -24.168 -15.431  0.00  0.00    -0.080 HD
ENDBRANCH  16  17
ENDBRANCH  15  16
ENDBRANCH  14  15
ENDBRANCH  13  14
ENDBRANCH   3  13
BRANCH   9  23
ATOM     23  O   UNL     1      34.577 -18.450 -22.532  0.00  0.00    -0.437 OA
BRANCH  23  31
ATOM     24  F   UNL     1      33.694 -17.623 -24.998  0.00  0.00    -0.201 F 
ATOM     25  N   UNL     1      34.014 -13.160 -23.859  0.00  0.00    -0.316 N 
ATOM     26  C   UNL     1      33.884 -15.334 -24.339  0.00  0.00    +0.045 C 
ATOM     27  C   UNL     1      34.218 -14.418 -23.339  0.00  0.00    +0.050 C 
ATOM     28  C   UNL     1      33.563 -13.248 -25.147  0.00  0.00    +0.026 C 
ATOM     29  C   UNL     1      33.471 -14.582 -25.474  0.00  0.00    +0.014 C 
ATOM     30  C   UNL     1      34.005 -16.711 -24.065  0.00  0.00    +0.176 C 
ATOM     31  C   UNL     1      34.454 -17.102 -22.808  0.00  0.00    +0.174 C 
ATOM     32  C   UNL     1      34.670 -14.811 -22.075  0.00  0.00    +0.018 C 
ATOM     33  C   UNL     1      34.782 -16.182 -21.826  0.00  0.00    +0.041 C 
ATOM     34  C   UNL     1      33.263 -12.040 -25.939  0.00  0.00    +0.047 C 
ATOM     35  H   UNL     1      34.168 -12.318 -23.372  0.00  0.00    +0.152 HD
ENDBRANCH  23  31
ENDBRANCH   9  23
TORSDOF 8
ENDMDL
MODEL 9
REMARK VINA RESULT:     -10.1      2.041      3.029
REMARK  Name = 9933475
REMARK  8 active torsions:
REMARK  status: ('A' for Active; 'I' for Inactive)
REMARK    1  A    between atoms: C_3  and  O_13
REMARK    2  A    between atoms: C_4  and  O_11
REMARK    3  A    between atoms: C_9  and  O_23
REMARK    4  A    between atoms: O_13  and  C_14
REMARK    5  A    between atoms: C_14  and  C_15
REMARK    6  A    between atoms: C_15  and  C_16
REMARK    7  A    between atoms: C_16  and  N_17
REMARK    8  A    between atoms: O_23  and  C_31
REMARK                            x       y       z     vdW  Elec       q    Type
REMARK                         _______ _______ _______ _____ _____    ______ ____
ROOT
ATOM      1  N   UNL     1      34.544 -14.232 -20.453  0.00  0.00    -0.248 NA
ATOM      2  N   UNL     1      35.240 -16.521 -20.171  0.00  0.00    -0.214 NA
ATOM      3  C   UNL     1      33.781 -13.603 -23.974  0.00  0.00    +0.173 C 
ATOM      4  C   UNL     1      34.036 -14.839 -24.546  0.00  0.00    +0.169 C 
ATOM      5  C   UNL     1      33.953 -13.404 -22.604  0.00  0.00    +0.055 C 
ATOM      6  C   UNL     1      34.640 -15.685 -22.358  0.00  0.00    +0.141 C 
ATOM      7  C   UNL     1      34.383 -14.435 -21.772  0.00  0.00    +0.072 C 
ATOM      8  C   UNL     1      34.468 -15.887 -23.739  0.00  0.00    +0.029 C 
ATOM      9  C   UNL     1      35.068 -16.691 -21.495  0.00  0.00    +0.213 C 
ATOM     10  C   UNL     1      34.964 -15.286 -19.724  0.00  0.00    +0.253 C 
ENDROOT
BRANCH   4  11
ATOM     11  O   UNL     1      33.872 -15.042 -25.883  0.00  0.00    -0.469 OA
ATOM     12  C   UNL     1      34.481 -14.098 -26.762  0.00  0.00    +0.253 C 
ENDBRANCH   4  11
BRANCH   3  13
ATOM     13  O   UNL     1      33.357 -12.555 -24.750  0.00  0.00    -0.472 OA
BRANCH  13  14
ATOM     14  C   UNL     1      34.063 -11.330 -24.615  0.00  0.00    +0.203 C 
BRANCH  14  15
ATOM     15  C   UNL     1      33.197 -10.346 -23.839  0.00  0.00    +0.025 C 
BRANCH  15  16
ATOM     16  C   UNL     1      34.007  -9.146 -23.360  0.00  0.00    -0.074 C 
BRANCH  16  17
ATOM     17  N   UNL     1      33.175  -8.263 -22.556  0.00  0.00    +0.387 N 
ATOM     18  C   UNL     1      32.423  -8.984 -21.530  0.00  0.00    -0.077 C 
ATOM     19  C   UNL     1      33.960  -7.269 -21.824  0.00  0.00    -0.077 C 
ATOM     20  C   UNL     1      31.962  -7.873 -20.600  0.00  0.00    -0.025 C 
ATOM     21  C   UNL     1      32.968  -6.743 -20.796  0.00  0.00    -0.025 C 
ATOM     22  H   UNL     1      32.554  -7.823 -23.236  0.00  0.00    -0.080 HD
ENDBRANCH  16  17
ENDBRANCH  15  16
ENDBRANCH  14  15
ENDBRANCH  13  14
ENDBRANCH   3  13
BRANCH   9  23
ATOM     23  O   UNL     1      35.343 -17.946 -21.973  0.00  0.00    -0.437 OA
BRANCH  23  31
ATOM     24  F   UNL     1      33.059 -19.276 -21.226  0.00  0.00    -0.201 F 
ATOM     25  N   UNL     1      35.358 -22.049 -18.337  0.00  0.00    -0.316 N 
ATOM     26  C   UNL     1      34.313 -20.675 -19.750  0.00  0.00    +0.045 C 
ATOM     27  C   UNL     1      35.560 -21.011 -19.219  0.00  0.00    +0.050 C 
ATOM     28  C   UNL     1      34.031 -22.380 -18.293  0.00  0.00    +0.026 C 
ATOM     29  C   UNL     1      33.358 -21.548 -19.158  0.00  0.00    +0.014 C 
ATOM     30  C   UNL     1      34.237 -19.630 -20.692  0.00  0.00    +0.176 C 
ATOM     31  C   UNL     1      35.409 -18.973 -21.053  0.00  0.00    +0.174 C 
ATOM     32  C   UNL     1      36.739 -20.351 -19.582  0.00  0.00    +0.018 C 
ATOM     33  C   UNL     1      36.639 -19.317 -20.517  0.00  0.00    +0.041 C 
ATOM     34  C   UNL     1      33.540 -23.466 -17.424  0.00  0.00    +0.047 C 
ATOM     35  H   UNL     1      36.066 -22.490 -17.815  0.00  0.00    +0.152 HD
ENDBRANCH  23  31
ENDBRANCH   9  23
TORSDOF 8
ENDMDL
