MODEL 1
REMARK VINA RESULT:     -12.8      0.000      0.000
REMARK  Name = 208951
REMARK  4 active torsions:
REMARK  status: ('A' for Active; 'I' for Inactive)
REMARK    1  A    between atoms: N_1  and  C_19
REMARK    2  A    between atoms: N_2  and  C_11
REMARK    3  A    between atoms: C_19  and  C_20
REMARK    4  A    between atoms: C_23  and  C_26
REMARK                            x       y       z     vdW  Elec       q    Type
REMARK                         _______ _______ _______ _____ _____    ______ ____
ROOT
ATOM      1  N   UNL     1      34.519 -16.093 -23.795  0.00  0.00    +0.392 N 
ATOM      2  N   UNL     1      33.977 -13.304 -23.505  0.00  0.00    -0.309 N 
ATOM      3  C   UNL     1      34.515 -15.471 -22.466  0.00  0.00    -0.055 C 
ATOM      4  C   UNL     1      33.530 -15.436 -24.657  0.00  0.00    -0.055 C 
ATOM      5  C   UNL     1      34.861 -13.983 -22.553  0.00  0.00    +0.068 C 
ATOM      6  C   UNL     1      33.844 -13.947 -24.819  0.00  0.00    +0.068 C 
ATOM      7  H   UNL     1      35.445 -15.978 -24.209  0.00  0.00    -0.079 HD
ENDROOT
BRANCH   2  11
ATOM      8  O   UNL     1      32.041 -11.982 -21.723  0.00  0.00    -0.406 OA
ATOM      9  O   UNL     1      30.471 -11.113 -20.263  0.00  0.00    -0.223 OA
ATOM     10  N   UNL     1      31.765  -9.704 -21.595  0.00  0.00    -0.287 N 
ATOM     11  C   UNL     1      33.814 -11.916 -23.434  0.00  0.00    +0.084 C 
ATOM     12  C   UNL     1      32.894 -11.312 -22.585  0.00  0.00    +0.179 A 
ATOM     13  C   UNL     1      34.584 -11.040 -24.226  0.00  0.00    +0.018 C 
ATOM     14  C   UNL     1      32.744  -9.944 -22.523  0.00  0.00    +0.098 A 
ATOM     15  C   UNL     1      34.420  -9.641 -24.155  0.00  0.00    +0.003 C 
ATOM     16  C   UNL     1      33.485  -9.073 -23.288  0.00  0.00    +0.020 C 
ATOM     17  C   UNL     1      31.337 -10.929 -21.109  0.00  0.00    +0.419 A 
ATOM     18  H   UNL     1      31.427  -8.821 -21.322  0.00  0.00    +0.172 HD
ENDBRANCH   2  11
BRANCH   1  19
ATOM     19  C   UNL     1      34.240 -17.525 -23.692  0.00  0.00    -0.050 C 
BRANCH  19  20
ATOM     20  C   UNL     1      35.041 -18.155 -22.585  0.00  0.00    -0.043 C 
ATOM     21  C   UNL     1      34.425 -19.048 -21.719  0.00  0.00    -0.006 C 
ATOM     22  C   UNL     1      36.385 -17.836 -22.445  0.00  0.00    -0.006 C 
ATOM     23  C   UNL     1      35.168 -19.633 -20.693  0.00  0.00    -0.000 C 
ATOM     24  C   UNL     1      37.127 -18.421 -21.420  0.00  0.00    -0.000 C 
ATOM     25  C   UNL     1      36.519 -19.319 -20.544  0.00  0.00    -0.000 C 
BRANCH  23  26
ATOM     26  C   UNL     1      34.538 -20.567 -19.784  0.00  0.00    -0.000 C 
ATOM     27  C   UNL     1      35.317 -21.466 -19.056  0.00  0.00    -0.000 C 
ATOM     28  C   UNL     1      33.150 -20.567 -19.635  0.00  0.00    -0.000 C 
ATOM     29  C   UNL     1      34.710 -22.365 -18.180  0.00  0.00    -0.000 C 
ATOM     30  C   UNL     1      32.544 -21.466 -18.760  0.00  0.00    -0.000 C 
ATOM     31  C   UNL     1      33.323 -22.365 -18.031  0.00  0.00    +0.000 C 
ENDBRANCH  23  26
ENDBRANCH  19  20
ENDBRANCH   1  19
TORSDOF 4
ENDMDL
MODEL 2
REMARK VINA RESULT:     -12.8      1.504      2.407
REMARK  Name = 208951
REMARK  4 active torsions:
REMARK  status: ('A' for Active; 'I' for Inactive)
REMARK    1  A    between atoms: N_1  and  C_19
REMARK    2  A    between atoms: N_2  and  C_11
REMARK    3  A    between atoms: C_19  and  C_20
REMARK    4  A    between atoms: C_23  and  C_26
REMARK                            x       y       z     vdW  Elec       q    Type
REMARK                         _______ _______ _______ _____ _____    ______ ____
ROOT
ATOM      1  N   UNL     1      34.676 -16.424 -23.509  0.00  0.00    +0.392 N 
ATOM      2  N   UNL     1      33.594 -13.874 -22.812  0.00  0.00    -0.309 N 
ATOM      3  C   UNL     1      34.628 -15.995 -22.107  0.00  0.00    -0.055 C 
ATOM      4  C   UNL     1      33.521 -15.884 -24.236  0.00  0.00    -0.055 C 
ATOM      5  C   UNL     1      34.656 -14.469 -21.996  0.00  0.00    +0.068 C 
ATOM      6  C   UNL     1      33.513 -14.354 -24.198  0.00  0.00    +0.068 C 
ATOM      7  H   UNL     1      35.531 -16.062 -23.935  0.00  0.00    -0.079 HD
ENDROOT
BRANCH   2  11
ATOM      8  O   UNL     1      34.635 -11.487 -24.186  0.00  0.00    -0.406 OA
ATOM      9  O   UNL     1      35.563  -9.725 -25.363  0.00  0.00    -0.223 OA
ATOM     10  N   UNL     1      33.922  -9.345 -23.752  0.00  0.00    -0.287 N 
ATOM     11  C   UNL     1      33.155 -12.573 -22.541  0.00  0.00    +0.084 C 
ATOM     12  C   UNL     1      33.660 -11.460 -23.202  0.00  0.00    +0.179 A 
ATOM     13  C   UNL     1      32.163 -12.314 -21.573  0.00  0.00    +0.018 C 
ATOM     14  C   UNL     1      33.219 -10.184 -22.928  0.00  0.00    +0.098 A 
ATOM     15  C   UNL     1      31.720 -11.003 -21.300  0.00  0.00    +0.003 C 
ATOM     16  C   UNL     1      32.253  -9.910 -21.987  0.00  0.00    +0.020 C 
ATOM     17  C   UNL     1      34.777 -10.125 -24.513  0.00  0.00    +0.419 A 
ATOM     18  H   UNL     1      33.835  -8.366 -23.796  0.00  0.00    +0.172 HD
ENDBRANCH   2  11
BRANCH   1  19
ATOM     19  C   UNL     1      34.704 -17.882 -23.599  0.00  0.00    -0.050 C 
BRANCH  19  20
ATOM     20  C   UNL     1      35.409 -18.486 -22.415  0.00  0.00    -0.043 C 
ATOM     21  C   UNL     1      34.710 -19.327 -21.559  0.00  0.00    -0.006 C 
ATOM     22  C   UNL     1      36.748 -18.194 -22.194  0.00  0.00    -0.006 C 
ATOM     23  C   UNL     1      35.365 -19.887 -20.461  0.00  0.00    -0.000 C 
ATOM     24  C   UNL     1      37.401 -18.753 -21.097  0.00  0.00    -0.000 C 
ATOM     25  C   UNL     1      36.710 -19.599 -20.230  0.00  0.00    -0.000 C 
BRANCH  23  26
ATOM     26  C   UNL     1      34.649 -20.767 -19.563  0.00  0.00    -0.000 C 
ATOM     27  C   UNL     1      33.255 -20.733 -19.516  0.00  0.00    -0.000 C 
ATOM     28  C   UNL     1      35.353 -21.650 -18.743  0.00  0.00    -0.000 C 
ATOM     29  C   UNL     1      32.565 -21.581 -18.651  0.00  0.00    -0.000 C 
ATOM     30  C   UNL     1      34.662 -22.497 -17.877  0.00  0.00    -0.000 C 
ATOM     31  C   UNL     1      33.268 -22.463 -17.832  0.00  0.00    +0.000 C 
ENDBRANCH  23  26
ENDBRANCH  19  20
ENDBRANCH   1  19
TORSDOF 4
ENDMDL
MODEL 3
REMARK VINA RESULT:     -12.3      6.780     12.220
REMARK  Name = 208951
REMARK  4 active torsions:
REMARK  status: ('A' for Active; 'I' for Inactive)
REMARK    1  A    between atoms: N_1  and  C_19
REMARK    2  A    between atoms: N_2  and  C_11
REMARK    3  A    between atoms: C_19  and  C_20
REMARK    4  A    between atoms: C_23  and  C_26
REMARK                            x       y       z     vdW  Elec       q    Type
REMARK                         _______ _______ _______ _____ _____    ______ ____
ROOT
ATOM      1  N   UNL     1      34.478 -22.105 -17.541  0.00  0.00    +0.392 N 
ATOM      2  N   UNL     1      35.247 -23.384 -15.105  0.00  0.00    -0.309 N 
ATOM      3  C   UNL     1      35.894 -22.355 -17.247  0.00  0.00    -0.055 C 
ATOM      4  C   UNL     1      33.654 -23.180 -16.974  0.00  0.00    -0.055 C 
ATOM      5  C   UNL     1      36.142 -22.411 -15.738  0.00  0.00    +0.068 C 
ATOM      6  C   UNL     1      33.826 -23.262 -15.455  0.00  0.00    +0.068 C 
ATOM      7  H   UNL     1      34.205 -21.220 -17.113  0.00  0.00    -0.079 HD
ENDROOT
BRANCH   2  11
ATOM      8  O   UNL     1      37.503 -25.220 -14.646  0.00  0.00    -0.406 OA
ATOM      9  O   UNL     1      39.313 -26.650 -14.467  0.00  0.00    -0.223 OA
ATOM     10  N   UNL     1      38.046 -26.095 -12.590  0.00  0.00    -0.287 N 
ATOM     11  C   UNL     1      35.571 -23.913 -13.850  0.00  0.00    +0.084 C 
ATOM     12  C   UNL     1      36.640 -24.778 -13.655  0.00  0.00    +0.179 A 
ATOM     13  C   UNL     1      34.823 -23.593 -12.698  0.00  0.00    +0.018 C 
ATOM     14  C   UNL     1      36.950 -25.291 -12.415  0.00  0.00    +0.098 A 
ATOM     15  C   UNL     1      35.149 -24.125 -11.433  0.00  0.00    +0.003 C 
ATOM     16  C   UNL     1      36.233 -24.992 -11.279  0.00  0.00    +0.020 C 
ATOM     17  C   UNL     1      38.384 -26.056 -13.933  0.00  0.00    +0.419 A 
ATOM     18  H   UNL     1      38.510 -26.606 -11.890  0.00  0.00    +0.172 HD
ENDBRANCH   2  11
BRANCH   1  19
ATOM     19  C   UNL     1      34.264 -22.001 -18.983  0.00  0.00    -0.050 C 
BRANCH  19  20
ATOM     20  C   UNL     1      35.158 -20.953 -19.589  0.00  0.00    -0.043 C 
ATOM     21  C   UNL     1      34.699 -20.199 -20.661  0.00  0.00    -0.006 C 
ATOM     22  C   UNL     1      36.429 -20.752 -19.068  0.00  0.00    -0.006 C 
ATOM     23  C   UNL     1      35.527 -19.227 -21.222  0.00  0.00    -0.000 C 
ATOM     24  C   UNL     1      37.257 -19.781 -19.629  0.00  0.00    -0.000 C 
ATOM     25  C   UNL     1      36.807 -19.019 -20.706  0.00  0.00    -0.000 C 
BRANCH  23  26
ATOM     26  C   UNL     1      35.060 -18.434 -22.339  0.00  0.00    -0.000 C 
ATOM     27  C   UNL     1      35.347 -17.070 -22.395  0.00  0.00    -0.000 C 
ATOM     28  C   UNL     1      34.322 -19.034 -23.360  0.00  0.00    -0.000 C 
ATOM     29  C   UNL     1      34.897 -16.306 -23.471  0.00  0.00    -0.000 C 
ATOM     30  C   UNL     1      33.872 -18.270 -24.436  0.00  0.00    -0.000 C 
ATOM     31  C   UNL     1      34.160 -16.906 -24.492  0.00  0.00    +0.000 C 
ENDBRANCH  23  26
ENDBRANCH  19  20
ENDBRANCH   1  19
TORSDOF 4
ENDMDL
MODEL 4
REMARK VINA RESULT:     -12.0      4.641     10.310
REMARK  Name = 208951
REMARK  4 active torsions:
REMARK  status: ('A' for Active; 'I' for Inactive)
REMARK    1  A    between atoms: N_1  and  C_19
REMARK    2  A    between atoms: N_2  and  C_11
REMARK    3  A    between atoms: C_19  and  C_20
REMARK    4  A    between atoms: C_23  and  C_26
REMARK                            x       y       z     vdW  Elec       q    Type
REMARK                         _______ _______ _______ _____ _____    ______ ____
ROOT
ATOM      1  N   UNL     1      35.730 -19.766 -20.927  0.00  0.00    +0.392 N 
ATOM      2  N   UNL     1      34.752 -21.248 -18.689  0.00  0.00    -0.309 N 
ATOM      3  C   UNL     1      34.418 -19.457 -20.346  0.00  0.00    -0.055 C 
ATOM      4  C   UNL     1      36.649 -20.212 -19.873  0.00  0.00    -0.055 C 
ATOM      5  C   UNL     1      33.813 -20.687 -19.665  0.00  0.00    +0.068 C 
ATOM      6  C   UNL     1      36.119 -21.468 -19.177  0.00  0.00    +0.068 C 
ATOM      7  H   UNL     1      35.620 -20.518 -21.607  0.00  0.00    -0.079 HD
ENDROOT
BRANCH   2  11
ATOM      8  O   UNL     1      36.455 -22.309 -16.534  0.00  0.00    -0.406 OA
ATOM      9  O   UNL     1      37.935 -23.052 -14.918  0.00  0.00    -0.223 OA
ATOM     10  N   UNL     1      35.689 -23.671 -14.847  0.00  0.00    -0.287 N 
ATOM     11  C   UNL     1      34.278 -22.078 -17.666  0.00  0.00    +0.084 C 
ATOM     12  C   UNL     1      35.099 -22.567 -16.658  0.00  0.00    +0.179 A 
ATOM     13  C   UNL     1      32.924 -22.467 -17.598  0.00  0.00    +0.018 C 
ATOM     14  C   UNL     1      34.621 -23.382 -15.656  0.00  0.00    +0.098 A 
ATOM     15  C   UNL     1      32.446 -23.302 -16.567  0.00  0.00    +0.003 C 
ATOM     16  C   UNL     1      33.304 -23.773 -15.572  0.00  0.00    +0.020 C 
ATOM     17  C   UNL     1      36.797 -23.027 -15.372  0.00  0.00    +0.419 A 
ATOM     18  H   UNL     1      35.672 -24.233 -14.041  0.00  0.00    +0.172 HD
ENDBRANCH   2  11
BRANCH   1  19
ATOM     19  C   UNL     1      36.272 -18.599 -21.620  0.00  0.00    -0.050 C 
BRANCH  19  20
ATOM     20  C   UNL     1      35.337 -18.128 -22.700  0.00  0.00    -0.043 C 
ATOM     21  C   UNL     1      35.125 -16.766 -22.875  0.00  0.00    -0.006 C 
ATOM     22  C   UNL     1      34.700 -19.059 -23.509  0.00  0.00    -0.006 C 
ATOM     23  C   UNL     1      34.259 -16.330 -23.878  0.00  0.00    -0.000 C 
ATOM     24  C   UNL     1      33.834 -18.622 -24.510  0.00  0.00    -0.000 C 
ATOM     25  C   UNL     1      33.613 -17.258 -24.695  0.00  0.00    -0.000 C 
BRANCH  23  26
ATOM     26  C   UNL     1      34.031 -14.914 -24.071  0.00  0.00    -0.000 C 
ATOM     27  C   UNL     1      34.340 -14.012 -23.053  0.00  0.00    -0.000 C 
ATOM     28  C   UNL     1      33.502 -14.450 -25.277  0.00  0.00    -0.000 C 
ATOM     29  C   UNL     1      34.120 -12.647 -23.240  0.00  0.00    -0.000 C 
ATOM     30  C   UNL     1      33.282 -13.086 -25.463  0.00  0.00    -0.000 C 
ATOM     31  C   UNL     1      33.592 -12.184 -24.444  0.00  0.00    +0.000 C 
ENDBRANCH  23  26
ENDBRANCH  19  20
ENDBRANCH   1  19
TORSDOF 4
ENDMDL
MODEL 5
REMARK VINA RESULT:     -11.9      1.809      3.269
REMARK  Name = 208951
REMARK  4 active torsions:
REMARK  status: ('A' for Active; 'I' for Inactive)
REMARK    1  A    between atoms: N_1  and  C_19
REMARK    2  A    between atoms: N_2  and  C_11
REMARK    3  A    between atoms: C_19  and  C_20
REMARK    4  A    between atoms: C_23  and  C_26
REMARK                            x       y       z     vdW  Elec       q    Type
REMARK                         _______ _______ _______ _____ _____    ______ ____
ROOT
ATOM      1  N   UNL     1      34.230 -14.495 -22.644  0.00  0.00    +0.392 N 
ATOM      2  N   UNL     1      33.126 -12.120 -21.503  0.00  0.00    -0.309 N 
ATOM      3  C   UNL     1      34.211 -13.242 -23.409  0.00  0.00    -0.055 C 
ATOM      4  C   UNL     1      34.408 -14.205 -21.216  0.00  0.00    -0.055 C 
ATOM      5  C   UNL     1      33.066 -12.335 -22.952  0.00  0.00    +0.068 C 
ATOM      6  C   UNL     1      33.269 -13.332 -20.686  0.00  0.00    +0.068 C 
ATOM      7  H   UNL     1      33.338 -14.973 -22.774  0.00  0.00    -0.079 HD
ENDROOT
BRANCH   2  11
ATOM      8  O   UNL     1      33.312  -9.387 -22.585  0.00  0.00    -0.406 OA
ATOM      9  O   UNL     1      33.568  -7.308 -23.567  0.00  0.00    -0.223 OA
ATOM     10  N   UNL     1      32.247  -7.569 -21.665  0.00  0.00    -0.287 N 
ATOM     11  C   UNL     1      32.475 -11.018 -20.937  0.00  0.00    +0.084 C 
ATOM     12  C   UNL     1      32.576  -9.737 -21.464  0.00  0.00    +0.179 A 
ATOM     13  C   UNL     1      31.669 -11.147 -19.788  0.00  0.00    +0.018 C 
ATOM     14  C   UNL     1      31.929  -8.660 -20.898  0.00  0.00    +0.098 A 
ATOM     15  C   UNL     1      31.012 -10.037 -19.217  0.00  0.00    +0.003 C 
ATOM     16  C   UNL     1      31.139  -8.765 -19.777  0.00  0.00    +0.020 C 
ATOM     17  C   UNL     1      33.080  -8.002 -22.684  0.00  0.00    +0.419 A 
ATOM     18  H   UNL     1      31.938  -6.647 -21.520  0.00  0.00    +0.172 HD
ENDBRANCH   2  11
BRANCH   1  19
ATOM     19  C   UNL     1      35.294 -15.374 -23.126  0.00  0.00    -0.050 C 
BRANCH  19  20
ATOM     20  C   UNL     1      34.827 -16.802 -23.198  0.00  0.00    -0.043 C 
ATOM     21  C   UNL     1      34.929 -17.612 -22.074  0.00  0.00    -0.006 C 
ATOM     22  C   UNL     1      34.299 -17.291 -24.385  0.00  0.00    -0.006 C 
ATOM     23  C   UNL     1      34.494 -18.937 -22.141  0.00  0.00    -0.000 C 
ATOM     24  C   UNL     1      33.865 -18.614 -24.451  0.00  0.00    -0.000 C 
ATOM     25  C   UNL     1      33.963 -19.437 -23.330  0.00  0.00    -0.000 C 
BRANCH  23  26
ATOM     26  C   UNL     1      34.594 -19.791 -20.978  0.00  0.00    -0.000 C 
ATOM     27  C   UNL     1      33.437 -20.263 -20.357  0.00  0.00    -0.000 C 
ATOM     28  C   UNL     1      35.847 -20.143 -20.476  0.00  0.00    -0.000 C 
ATOM     29  C   UNL     1      33.533 -21.086 -19.236  0.00  0.00    -0.000 C 
ATOM     30  C   UNL     1      35.943 -20.966 -19.354  0.00  0.00    -0.000 C 
ATOM     31  C   UNL     1      34.786 -21.438 -18.735  0.00  0.00    +0.000 C 
ENDBRANCH  23  26
ENDBRANCH  19  20
ENDBRANCH   1  19
TORSDOF 4
ENDMDL
MODEL 6
REMARK VINA RESULT:     -11.5      3.280     11.057
REMARK  Name = 208951
REMARK  4 active torsions:
REMARK  status: ('A' for Active; 'I' for Inactive)
REMARK    1  A    between atoms: N_1  and  C_19
REMARK    2  A    between atoms: N_2  and  C_11
REMARK    3  A    between atoms: C_19  and  C_20
REMARK    4  A    between atoms: C_23  and  C_26
REMARK                            x       y       z     vdW  Elec       q    Type
REMARK                         _______ _______ _______ _____ _____    ______ ____
ROOT
ATOM      1  N   UNL     1      32.184 -10.503 -21.618  0.00  0.00    +0.392 N 
ATOM      2  N   UNL     1      33.388 -13.093 -21.595  0.00  0.00    -0.309 N 
ATOM      3  C   UNL     1      32.926 -10.988 -22.787  0.00  0.00    -0.055 C 
ATOM      4  C   UNL     1      31.516 -11.626 -20.949  0.00  0.00    -0.055 C 
ATOM      5  C   UNL     1      33.989 -12.010 -22.380  0.00  0.00    +0.068 C 
ATOM      6  C   UNL     1      32.533 -12.669 -20.479  0.00  0.00    +0.068 C 
ATOM      7  H   UNL     1      32.841 -10.075 -20.965  0.00  0.00    -0.079 HD
ENDROOT
BRANCH   2  11
ATOM      8  O   UNL     1      34.059 -14.790 -23.906  0.00  0.00    -0.406 OA
ATOM      9  O   UNL     1      34.508 -15.994 -25.830  0.00  0.00    -0.223 OA
ATOM     10  N   UNL     1      35.145 -16.810 -23.741  0.00  0.00    -0.287 N 
ATOM     11  C   UNL     1      34.049 -14.322 -21.485  0.00  0.00    +0.084 C 
ATOM     12  C   UNL     1      34.356 -15.107 -22.590  0.00  0.00    +0.179 A 
ATOM     13  C   UNL     1      34.447 -14.839 -20.236  0.00  0.00    +0.018 C 
ATOM     14  C   UNL     1      35.008 -16.315 -22.470  0.00  0.00    +0.098 A 
ATOM     15  C   UNL     1      35.113 -16.077 -20.125  0.00  0.00    +0.003 C 
ATOM     16  C   UNL     1      35.404 -16.836 -21.260  0.00  0.00    +0.020 C 
ATOM     17  C   UNL     1      34.575 -15.894 -24.610  0.00  0.00    +0.419 A 
ATOM     18  H   UNL     1      35.571 -17.660 -23.991  0.00  0.00    +0.172 HD
ENDBRANCH   2  11
BRANCH   1  19
ATOM     19  C   UNL     1      31.209  -9.488 -22.014  0.00  0.00    -0.050 C 
BRANCH  19  20
ATOM     20  C   UNL     1      31.790  -8.105 -21.903  0.00  0.00    -0.043 C 
ATOM     21  C   UNL     1      32.208  -7.444 -23.051  0.00  0.00    -0.006 C 
ATOM     22  C   UNL     1      31.900  -7.507 -20.655  0.00  0.00    -0.006 C 
ATOM     23  C   UNL     1      32.746  -6.161 -22.947  0.00  0.00    -0.000 C 
ATOM     24  C   UNL     1      32.438  -6.225 -20.552  0.00  0.00    -0.000 C 
ATOM     25  C   UNL     1      32.861  -5.552 -21.697  0.00  0.00    -0.000 C 
BRANCH  23  26
ATOM     26  C   UNL     1      33.184  -5.462 -24.136  0.00  0.00    -0.000 C 
ATOM     27  C   UNL     1      32.248  -4.849 -24.969  0.00  0.00    -0.000 C 
ATOM     28  C   UNL     1      34.543  -5.400 -24.448  0.00  0.00    -0.000 C 
ATOM     29  C   UNL     1      32.670  -4.175 -26.115  0.00  0.00    -0.000 C 
ATOM     30  C   UNL     1      34.964  -4.726 -25.594  0.00  0.00    -0.000 C 
ATOM     31  C   UNL     1      34.028  -4.113 -26.427  0.00  0.00    +0.000 C 
ENDBRANCH  23  26
ENDBRANCH  19  20
ENDBRANCH   1  19
TORSDOF 4
ENDMDL
MODEL 7
REMARK VINA RESULT:     -11.2      3.712      7.099
REMARK  Name = 208951
REMARK  4 active torsions:
REMARK  status: ('A' for Active; 'I' for Inactive)
REMARK    1  A    between atoms: N_1  and  C_19
REMARK    2  A    between atoms: N_2  and  C_11
REMARK    3  A    between atoms: C_19  and  C_20
REMARK    4  A    between atoms: C_23  and  C_26
REMARK                            x       y       z     vdW  Elec       q    Type
REMARK                         _______ _______ _______ _____ _____    ______ ____
ROOT
ATOM      1  N   UNL     1      34.917 -21.598 -18.719  0.00  0.00    +0.392 N 
ATOM      2  N   UNL     1      34.789 -19.766 -20.906  0.00  0.00    -0.309 N 
ATOM      3  C   UNL     1      33.729 -21.548 -19.578  0.00  0.00    -0.055 C 
ATOM      4  C   UNL     1      36.118 -21.301 -19.510  0.00  0.00    -0.055 C 
ATOM      5  C   UNL     1      33.562 -20.164 -20.209  0.00  0.00    +0.068 C 
ATOM      6  C   UNL     1      36.032 -19.908 -20.137  0.00  0.00    +0.068 C 
ATOM      7  H   UNL     1      34.824 -20.894 -17.986  0.00  0.00    -0.079 HD
ENDROOT
BRANCH   2  11
ATOM      8  O   UNL     1      34.957 -16.883 -20.327  0.00  0.00    -0.406 OA
ATOM      9  O   UNL     1      35.105 -14.664 -19.692  0.00  0.00    -0.223 OA
ATOM     10  N   UNL     1      34.875 -15.245 -21.937  0.00  0.00    -0.287 N 
ATOM     11  C   UNL     1      34.737 -18.774 -21.893  0.00  0.00    +0.084 C 
ATOM     12  C   UNL     1      34.818 -17.419 -21.597  0.00  0.00    +0.179 A 
ATOM     13  C   UNL     1      34.599 -19.097 -23.258  0.00  0.00    +0.018 C 
ATOM     14  C   UNL     1      34.767 -16.452 -22.577  0.00  0.00    +0.098 A 
ATOM     15  C   UNL     1      34.547 -18.098 -24.253  0.00  0.00    +0.003 C 
ATOM     16  C   UNL     1      34.633 -16.747 -23.914  0.00  0.00    +0.020 C 
ATOM     17  C   UNL     1      34.989 -15.499 -20.580  0.00  0.00    +0.419 A 
ATOM     18  H   UNL     1      34.871 -14.359 -22.364  0.00  0.00    +0.172 HD
ENDBRANCH   2  11
BRANCH   1  19
ATOM     19  C   UNL     1      35.034 -22.908 -18.081  0.00  0.00    -0.050 C 
BRANCH  19  20
ATOM     20  C   UNL     1      34.317 -22.933 -16.758  0.00  0.00    -0.043 C 
ATOM     21  C   UNL     1      32.945 -23.147 -16.728  0.00  0.00    -0.006 C 
ATOM     22  C   UNL     1      35.036 -22.743 -15.586  0.00  0.00    -0.006 C 
ATOM     23  C   UNL     1      32.281 -23.171 -15.502  0.00  0.00    -0.000 C 
ATOM     24  C   UNL     1      34.371 -22.767 -14.361  0.00  0.00    -0.000 C 
ATOM     25  C   UNL     1      32.994 -22.980 -14.318  0.00  0.00    -0.000 C 
BRANCH  23  26
ATOM     26  C   UNL     1      30.852 -23.394 -15.457  0.00  0.00    -0.000 C 
ATOM     27  C   UNL     1      30.339 -24.497 -14.774  0.00  0.00    -0.000 C 
ATOM     28  C   UNL     1      29.986 -22.505 -16.096  0.00  0.00    -0.000 C 
ATOM     29  C   UNL     1      28.961 -24.712 -14.731  0.00  0.00    -0.000 C 
ATOM     30  C   UNL     1      28.609 -22.721 -16.053  0.00  0.00    -0.000 C 
ATOM     31  C   UNL     1      28.097 -23.824 -15.370  0.00  0.00    +0.000 C 
ENDBRANCH  23  26
ENDBRANCH  19  20
ENDBRANCH   1  19
TORSDOF 4
ENDMDL
MODEL 8
REMARK VINA RESULT:     -11.1      3.142      6.128
REMARK  Name = 208951
REMARK  4 active torsions:
REMARK  status: ('A' for Active; 'I' for Inactive)
REMARK    1  A    between atoms: N_1  and  C_19
REMARK    2  A    between atoms: N_2  and  C_11
REMARK    3  A    between atoms: C_19  and  C_20
REMARK    4  A    between atoms: C_23  and  C_26
REMARK                            x       y       z     vdW  Elec       q    Type
REMARK                         _______ _______ _______ _____ _____    ______ ____
ROOT
ATOM      1  N   UNL     1      35.856 -20.209 -19.572  0.00  0.00    +0.392 N 
ATOM      2  N   UNL     1      35.202 -18.465 -21.738  0.00  0.00    -0.309 N 
ATOM      3  C   UNL     1      34.835 -20.593 -20.554  0.00  0.00    -0.055 C 
ATOM      4  C   UNL     1      36.902 -19.413 -20.225  0.00  0.00    -0.055 C 
ATOM      5  C   UNL     1      34.182 -19.359 -21.181  0.00  0.00    +0.068 C 
ATOM      6  C   UNL     1      36.318 -18.138 -20.841  0.00  0.00    +0.068 C 
ATOM      7  H   UNL     1      35.418 -19.643 -18.845  0.00  0.00    -0.079 HD
ENDROOT
BRANCH   2  11
ATOM      8  O   UNL     1      34.939 -15.582 -21.197  0.00  0.00    -0.406 OA
ATOM      9  O   UNL     1      34.780 -13.353 -20.597  0.00  0.00    -0.223 OA
ATOM     10  N   UNL     1      34.356 -14.027 -22.787  0.00  0.00    -0.287 N 
ATOM     11  C   UNL     1      34.845 -17.525 -22.712  0.00  0.00    +0.084 C 
ATOM     12  C   UNL     1      34.727 -16.168 -22.435  0.00  0.00    +0.179 A 
ATOM     13  C   UNL     1      34.585 -17.904 -24.044  0.00  0.00    +0.018 C 
ATOM     14  C   UNL     1      34.377 -15.252 -23.402  0.00  0.00    +0.098 A 
ATOM     15  C   UNL     1      34.226 -16.958 -25.026  0.00  0.00    +0.003 C 
ATOM     16  C   UNL     1      34.118 -15.602 -24.708  0.00  0.00    +0.020 C 
ATOM     17  C   UNL     1      34.694 -14.221 -21.458  0.00  0.00    +0.419 A 
ATOM     18  H   UNL     1      34.140 -13.167 -23.213  0.00  0.00    +0.172 HD
ENDBRANCH   2  11
BRANCH   1  19
ATOM     19  C   UNL     1      36.433 -21.395 -18.942  0.00  0.00    -0.050 C 
BRANCH  19  20
ATOM     20  C   UNL     1      35.470 -22.012 -17.964  0.00  0.00    -0.043 C 
ATOM     21  C   UNL     1      35.895 -22.299 -16.673  0.00  0.00    -0.006 C 
ATOM     22  C   UNL     1      34.170 -22.286 -18.365  0.00  0.00    -0.006 C 
ATOM     23  C   UNL     1      35.001 -22.871 -15.767  0.00  0.00    -0.000 C 
ATOM     24  C   UNL     1      33.277 -22.857 -17.459  0.00  0.00    -0.000 C 
ATOM     25  C   UNL     1      33.692 -23.150 -16.161  0.00  0.00    -0.000 C 
BRANCH  23  26
ATOM     26  C   UNL     1      35.431 -23.173 -14.419  0.00  0.00    -0.000 C 
ATOM     27  C   UNL     1      36.751 -22.933 -14.038  0.00  0.00    -0.000 C 
ATOM     28  C   UNL     1      34.525 -23.704 -13.500  0.00  0.00    -0.000 C 
ATOM     29  C   UNL     1      37.166 -23.224 -12.738  0.00  0.00    -0.000 C 
ATOM     30  C   UNL     1      34.940 -23.995 -12.201  0.00  0.00    -0.000 C 
ATOM     31  C   UNL     1      36.260 -23.755 -11.820  0.00  0.00    +0.000 C 
ENDBRANCH  23  26
ENDBRANCH  19  20
ENDBRANCH   1  19
TORSDOF 4
ENDMDL
MODEL 9
REMARK VINA RESULT:     -11.0      1.920      3.946
REMARK  Name = 208951
REMARK  4 active torsions:
REMARK  status: ('A' for Active; 'I' for Inactive)
REMARK    1  A    between atoms: N_1  and  C_19
REMARK    2  A    between atoms: N_2  and  C_11
REMARK    3  A    between atoms: C_19  and  C_20
REMARK    4  A    between atoms: C_23  and  C_26
REMARK                            x       y       z     vdW  Elec       q    Type
REMARK                         _______ _______ _______ _____ _____    ______ ____
ROOT
ATOM      1  N   UNL     1      35.095 -18.586 -21.491  0.00  0.00    +0.392 N 
ATOM      2  N   UNL     1      34.540 -16.349 -23.179  0.00  0.00    -0.309 N 
ATOM      3  C   UNL     1      35.021 -18.754 -22.947  0.00  0.00    -0.055 C 
ATOM      4  C   UNL     1      35.636 -17.260 -21.168  0.00  0.00    -0.055 C 
ATOM      5  C   UNL     1      34.115 -17.694 -23.578  0.00  0.00    +0.068 C 
ATOM      6  C   UNL     1      34.750 -16.150 -21.739  0.00  0.00    +0.068 C 
ATOM      7  H   UNL     1      34.155 -18.661 -21.103  0.00  0.00    -0.079 HD
ENDROOT
BRANCH   2  11
ATOM      8  O   UNL     1      33.415 -13.883 -22.028  0.00  0.00    -0.406 OA
ATOM      9  O   UNL     1      32.549 -12.024 -20.956  0.00  0.00    -0.223 OA
ATOM     10  N   UNL     1      32.783 -12.058 -23.275  0.00  0.00    -0.287 N 
ATOM     11  C   UNL     1      34.157 -15.243 -23.946  0.00  0.00    +0.084 C 
ATOM     12  C   UNL     1      33.628 -14.088 -23.382  0.00  0.00    +0.179 A 
ATOM     13  C   UNL     1      34.288 -15.235 -25.349  0.00  0.00    +0.018 C 
ATOM     14  C   UNL     1      33.256 -13.005 -24.147  0.00  0.00    +0.098 A 
ATOM     15  C   UNL     1      33.903 -14.121 -26.122  0.00  0.00    +0.003 C 
ATOM     16  C   UNL     1      33.376 -12.978 -25.517  0.00  0.00    +0.020 C 
ATOM     17  C   UNL     1      32.878 -12.583 -21.996  0.00  0.00    +0.419 A 
ATOM     18  H   UNL     1      32.440 -11.168 -23.514  0.00  0.00    +0.172 HD
ENDBRANCH   2  11
BRANCH   1  19
ATOM     19  C   UNL     1      35.920 -19.635 -20.894  0.00  0.00    -0.050 C 
BRANCH  19  20
ATOM     20  C   UNL     1      35.122 -20.467 -19.927  0.00  0.00    -0.043 C 
ATOM     21  C   UNL     1      35.755 -21.031 -18.826  0.00  0.00    -0.006 C 
ATOM     22  C   UNL     1      33.765 -20.659 -20.145  0.00  0.00    -0.006 C 
ATOM     23  C   UNL     1      35.015 -21.801 -17.929  0.00  0.00    -0.000 C 
ATOM     24  C   UNL     1      33.026 -21.428 -19.248  0.00  0.00    -0.000 C 
ATOM     25  C   UNL     1      33.650 -22.000 -18.140  0.00  0.00    -0.000 C 
BRANCH  23  26
ATOM     26  C   UNL     1      35.662 -22.393 -16.778  0.00  0.00    -0.000 C 
ATOM     27  C   UNL     1      37.023 -22.181 -16.557  0.00  0.00    -0.000 C 
ATOM     28  C   UNL     1      34.925 -23.175 -15.888  0.00  0.00    -0.000 C 
ATOM     29  C   UNL     1      37.646 -22.750 -15.447  0.00  0.00    -0.000 C 
ATOM     30  C   UNL     1      35.549 -23.745 -14.779  0.00  0.00    -0.000 C 
ATOM     31  C   UNL     1      36.910 -23.532 -14.558  0.00  0.00    +0.000 C 
ENDBRANCH  23  26
ENDBRANCH  19  20
ENDBRANCH   1  19
TORSDOF 4
ENDMDL
