MODEL 1
REMARK VINA RESULT:     -12.4      0.000      0.000
REMARK  Name = 447736
REMARK  4 active torsions:
REMARK  status: ('A' for Active; 'I' for Inactive)
REMARK    1  A    between atoms: N_2  and  C_13
REMARK    2  A    between atoms: C_3  and  C_20
REMARK    3  A    between atoms: C_6  and  C_17
REMARK    4  A    between atoms: C_28  and  C_32
REMARK                            x       y       z     vdW  Elec       q    Type
REMARK                         _______ _______ _______ _____ _____    ______ ____
ROOT
ATOM      1  O   UNL     1      33.901 -23.831 -17.570  0.00  0.00    -0.270 OA
ATOM      2  N   UNL     1      34.949 -22.238 -16.194  0.00  0.00    -0.280 N 
ATOM      3  C   UNL     1      34.348 -22.707 -17.371  0.00  0.00    +0.249 C 
ATOM      4  H   UNL     1      35.253 -21.302 -16.208  0.00  0.00    +0.155 HD
ENDROOT
BRANCH   2  13
ATOM      5  N   UNL     1      38.112 -25.586 -12.054  0.00  0.00    +0.388 N 
ATOM      6  C   UNL     1      38.088 -24.618 -13.169  0.00  0.00    -0.039 C 
ATOM      7  C   UNL     1      36.691 -24.123 -13.518  0.00  0.00    -0.045 C 
ATOM      8  C   UNL     1      35.627 -24.305 -12.611  0.00  0.00    -0.030 C 
ATOM      9  C   UNL     1      35.840 -25.044 -11.315  0.00  0.00    +0.003 C 
ATOM     10  C   UNL     1      37.315 -25.104 -10.927  0.00  0.00    -0.076 C 
ATOM     11  C   UNL     1      36.447 -23.411 -14.704  0.00  0.00    +0.008 C 
ATOM     12  C   UNL     1      34.344 -23.834 -12.929  0.00  0.00    -0.003 C 
ATOM     13  C   UNL     1      35.169 -22.936 -15.006  0.00  0.00    +0.050 C 
ATOM     14  C   UNL     1      34.117 -23.153 -14.123  0.00  0.00    +0.014 C 
ATOM     15  H   UNL     1      39.076 -25.718 -11.747  0.00  0.00    -0.084 HD
ATOM     16  H   UNL     1      37.715 -26.467 -12.379  0.00  0.00    -0.084 HD
BRANCH   6  17
ATOM     17  C   UNL     1      38.805 -25.290 -14.347  0.00  0.00    -0.015 C 
ATOM     18  C   UNL     1      40.292 -25.444 -14.045  0.00  0.00    -0.002 C 
ATOM     19  C   UNL     1      38.171 -26.643 -14.651  0.00  0.00    -0.002 C 
ENDBRANCH   6  17
ENDBRANCH   2  13
BRANCH   3  20
ATOM     20  C   UNL     1      34.282 -21.726 -18.485  0.00  0.00    +0.054 C 
ATOM     21  C   UNL     1      35.400 -20.176 -19.946  0.00  0.00    +0.000 C 
ATOM     22  C   UNL     1      35.445 -21.107 -18.895  0.00  0.00    +0.005 C 
ATOM     23  C   UNL     1      34.159 -19.891 -20.565  0.00  0.00    +0.000 C 
ATOM     24  C   UNL     1      33.065 -21.466 -19.069  0.00  0.00    +0.005 C 
ATOM     25  C   UNL     1      33.001 -20.544 -20.114  0.00  0.00    +0.000 C 
ATOM     26  C   UNL     1      34.115 -18.960 -21.616  0.00  0.00    +0.003 C 
ATOM     27  C   UNL     1      36.559 -19.524 -20.397  0.00  0.00    +0.000 C 
ATOM     28  C   UNL     1      35.276 -18.321 -22.051  0.00  0.00    +0.031 C 
ATOM     29  C   UNL     1      36.496 -18.603 -21.442  0.00  0.00    +0.003 C 
BRANCH  28  32
ATOM     30  N   UNL     1      34.503 -17.633 -24.308  0.00  0.00    -0.343 N 
ATOM     31  N   UNL     1      35.837 -16.201 -23.031  0.00  0.00    -0.285 NA
ATOM     32  C   UNL     1      35.212 -17.359 -23.140  0.00  0.00    +0.117 C 
ATOM     33  H   UNL     1      34.473 -16.967 -25.033  0.00  0.00    +0.144 HD
ATOM     34  H   UNL     1      34.033 -18.492 -24.409  0.00  0.00    +0.144 HD
ATOM     35  H   UNL     1      35.795 -15.548 -23.767  0.00  0.00    +0.188 HD
ENDBRANCH  28  32
ENDBRANCH   3  20
TORSDOF 4
ENDMDL
MODEL 2
REMARK VINA RESULT:     -11.7      3.773     11.942
REMARK  Name = 447736
REMARK  4 active torsions:
REMARK  status: ('A' for Active; 'I' for Inactive)
REMARK    1  A    between atoms: N_2  and  C_13
REMARK    2  A    between atoms: C_3  and  C_20
REMARK    3  A    between atoms: C_6  and  C_17
REMARK    4  A    between atoms: C_28  and  C_32
REMARK                            x       y       z     vdW  Elec       q    Type
REMARK                         _______ _______ _______ _____ _____    ______ ____
ROOT
ATOM      1  O   UNL     1      34.570 -18.788 -23.587  0.00  0.00    -0.270 OA
ATOM      2  N   UNL     1      34.872 -16.810 -22.353  0.00  0.00    -0.280 N 
ATOM      3  C   UNL     1      34.889 -18.196 -22.562  0.00  0.00    +0.249 C 
ATOM      4  H   UNL     1      35.161 -16.504 -21.462  0.00  0.00    +0.155 HD
ENDROOT
BRANCH   2  13
ATOM      5  N   UNL     1      33.155 -11.150 -24.188  0.00  0.00    +0.388 N 
ATOM      6  C   UNL     1      33.845 -12.029 -23.223  0.00  0.00    -0.039 C 
ATOM      7  C   UNL     1      33.968 -13.473 -23.692  0.00  0.00    -0.045 C 
ATOM      8  C   UNL     1      33.771 -13.797 -25.050  0.00  0.00    -0.030 C 
ATOM      9  C   UNL     1      33.374 -12.735 -26.043  0.00  0.00    +0.003 C 
ATOM     10  C   UNL     1      33.691 -11.331 -25.536  0.00  0.00    -0.076 C 
ATOM     11  C   UNL     1      34.356 -14.493 -22.808  0.00  0.00    +0.008 C 
ATOM     12  C   UNL     1      33.900 -15.125 -25.481  0.00  0.00    -0.003 C 
ATOM     13  C   UNL     1      34.494 -15.811 -23.250  0.00  0.00    +0.050 C 
ATOM     14  C   UNL     1      34.260 -16.128 -24.584  0.00  0.00    +0.014 C 
ATOM     15  H   UNL     1      33.283 -10.178 -23.906  0.00  0.00    -0.084 HD
ATOM     16  H   UNL     1      32.164 -11.392 -24.197  0.00  0.00    -0.084 HD
BRANCH   6  17
ATOM     17  C   UNL     1      33.100 -11.886 -21.890  0.00  0.00    -0.015 C 
ATOM     18  C   UNL     1      32.453 -10.509 -21.789  0.00  0.00    -0.002 C 
ATOM     19  C   UNL     1      32.056 -12.988 -21.745  0.00  0.00    -0.002 C 
ENDBRANCH   6  17
ENDBRANCH   2  13
BRANCH   3  20
ATOM     20  C   UNL     1      35.317 -19.010 -21.394  0.00  0.00    +0.054 C 
ATOM     21  C   UNL     1      34.777 -20.595 -19.668  0.00  0.00    +0.000 C 
ATOM     22  C   UNL     1      34.389 -19.820 -20.773  0.00  0.00    +0.005 C 
ATOM     23  C   UNL     1      36.116 -20.529 -19.212  0.00  0.00    +0.000 C 
ATOM     24  C   UNL     1      36.623 -18.927 -20.971  0.00  0.00    +0.005 C 
ATOM     25  C   UNL     1      37.026 -19.689 -19.874  0.00  0.00    +0.000 C 
ATOM     26  C   UNL     1      36.503 -21.303 -18.107  0.00  0.00    +0.003 C 
ATOM     27  C   UNL     1      33.867 -21.434 -19.006  0.00  0.00    +0.000 C 
ATOM     28  C   UNL     1      35.586 -22.132 -17.461  0.00  0.00    +0.031 C 
ATOM     29  C   UNL     1      34.270 -22.197 -17.910  0.00  0.00    +0.003 C 
BRANCH  28  32
ATOM     30  N   UNL     1      37.278 -22.795 -15.768  0.00  0.00    -0.343 N 
ATOM     31  N   UNL     1      35.167 -23.797 -15.780  0.00  0.00    -0.285 NA
ATOM     32  C   UNL     1      36.003 -22.927 -16.317  0.00  0.00    +0.117 C 
ATOM     33  H   UNL     1      37.539 -23.343 -14.993  0.00  0.00    +0.144 HD
ATOM     34  H   UNL     1      37.916 -22.153 -16.155  0.00  0.00    +0.144 HD
ATOM     35  H   UNL     1      35.448 -24.337 -15.006  0.00  0.00    +0.188 HD
ENDBRANCH  28  32
ENDBRANCH   3  20
TORSDOF 4
ENDMDL
MODEL 3
REMARK VINA RESULT:     -11.6      2.245     10.675
REMARK  Name = 447736
REMARK  4 active torsions:
REMARK  status: ('A' for Active; 'I' for Inactive)
REMARK    1  A    between atoms: N_2  and  C_13
REMARK    2  A    between atoms: C_3  and  C_20
REMARK    3  A    between atoms: C_6  and  C_17
REMARK    4  A    between atoms: C_28  and  C_32
REMARK                            x       y       z     vdW  Elec       q    Type
REMARK                         _______ _______ _______ _____ _____    ______ ____
ROOT
ATOM      1  O   UNL     1      33.335 -20.841 -20.141  0.00  0.00    -0.270 OA
ATOM      2  N   UNL     1      35.324 -19.673 -20.594  0.00  0.00    -0.280 N 
ATOM      3  C   UNL     1      34.503 -20.564 -19.890  0.00  0.00    +0.249 C 
ATOM      4  H   UNL     1      36.242 -19.570 -20.252  0.00  0.00    +0.155 HD
ENDROOT
BRANCH   2  13
ATOM      5  N   UNL     1      34.030 -14.559 -23.837  0.00  0.00    +0.388 N 
ATOM      6  C   UNL     1      34.677 -15.213 -22.683  0.00  0.00    -0.039 C 
ATOM      7  C   UNL     1      34.661 -16.735 -22.756  0.00  0.00    -0.045 C 
ATOM      8  C   UNL     1      34.389 -17.384 -23.978  0.00  0.00    -0.030 C 
ATOM      9  C   UNL     1      34.049 -16.587 -25.212  0.00  0.00    +0.003 C 
ATOM     10  C   UNL     1      34.501 -15.134 -25.096  0.00  0.00    -0.076 C 
ATOM     11  C   UNL     1      34.991 -17.519 -21.639  0.00  0.00    +0.008 C 
ATOM     12  C   UNL     1      34.390 -18.784 -24.045  0.00  0.00    -0.003 C 
ATOM     13  C   UNL     1      35.001 -18.913 -21.719  0.00  0.00    +0.050 C 
ATOM     14  C   UNL     1      34.694 -19.546 -22.919  0.00  0.00    +0.014 C 
ATOM     15  H   UNL     1      34.250 -13.563 -23.823  0.00  0.00    -0.084 HD
ATOM     16  H   UNL     1      33.022 -14.703 -23.772  0.00  0.00    -0.084 HD
BRANCH   6  17
ATOM     17  C   UNL     1      33.993 -14.659 -21.426  0.00  0.00    -0.015 C 
ATOM     18  C   UNL     1      35.037 -14.222 -20.404  0.00  0.00    -0.002 C 
ATOM     19  C   UNL     1      33.072 -13.500 -21.791  0.00  0.00    -0.002 C 
ENDBRANCH   6  17
ENDBRANCH   2  13
BRANCH   3  20
ATOM     20  C   UNL     1      35.130 -21.207 -18.706  0.00  0.00    +0.054 C 
ATOM     21  C   UNL     1      34.928 -22.619 -16.769  0.00  0.00    +0.000 C 
ATOM     22  C   UNL     1      34.351 -22.005 -17.893  0.00  0.00    +0.005 C 
ATOM     23  C   UNL     1      36.300 -22.407 -16.492  0.00  0.00    +0.000 C 
ATOM     24  C   UNL     1      36.464 -20.985 -18.459  0.00  0.00    +0.005 C 
ATOM     25  C   UNL     1      37.054 -21.586 -17.347  0.00  0.00    +0.000 C 
ATOM     26  C   UNL     1      36.876 -23.020 -15.369  0.00  0.00    +0.003 C 
ATOM     27  C   UNL     1      34.174 -23.439 -15.915  0.00  0.00    +0.000 C 
ATOM     28  C   UNL     1      36.112 -23.832 -14.531  0.00  0.00    +0.031 C 
ATOM     29  C   UNL     1      34.763 -24.041 -14.803  0.00  0.00    +0.003 C 
BRANCH  28  32
ATOM     30  N   UNL     1      36.004 -25.326 -12.550  0.00  0.00    -0.343 N 
ATOM     31  N   UNL     1      37.988 -24.209 -13.077  0.00  0.00    -0.285 NA
ATOM     32  C   UNL     1      36.724 -24.460 -13.370  0.00  0.00    +0.117 C 
ATOM     33  H   UNL     1      36.438 -25.741 -11.770  0.00  0.00    +0.144 HD
ATOM     34  H   UNL     1      35.061 -25.524 -12.751  0.00  0.00    +0.144 HD
ATOM     35  H   UNL     1      38.404 -24.634 -12.291  0.00  0.00    +0.188 HD
ENDBRANCH  28  32
ENDBRANCH   3  20
TORSDOF 4
ENDMDL
MODEL 4
REMARK VINA RESULT:     -11.5      1.191      2.723
REMARK  Name = 447736
REMARK  4 active torsions:
REMARK  status: ('A' for Active; 'I' for Inactive)
REMARK    1  A    between atoms: N_2  and  C_13
REMARK    2  A    between atoms: C_3  and  C_20
REMARK    3  A    between atoms: C_6  and  C_17
REMARK    4  A    between atoms: C_28  and  C_32
REMARK                            x       y       z     vdW  Elec       q    Type
REMARK                         _______ _______ _______ _____ _____    ______ ____
ROOT
ATOM      1  O   UNL     1      34.354 -23.204 -17.752  0.00  0.00    -0.270 OA
ATOM      2  N   UNL     1      36.256 -21.989 -17.094  0.00  0.00    -0.280 N 
ATOM      3  C   UNL     1      35.123 -22.256 -17.874  0.00  0.00    +0.249 C 
ATOM      4  H   UNL     1      36.763 -21.179 -17.332  0.00  0.00    +0.155 HD
ENDROOT
BRANCH   2  13
ATOM      5  N   UNL     1      36.044 -25.310 -11.871  0.00  0.00    +0.388 N 
ATOM      6  C   UNL     1      35.400 -24.830 -13.110  0.00  0.00    -0.039 C 
ATOM      7  C   UNL     1      36.355 -24.110 -14.054  0.00  0.00    -0.045 C 
ATOM      8  C   UNL     1      37.749 -24.245 -13.893  0.00  0.00    -0.030 C 
ATOM      9  C   UNL     1      38.315 -25.050 -12.751  0.00  0.00    +0.003 C 
ATOM     10  C   UNL     1      37.288 -26.017 -12.168  0.00  0.00    -0.076 C 
ATOM     11  C   UNL     1      35.875 -23.366 -15.144  0.00  0.00    +0.008 C 
ATOM     12  C   UNL     1      38.625 -23.593 -14.773  0.00  0.00    -0.003 C 
ATOM     13  C   UNL     1      36.756 -22.730 -16.022  0.00  0.00    +0.050 C 
ATOM     14  C   UNL     1      38.129 -22.838 -15.833  0.00  0.00    +0.014 C 
ATOM     15  H   UNL     1      35.407 -25.945 -11.389  0.00  0.00    -0.084 HD
ATOM     16  H   UNL     1      36.260 -24.505 -11.283  0.00  0.00    -0.084 HD
BRANCH   6  17
ATOM     17  C   UNL     1      34.208 -23.967 -12.679  0.00  0.00    -0.015 C 
ATOM     18  C   UNL     1      32.896 -24.672 -13.004  0.00  0.00    -0.002 C 
ATOM     19  C   UNL     1      34.297 -23.646 -11.191  0.00  0.00    -0.002 C 
ENDBRANCH   6  17
ENDBRANCH   2  13
BRANCH   3  20
ATOM     20  C   UNL     1      34.863 -21.289 -18.971  0.00  0.00    +0.054 C 
ATOM     21  C   UNL     1      35.700 -19.684 -20.555  0.00  0.00    +0.000 C 
ATOM     22  C   UNL     1      35.929 -20.603 -19.517  0.00  0.00    +0.005 C 
ATOM     23  C   UNL     1      34.379 -19.479 -21.021  0.00  0.00    +0.000 C 
ATOM     24  C   UNL     1      33.571 -21.108 -19.405  0.00  0.00    +0.005 C 
ATOM     25  C   UNL     1      33.326 -20.199 -20.435  0.00  0.00    +0.000 C 
ATOM     26  C   UNL     1      34.152 -18.560 -22.058  0.00  0.00    +0.003 C 
ATOM     27  C   UNL     1      36.754 -18.964 -21.141  0.00  0.00    +0.000 C 
ATOM     28  C   UNL     1      35.211 -17.854 -22.629  0.00  0.00    +0.031 C 
ATOM     29  C   UNL     1      36.510 -18.056 -22.170  0.00  0.00    +0.003 C 
BRANCH  28  32
ATOM     30  N   UNL     1      35.422 -15.593 -23.633  0.00  0.00    -0.343 N 
ATOM     31  N   UNL     1      34.273 -17.284 -24.766  0.00  0.00    -0.285 NA
ATOM     32  C   UNL     1      34.958 -16.906 -23.701  0.00  0.00    +0.117 C 
ATOM     33  H   UNL     1      35.240 -14.968 -24.372  0.00  0.00    +0.144 HD
ATOM     34  H   UNL     1      35.932 -15.292 -22.847  0.00  0.00    +0.144 HD
ATOM     35  H   UNL     1      34.101 -16.643 -25.494  0.00  0.00    +0.188 HD
ENDBRANCH  28  32
ENDBRANCH   3  20
TORSDOF 4
ENDMDL
MODEL 5
REMARK VINA RESULT:     -11.4      1.805      3.672
REMARK  Name = 447736
REMARK  4 active torsions:
REMARK  status: ('A' for Active; 'I' for Inactive)
REMARK    1  A    between atoms: N_2  and  C_13
REMARK    2  A    between atoms: C_3  and  C_20
REMARK    3  A    between atoms: C_6  and  C_17
REMARK    4  A    between atoms: C_28  and  C_32
REMARK                            x       y       z     vdW  Elec       q    Type
REMARK                         _______ _______ _______ _____ _____    ______ ____
ROOT
ATOM      1  O   UNL     1      35.270 -22.579 -19.334  0.00  0.00    -0.270 OA
ATOM      2  N   UNL     1      36.310 -21.163 -17.771  0.00  0.00    -0.280 N 
ATOM      3  C   UNL     1      35.734 -21.492 -19.006  0.00  0.00    +0.249 C 
ATOM      4  H   UNL     1      36.633 -20.238 -17.678  0.00  0.00    +0.155 HD
ENDROOT
BRANCH   2  13
ATOM      5  N   UNL     1      34.608 -24.753 -13.020  0.00  0.00    +0.388 N 
ATOM      6  C   UNL     1      34.333 -24.173 -14.350  0.00  0.00    -0.039 C 
ATOM      7  C   UNL     1      35.527 -23.451 -14.960  0.00  0.00    -0.045 C 
ATOM      8  C   UNL     1      36.823 -23.664 -14.447  0.00  0.00    -0.030 C 
ATOM      9  C   UNL     1      37.039 -24.558 -13.253  0.00  0.00    +0.003 C 
ATOM     10  C   UNL     1      35.862 -25.503 -13.026  0.00  0.00    -0.076 C 
ATOM     11  C   UNL     1      35.379 -22.625 -16.086  0.00  0.00    +0.008 C 
ATOM     12  C   UNL     1      37.923 -23.009 -15.021  0.00  0.00    -0.003 C 
ATOM     13  C   UNL     1      36.482 -21.986 -16.657  0.00  0.00    +0.050 C 
ATOM     14  C   UNL     1      37.751 -22.173 -16.122  0.00  0.00    +0.014 C 
ATOM     15  H   UNL     1      33.845 -25.380 -12.765  0.00  0.00    -0.084 HD
ATOM     16  H   UNL     1      34.687 -23.993 -12.344  0.00  0.00    -0.084 HD
BRANCH   6  17
ATOM     17  C   UNL     1      33.099 -23.277 -14.190  0.00  0.00    -0.015 C 
ATOM     18  C   UNL     1      32.149 -23.466 -15.368  0.00  0.00    -0.002 C 
ATOM     19  C   UNL     1      32.394 -23.575 -12.872  0.00  0.00    -0.002 C 
ENDBRANCH   6  17
ENDBRANCH   2  13
BRANCH   3  20
ATOM     20  C   UNL     1      35.720 -20.399 -20.012  0.00  0.00    +0.054 C 
ATOM     21  C   UNL     1      34.715 -19.378 -21.944  0.00  0.00    +0.000 C 
ATOM     22  C   UNL     1      34.741 -20.404 -20.984  0.00  0.00    +0.005 C 
ATOM     23  C   UNL     1      35.695 -18.358 -21.895  0.00  0.00    +0.000 C 
ATOM     24  C   UNL     1      36.684 -19.420 -19.942  0.00  0.00    +0.005 C 
ATOM     25  C   UNL     1      36.673 -18.394 -20.887  0.00  0.00    +0.000 C 
ATOM     26  C   UNL     1      35.668 -17.333 -22.854  0.00  0.00    +0.003 C 
ATOM     27  C   UNL     1      33.737 -19.342 -22.951  0.00  0.00    +0.000 C 
ATOM     28  C   UNL     1      34.689 -17.313 -23.847  0.00  0.00    +0.031 C 
ATOM     29  C   UNL     1      33.725 -18.316 -23.895  0.00  0.00    +0.003 C 
BRANCH  28  32
ATOM     30  N   UNL     1      35.723 -15.330 -24.926  0.00  0.00    -0.343 N 
ATOM     31  N   UNL     1      33.654 -16.127 -25.663  0.00  0.00    -0.285 NA
ATOM     32  C   UNL     1      34.676 -16.244 -24.834  0.00  0.00    +0.117 C 
ATOM     33  H   UNL     1      35.695 -14.615 -25.603  0.00  0.00    +0.144 HD
ATOM     34  H   UNL     1      36.493 -15.399 -24.316  0.00  0.00    +0.144 HD
ATOM     35  H   UNL     1      33.643 -15.405 -26.332  0.00  0.00    +0.188 HD
ENDBRANCH  28  32
ENDBRANCH   3  20
TORSDOF 4
ENDMDL
MODEL 6
REMARK VINA RESULT:     -11.3      2.589      4.562
REMARK  Name = 447736
REMARK  4 active torsions:
REMARK  status: ('A' for Active; 'I' for Inactive)
REMARK    1  A    between atoms: N_2  and  C_13
REMARK    2  A    between atoms: C_3  and  C_20
REMARK    3  A    between atoms: C_6  and  C_17
REMARK    4  A    between atoms: C_28  and  C_32
REMARK                            x       y       z     vdW  Elec       q    Type
REMARK                         _______ _______ _______ _____ _____    ______ ____
ROOT
ATOM      1  O   UNL     1      37.474 -19.551 -19.288  0.00  0.00    -0.270 OA
ATOM      2  N   UNL     1      35.438 -20.685 -18.977  0.00  0.00    -0.280 N 
ATOM      3  C   UNL     1      36.316 -19.793 -19.609  0.00  0.00    +0.249 C 
ATOM      4  H   UNL     1      34.538 -20.756 -19.370  0.00  0.00    +0.155 HD
ENDROOT
BRANCH   2  13
ATOM      5  N   UNL     1      34.056 -24.278 -14.126  0.00  0.00    +0.388 N 
ATOM      6  C   UNL     1      33.711 -23.729 -15.453  0.00  0.00    -0.039 C 
ATOM      7  C   UNL     1      34.851 -22.965 -16.113  0.00  0.00    -0.045 C 
ATOM      8  C   UNL     1      36.172 -23.117 -15.643  0.00  0.00    -0.030 C 
ATOM      9  C   UNL     1      36.467 -23.984 -14.446  0.00  0.00    +0.003 C 
ATOM     10  C   UNL     1      35.340 -24.975 -14.167  0.00  0.00    -0.076 C 
ATOM     11  C   UNL     1      34.629 -22.162 -17.243  0.00  0.00    +0.008 C 
ATOM     12  C   UNL     1      37.222 -22.423 -16.263  0.00  0.00    -0.003 C 
ATOM     13  C   UNL     1      35.684 -21.485 -17.860  0.00  0.00    +0.050 C 
ATOM     14  C   UNL     1      36.978 -21.610 -17.367  0.00  0.00    +0.014 C 
ATOM     15  H   UNL     1      33.330 -24.934 -13.837  0.00  0.00    -0.084 HD
ATOM     16  H   UNL     1      34.126 -23.507 -13.463  0.00  0.00    -0.084 HD
BRANCH   6  17
ATOM     17  C   UNL     1      32.445 -22.884 -15.261  0.00  0.00    -0.015 C 
ATOM     18  C   UNL     1      31.348 -23.347 -16.213  0.00  0.00    -0.002 C 
ATOM     19  C   UNL     1      31.974 -22.957 -13.813  0.00  0.00    -0.002 C 
ENDBRANCH   6  17
ENDBRANCH   2  13
BRANCH   3  20
ATOM     20  C   UNL     1      35.749 -19.058 -20.769  0.00  0.00    +0.054 C 
ATOM     21  C   UNL     1      35.147 -16.970 -21.802  0.00  0.00    +0.000 C 
ATOM     22  C   UNL     1      35.682 -17.681 -20.714  0.00  0.00    +0.005 C 
ATOM     23  C   UNL     1      34.686 -17.683 -22.935  0.00  0.00    +0.000 C 
ATOM     24  C   UNL     1      35.308 -19.773 -21.857  0.00  0.00    +0.005 C 
ATOM     25  C   UNL     1      34.773 -19.085 -22.946  0.00  0.00    +0.000 C 
ATOM     26  C   UNL     1      34.152 -16.972 -24.022  0.00  0.00    +0.003 C 
ATOM     27  C   UNL     1      35.060 -15.569 -21.790  0.00  0.00    +0.000 C 
ATOM     28  C   UNL     1      34.074 -15.580 -23.993  0.00  0.00    +0.031 C 
ATOM     29  C   UNL     1      34.527 -14.880 -22.879  0.00  0.00    +0.003 C 
BRANCH  28  32
ATOM     30  N   UNL     1      32.608 -13.818 -24.949  0.00  0.00    -0.343 N 
ATOM     31  N   UNL     1      33.870 -15.192 -26.356  0.00  0.00    -0.285 NA
ATOM     32  C   UNL     1      33.517 -14.859 -25.127  0.00  0.00    +0.117 C 
ATOM     33  H   UNL     1      32.244 -13.343 -25.730  0.00  0.00    +0.144 HD
ATOM     34  H   UNL     1      32.331 -13.557 -24.041  0.00  0.00    +0.144 HD
ATOM     35  H   UNL     1      33.494 -14.705 -27.124  0.00  0.00    +0.188 HD
ENDBRANCH  28  32
ENDBRANCH   3  20
TORSDOF 4
ENDMDL
MODEL 7
REMARK VINA RESULT:     -11.2      9.608     16.067
REMARK  Name = 447736
REMARK  4 active torsions:
REMARK  status: ('A' for Active; 'I' for Inactive)
REMARK    1  A    between atoms: N_2  and  C_13
REMARK    2  A    between atoms: C_3  and  C_20
REMARK    3  A    between atoms: C_6  and  C_17
REMARK    4  A    between atoms: C_28  and  C_32
REMARK                            x       y       z     vdW  Elec       q    Type
REMARK                         _______ _______ _______ _____ _____    ______ ____
ROOT
ATOM      1  O   UNL     1      34.881  -9.658 -24.178  0.00  0.00    -0.270 OA
ATOM      2  N   UNL     1      32.974  -9.797 -22.809  0.00  0.00    -0.280 N 
ATOM      3  C   UNL     1      33.982 -10.299 -23.644  0.00  0.00    +0.249 C 
ATOM      4  H   UNL     1      32.329 -10.457 -22.466  0.00  0.00    +0.155 HD
ENDROOT
BRANCH   2  13
ATOM      5  N   UNL     1      32.239  -3.683 -23.472  0.00  0.00    +0.388 N 
ATOM      6  C   UNL     1      32.133  -5.052 -24.016  0.00  0.00    -0.039 C 
ATOM      7  C   UNL     1      32.378  -6.141 -22.979  0.00  0.00    -0.045 C 
ATOM      8  C   UNL     1      32.331  -5.835 -21.603  0.00  0.00    -0.030 C 
ATOM      9  C   UNL     1      32.101  -4.419 -21.139  0.00  0.00    +0.003 C 
ATOM     10  C   UNL     1      31.478  -3.553 -22.231  0.00  0.00    -0.076 C 
ATOM     11  C   UNL     1      32.575  -7.478 -23.362  0.00  0.00    +0.008 C 
ATOM     12  C   UNL     1      32.542  -6.842 -20.651  0.00  0.00    -0.003 C 
ATOM     13  C   UNL     1      32.772  -8.476 -22.405  0.00  0.00    +0.050 C 
ATOM     14  C   UNL     1      32.761  -8.158 -21.052  0.00  0.00    +0.014 C 
ATOM     15  H   UNL     1      31.873  -3.023 -24.158  0.00  0.00    -0.084 HD
ATOM     16  H   UNL     1      33.220  -3.487 -23.274  0.00  0.00    -0.084 HD
BRANCH   6  17
ATOM     17  C   UNL     1      33.094  -5.125 -25.209  0.00  0.00    -0.015 C 
ATOM     18  C   UNL     1      32.765  -4.034 -26.222  0.00  0.00    -0.002 C 
ATOM     19  C   UNL     1      34.538  -5.007 -24.735  0.00  0.00    -0.002 C 
ENDBRANCH   6  17
ENDBRANCH   2  13
BRANCH   3  20
ATOM     20  C   UNL     1      33.915 -11.758 -23.915  0.00  0.00    +0.054 C 
ATOM     21  C   UNL     1      34.356 -14.016 -23.211  0.00  0.00    +0.000 C 
ATOM     22  C   UNL     1      34.411 -12.632 -22.970  0.00  0.00    +0.005 C 
ATOM     23  C   UNL     1      33.792 -14.486 -24.422  0.00  0.00    +0.000 C 
ATOM     24  C   UNL     1      33.363 -12.189 -25.099  0.00  0.00    +0.005 C 
ATOM     25  C   UNL     1      33.301 -13.559 -25.355  0.00  0.00    +0.000 C 
ATOM     26  C   UNL     1      33.738 -15.868 -24.662  0.00  0.00    +0.003 C 
ATOM     27  C   UNL     1      34.847 -14.942 -22.277  0.00  0.00    +0.000 C 
ATOM     28  C   UNL     1      34.231 -16.774 -23.723  0.00  0.00    +0.031 C 
ATOM     29  C   UNL     1      34.785 -16.311 -22.533  0.00  0.00    +0.003 C 
BRANCH  28  32
ATOM     30  N   UNL     1      34.975 -19.104 -23.297  0.00  0.00    -0.343 N 
ATOM     31  N   UNL     1      33.334 -18.666 -24.903  0.00  0.00    -0.285 NA
ATOM     32  C   UNL     1      34.168 -18.202 -23.988  0.00  0.00    +0.117 C 
ATOM     33  H   UNL     1      34.915 -20.068 -23.492  0.00  0.00    +0.144 HD
ATOM     34  H   UNL     1      35.604 -18.778 -22.614  0.00  0.00    +0.144 HD
ATOM     35  H   UNL     1      33.290 -19.633 -25.083  0.00  0.00    +0.188 HD
ENDBRANCH  28  32
ENDBRANCH   3  20
TORSDOF 4
ENDMDL
MODEL 8
REMARK VINA RESULT:     -11.0      8.959     15.756
REMARK  Name = 447736
REMARK  4 active torsions:
REMARK  status: ('A' for Active; 'I' for Inactive)
REMARK    1  A    between atoms: N_2  and  C_13
REMARK    2  A    between atoms: C_3  and  C_20
REMARK    3  A    between atoms: C_6  and  C_17
REMARK    4  A    between atoms: C_28  and  C_32
REMARK                            x       y       z     vdW  Elec       q    Type
REMARK                         _______ _______ _______ _____ _____    ______ ____
ROOT
ATOM      1  O   UNL     1      31.195 -11.043 -21.182  0.00  0.00    -0.270 OA
ATOM      2  N   UNL     1      32.968  -9.846 -22.155  0.00  0.00    -0.280 N 
ATOM      3  C   UNL     1      32.274 -10.998 -21.761  0.00  0.00    +0.249 C 
ATOM      4  H   UNL     1      33.828  -9.995 -22.612  0.00  0.00    +0.155 HD
ENDROOT
BRANCH   2  13
ATOM      5  N   UNL     1      31.924  -3.959 -23.768  0.00  0.00    +0.388 N 
ATOM      6  C   UNL     1      32.031  -5.386 -24.130  0.00  0.00    -0.039 C 
ATOM      7  C   UNL     1      32.145  -6.314 -22.928  0.00  0.00    -0.045 C 
ATOM      8  C   UNL     1      31.803  -5.853 -21.641  0.00  0.00    -0.030 C 
ATOM      9  C   UNL     1      31.380  -4.423 -21.424  0.00  0.00    +0.003 C 
ATOM     10  C   UNL     1      30.923  -3.759 -22.721  0.00  0.00    -0.076 C 
ATOM     11  C   UNL     1      32.514  -7.661 -23.082  0.00  0.00    +0.008 C 
ATOM     12  C   UNL     1      31.895  -6.715 -20.538  0.00  0.00    -0.003 C 
ATOM     13  C   UNL     1      32.591  -8.514 -21.980  0.00  0.00    +0.050 C 
ATOM     14  C   UNL     1      32.288  -8.040 -20.708  0.00  0.00    +0.014 C 
ATOM     15  H   UNL     1      31.653  -3.424 -24.593  0.00  0.00    -0.084 HD
ATOM     16  H   UNL     1      32.828  -3.643 -23.417  0.00  0.00    -0.084 HD
BRANCH   6  17
ATOM     17  C   UNL     1      33.213  -5.503 -25.102  0.00  0.00    -0.015 C 
ATOM     18  C   UNL     1      33.001  -4.593 -26.306  0.00  0.00    -0.002 C 
ATOM     19  C   UNL     1      34.519  -5.167 -24.390  0.00  0.00    -0.002 C 
ENDBRANCH   6  17
ENDBRANCH   2  13
BRANCH   3  20
ATOM     20  C   UNL     1      32.953 -12.284 -22.065  0.00  0.00    +0.054 C 
ATOM     21  C   UNL     1      34.038 -14.286 -21.288  0.00  0.00    +0.000 C 
ATOM     22  C   UNL     1      33.393 -13.067 -21.018  0.00  0.00    +0.005 C 
ATOM     23  C   UNL     1      34.224 -14.687 -22.633  0.00  0.00    +0.000 C 
ATOM     24  C   UNL     1      33.122 -12.651 -23.380  0.00  0.00    +0.005 C 
ATOM     25  C   UNL     1      33.760 -13.858 -23.667  0.00  0.00    +0.000 C 
ATOM     26  C   UNL     1      34.869 -15.905 -22.903  0.00  0.00    +0.003 C 
ATOM     27  C   UNL     1      34.501 -15.115 -20.254  0.00  0.00    +0.000 C 
ATOM     28  C   UNL     1      35.322 -16.716 -21.863  0.00  0.00    +0.031 C 
ATOM     29  C   UNL     1      35.139 -16.321 -20.541  0.00  0.00    +0.003 C 
BRANCH  28  32
ATOM     30  N   UNL     1      37.313 -18.198 -21.789  0.00  0.00    -0.343 N 
ATOM     31  N   UNL     1      35.335 -18.931 -22.795  0.00  0.00    -0.285 NA
ATOM     32  C   UNL     1      35.989 -17.974 -22.160  0.00  0.00    +0.117 C 
ATOM     33  H   UNL     1      37.745 -19.058 -21.999  0.00  0.00    +0.144 HD
ATOM     34  H   UNL     1      37.817 -17.497 -21.317  0.00  0.00    +0.144 HD
ATOM     35  H   UNL     1      35.785 -19.783 -22.996  0.00  0.00    +0.188 HD
ENDBRANCH  28  32
ENDBRANCH   3  20
TORSDOF 4
ENDMDL
MODEL 9
REMARK VINA RESULT:     -11.0      0.689      1.608
REMARK  Name = 447736
REMARK  4 active torsions:
REMARK  status: ('A' for Active; 'I' for Inactive)
REMARK    1  A    between atoms: N_2  and  C_13
REMARK    2  A    between atoms: C_3  and  C_20
REMARK    3  A    between atoms: C_6  and  C_17
REMARK    4  A    between atoms: C_28  and  C_32
REMARK                            x       y       z     vdW  Elec       q    Type
REMARK                         _______ _______ _______ _____ _____    ______ ____
ROOT
ATOM      1  O   UNL     1      34.350 -23.282 -17.814  0.00  0.00    -0.270 OA
ATOM      2  N   UNL     1      35.732 -22.005 -16.404  0.00  0.00    -0.280 N 
ATOM      3  C   UNL     1      35.060 -22.307 -17.597  0.00  0.00    +0.249 C 
ATOM      4  H   UNL     1      36.262 -21.175 -16.405  0.00  0.00    +0.155 HD
ENDROOT
BRANCH   2  13
ATOM      5  N   UNL     1      38.017 -25.773 -12.052  0.00  0.00    +0.388 N 
ATOM      6  C   UNL     1      38.227 -24.799 -13.142  0.00  0.00    -0.039 C 
ATOM      7  C   UNL     1      36.946 -24.125 -13.615  0.00  0.00    -0.045 C 
ATOM      8  C   UNL     1      35.782 -24.178 -12.820  0.00  0.00    -0.030 C 
ATOM      9  C   UNL     1      35.769 -24.951 -11.526  0.00  0.00    +0.003 C 
ATOM     10  C   UNL     1      37.179 -25.204 -10.998  0.00  0.00    -0.076 C 
ATOM     11  C   UNL     1      36.914 -23.376 -14.802  0.00  0.00    +0.008 C 
ATOM     12  C   UNL     1      34.608 -23.543 -13.251  0.00  0.00    -0.003 C 
ATOM     13  C   UNL     1      35.743 -22.738 -15.216  0.00  0.00    +0.050 C 
ATOM     14  C   UNL     1      34.589 -22.826 -14.445  0.00  0.00    +0.014 C 
ATOM     15  H   UNL     1      38.921 -26.031 -11.656  0.00  0.00    -0.084 HD
ATOM     16  H   UNL     1      37.546 -26.593 -12.434  0.00  0.00    -0.084 HD
BRANCH   6  17
ATOM     17  C   UNL     1      38.967 -25.546 -14.259  0.00  0.00    -0.015 C 
ATOM     18  C   UNL     1      40.414 -25.806 -13.856  0.00  0.00    -0.002 C 
ATOM     19  C   UNL     1      38.252 -26.852 -14.588  0.00  0.00    -0.002 C 
ENDBRANCH   6  17
ENDBRANCH   2  13
BRANCH   3  20
ATOM     20  C   UNL     1      35.268 -21.339 -18.705  0.00  0.00    +0.054 C 
ATOM     21  C   UNL     1      34.372 -20.080 -20.548  0.00  0.00    +0.000 C 
ATOM     22  C   UNL     1      34.192 -20.992 -19.495  0.00  0.00    +0.005 C 
ATOM     23  C   UNL     1      35.657 -19.534 -20.779  0.00  0.00    +0.000 C 
ATOM     24  C   UNL     1      36.527 -20.824 -18.909  0.00  0.00    +0.005 C 
ATOM     25  C   UNL     1      36.725 -19.916 -19.950  0.00  0.00    +0.000 C 
ATOM     26  C   UNL     1      35.837 -18.622 -21.832  0.00  0.00    +0.003 C 
ATOM     27  C   UNL     1      33.305 -19.697 -21.376  0.00  0.00    +0.000 C 
ATOM     28  C   UNL     1      34.766 -18.253 -22.644  0.00  0.00    +0.031 C 
ATOM     29  C   UNL     1      33.501 -18.790 -22.417  0.00  0.00    +0.003 C 
BRANCH  28  32
ATOM     30  N   UNL     1      35.715 -16.145 -23.551  0.00  0.00    -0.343 N 
ATOM     31  N   UNL     1      34.437 -17.545 -24.917  0.00  0.00    -0.285 NA
ATOM     32  C   UNL     1      34.969 -17.308 -23.731  0.00  0.00    +0.117 C 
ATOM     33  H   UNL     1      35.841 -15.519 -24.301  0.00  0.00    +0.144 HD
ATOM     34  H   UNL     1      36.118 -15.950 -22.674  0.00  0.00    +0.144 HD
ATOM     35  H   UNL     1      34.574 -16.906 -25.654  0.00  0.00    +0.188 HD
ENDBRANCH  28  32
ENDBRANCH   3  20
TORSDOF 4
ENDMDL
