MODEL 1
REMARK VINA RESULT:     -11.6      0.000      0.000
REMARK  Name = 11711595
REMARK  10 active torsions:
REMARK  status: ('A' for Active; 'I' for Inactive)
REMARK    1  A    between atoms: C_1  and  C_9
REMARK    2  A    between atoms: C_3  and  C_17
REMARK    3  A    between atoms: C_5  and  O_7
REMARK    4  A    between atoms: C_9  and  C_10
REMARK    5  A    between atoms: C_10  and  C_12
REMARK    6  A    between atoms: C_10  and  C_15
REMARK    7  A    between atoms: C_12  and  O_13
REMARK    8  A    between atoms: C_17  and  N_19
REMARK    9  A    between atoms: C_20  and  C_23
REMARK   10  A    between atoms: C_26  and  C_32
REMARK                            x       y       z     vdW  Elec       q    Type
REMARK                         _______ _______ _______ _____ _____    ______ ____
ROOT
ATOM      1  C   UNL     1      35.044 -23.951 -14.178  0.00  0.00    -0.022 C 
ATOM      2  C   UNL     1      34.359 -23.689 -15.365  0.00  0.00    -0.004 C 
ATOM      3  C   UNL     1      32.986 -23.444 -15.338  0.00  0.00    +0.031 C 
ATOM      4  C   UNL     1      34.356 -23.969 -12.965  0.00  0.00    -0.001 C 
ATOM      5  C   UNL     1      32.298 -23.461 -14.124  0.00  0.00    +0.136 C 
ATOM      6  C   UNL     1      32.983 -23.724 -12.938  0.00  0.00    +0.036 C 
ENDROOT
BRANCH   5   7
ATOM      7  O   UNL     1      30.957 -23.224 -14.080  0.00  0.00    -0.472 OA
ATOM      8  C   UNL     1      30.107 -24.351 -13.870  0.00  0.00    +0.252 C 
ENDBRANCH   5   7
BRANCH   1   9
ATOM      9  C   UNL     1      36.531 -24.216 -14.207  0.00  0.00    +0.037 C 
BRANCH   9  10
ATOM     10  C   UNL     1      36.934 -25.495 -13.450  0.00  0.00    +0.103 C 
BRANCH  10  12
ATOM     11  O   UNL     1      36.437 -26.919 -15.362  0.00  0.00    -0.250 OA
ATOM     12  C   UNL     1      37.194 -26.615 -14.447  0.00  0.00    +0.314 C 
BRANCH  12  13
ATOM     13  O   UNL     1      38.379 -27.242 -14.235  0.00  0.00    -0.480 OA
ATOM     14  H   UNL     1      38.550 -28.071 -14.637  0.00  0.00    +0.295 HD
ENDBRANCH  12  13
ENDBRANCH  10  12
BRANCH  10  15
ATOM     15  C   UNL     1      38.195 -25.236 -12.603  0.00  0.00    +0.011 C 
ATOM     16  C   UNL     1      37.968 -24.191 -11.518  0.00  0.00    +0.001 C 
ENDBRANCH  10  15
ENDBRANCH   9  10
ENDBRANCH   1   9
BRANCH   3  17
ATOM     17  C   UNL     1      32.269 -23.165 -16.618  0.00  0.00    +0.120 C 
BRANCH  17  19
ATOM     18  O   UNL     1      33.828 -23.751 -18.956  0.00  0.00    -0.270 OA
ATOM     19  N   UNL     1      32.973 -22.216 -17.442  0.00  0.00    -0.297 N 
ATOM     20  C   UNL     1      33.705 -22.595 -18.559  0.00  0.00    +0.248 C 
ATOM     21  H   UNL     1      32.935 -21.262 -17.203  0.00  0.00    +0.150 HD
BRANCH  20  23
ATOM     22  F   UNL     1      32.327 -20.703 -20.140  0.00  0.00    -0.204 F 
ATOM     23  C   UNL     1      34.396 -21.500 -19.288  0.00  0.00    +0.081 C 
ATOM     24  C   UNL     1      33.661 -20.595 -20.053  0.00  0.00    +0.144 C 
ATOM     25  C   UNL     1      35.783 -21.378 -19.205  0.00  0.00    +0.007 C 
ATOM     26  C   UNL     1      35.698 -19.445 -20.652  0.00  0.00    +0.074 C 
ATOM     27  C   UNL     1      34.311 -19.567 -20.735  0.00  0.00    +0.034 C 
ATOM     28  C   UNL     1      36.434 -20.351 -19.887  0.00  0.00    +0.004 C 
BRANCH  26  32
ATOM     29  F   UNL     1      37.758 -18.439 -21.339  0.00  0.00    -0.166 F 
ATOM     30  F   UNL     1      36.083 -18.288 -22.709  0.00  0.00    -0.166 F 
ATOM     31  F   UNL     1      36.096 -17.112 -20.880  0.00  0.00    -0.166 F 
ATOM     32  C   UNL     1      36.395 -18.346 -21.381  0.00  0.00    +0.419 C 
ENDBRANCH  26  32
ENDBRANCH  20  23
ENDBRANCH  17  19
ENDBRANCH   3  17
TORSDOF 10
ENDMDL
MODEL 2
REMARK VINA RESULT:     -11.6      0.879      1.426
REMARK  Name = 11711595
REMARK  10 active torsions:
REMARK  status: ('A' for Active; 'I' for Inactive)
REMARK    1  A    between atoms: C_1  and  C_9
REMARK    2  A    between atoms: C_3  and  C_17
REMARK    3  A    between atoms: C_5  and  O_7
REMARK    4  A    between atoms: C_9  and  C_10
REMARK    5  A    between atoms: C_10  and  C_12
REMARK    6  A    between atoms: C_10  and  C_15
REMARK    7  A    between atoms: C_12  and  O_13
REMARK    8  A    between atoms: C_17  and  N_19
REMARK    9  A    between atoms: C_20  and  C_23
REMARK   10  A    between atoms: C_26  and  C_32
REMARK                            x       y       z     vdW  Elec       q    Type
REMARK                         _______ _______ _______ _____ _____    ______ ____
ROOT
ATOM      1  C   UNL     1      35.136 -23.968 -14.271  0.00  0.00    -0.022 C 
ATOM      2  C   UNL     1      34.401 -23.660 -15.417  0.00  0.00    -0.004 C 
ATOM      3  C   UNL     1      33.027 -23.438 -15.326  0.00  0.00    +0.031 C 
ATOM      4  C   UNL     1      34.495 -24.054 -13.035  0.00  0.00    -0.001 C 
ATOM      5  C   UNL     1      32.387 -23.525 -14.088  0.00  0.00    +0.136 C 
ATOM      6  C   UNL     1      33.121 -23.833 -12.944  0.00  0.00    +0.036 C 
ENDROOT
BRANCH   5   7
ATOM      7  O   UNL     1      31.045 -23.313 -13.982  0.00  0.00    -0.472 OA
ATOM      8  C   UNL     1      30.234 -24.442 -13.666  0.00  0.00    +0.252 C 
ENDBRANCH   5   7
BRANCH   1   9
ATOM      9  C   UNL     1      36.624 -24.207 -14.369  0.00  0.00    +0.037 C 
BRANCH   9  10
ATOM     10  C   UNL     1      37.100 -25.417 -13.544  0.00  0.00    +0.103 C 
BRANCH  10  12
ATOM     11  O   UNL     1      36.662 -26.937 -15.396  0.00  0.00    -0.250 OA
ATOM     12  C   UNL     1      37.392 -26.584 -14.477  0.00  0.00    +0.314 C 
BRANCH  12  13
ATOM     13  O   UNL     1      38.573 -27.193 -14.201  0.00  0.00    -0.480 OA
ATOM     14  H   UNL     1      39.295 -26.690 -13.879  0.00  0.00    +0.295 HD
ENDBRANCH  12  13
ENDBRANCH  10  12
BRANCH  10  15
ATOM     15  C   UNL     1      38.363 -25.050 -12.743  0.00  0.00    +0.011 C 
ATOM     16  C   UNL     1      38.053 -24.208 -11.512  0.00  0.00    +0.001 C 
ENDBRANCH  10  15
ENDBRANCH   9  10
ENDBRANCH   1   9
BRANCH   3  17
ATOM     17  C   UNL     1      32.257 -23.110 -16.562  0.00  0.00    +0.120 C 
BRANCH  17  19
ATOM     18  O   UNL     1      33.882 -23.717 -18.849  0.00  0.00    -0.270 OA
ATOM     19  N   UNL     1      32.948 -22.165 -17.400  0.00  0.00    -0.297 N 
ATOM     20  C   UNL     1      33.715 -22.554 -18.490  0.00  0.00    +0.248 C 
ATOM     21  H   UNL     1      32.876 -21.206 -17.192  0.00  0.00    +0.150 HD
BRANCH  20  23
ATOM     22  F   UNL     1      36.492 -22.066 -18.317  0.00  0.00    -0.204 F 
ATOM     23  C   UNL     1      34.387 -21.461 -19.238  0.00  0.00    +0.081 C 
ATOM     24  C   UNL     1      35.763 -21.269 -19.113  0.00  0.00    +0.144 C 
ATOM     25  C   UNL     1      33.639 -20.626 -20.068  0.00  0.00    +0.007 C 
ATOM     26  C   UNL     1      35.644 -19.408 -20.647  0.00  0.00    +0.074 C 
ATOM     27  C   UNL     1      36.392 -20.243 -19.817  0.00  0.00    +0.034 C 
ATOM     28  C   UNL     1      34.268 -19.599 -20.773  0.00  0.00    +0.004 C 
BRANCH  26  32
ATOM     29  F   UNL     1      35.979 -17.060 -20.965  0.00  0.00    -0.166 F 
ATOM     30  F   UNL     1      37.679 -18.355 -21.333  0.00  0.00    -0.166 F 
ATOM     31  F   UNL     1      36.015 -18.327 -22.733  0.00  0.00    -0.166 F 
ATOM     32  C   UNL     1      36.316 -18.310 -21.401  0.00  0.00    +0.419 C 
ENDBRANCH  26  32
ENDBRANCH  20  23
ENDBRANCH  17  19
ENDBRANCH   3  17
TORSDOF 10
ENDMDL
MODEL 3
REMARK VINA RESULT:     -11.1      1.601      2.163
REMARK  Name = 11711595
REMARK  10 active torsions:
REMARK  status: ('A' for Active; 'I' for Inactive)
REMARK    1  A    between atoms: C_1  and  C_9
REMARK    2  A    between atoms: C_3  and  C_17
REMARK    3  A    between atoms: C_5  and  O_7
REMARK    4  A    between atoms: C_9  and  C_10
REMARK    5  A    between atoms: C_10  and  C_12
REMARK    6  A    between atoms: C_10  and  C_15
REMARK    7  A    between atoms: C_12  and  O_13
REMARK    8  A    between atoms: C_17  and  N_19
REMARK    9  A    between atoms: C_20  and  C_23
REMARK   10  A    between atoms: C_26  and  C_32
REMARK                            x       y       z     vdW  Elec       q    Type
REMARK                         _______ _______ _______ _____ _____    ______ ____
ROOT
ATOM      1  C   UNL     1      36.285 -23.888 -13.945  0.00  0.00    -0.022 C 
ATOM      2  C   UNL     1      35.474 -23.722 -15.069  0.00  0.00    -0.004 C 
ATOM      3  C   UNL     1      34.086 -23.745 -14.938  0.00  0.00    +0.031 C 
ATOM      4  C   UNL     1      35.706 -24.077 -12.691  0.00  0.00    -0.001 C 
ATOM      5  C   UNL     1      33.507 -23.934 -13.682  0.00  0.00    +0.136 C 
ATOM      6  C   UNL     1      34.317 -24.100 -12.559  0.00  0.00    +0.036 C 
ENDROOT
BRANCH   5   7
ATOM      7  O   UNL     1      32.153 -23.960 -13.536  0.00  0.00    -0.472 OA
ATOM      8  C   UNL     1      31.548 -22.834 -12.902  0.00  0.00    +0.252 C 
ENDBRANCH   5   7
BRANCH   1   9
ATOM      9  C   UNL     1      37.788 -23.863 -14.088  0.00  0.00    +0.037 C 
BRANCH   9  10
ATOM     10  C   UNL     1      38.367 -25.179 -14.639  0.00  0.00    +0.103 C 
BRANCH  10  12
ATOM     11  O   UNL     1      40.494 -24.630 -13.588  0.00  0.00    -0.250 OA
ATOM     12  C   UNL     1      39.884 -25.160 -14.509  0.00  0.00    +0.314 C 
BRANCH  12  13
ATOM     13  O   UNL     1      40.505 -25.821 -15.518  0.00  0.00    -0.480 OA
ATOM     14  H   UNL     1      40.022 -26.418 -16.055  0.00  0.00    +0.295 HD
ENDBRANCH  12  13
ENDBRANCH  10  12
BRANCH  10  15
ATOM     15  C   UNL     1      37.785 -26.380 -13.871  0.00  0.00    +0.011 C 
ATOM     16  C   UNL     1      36.835 -27.215 -14.722  0.00  0.00    +0.001 C 
ENDBRANCH  10  15
ENDBRANCH   9  10
ENDBRANCH   1   9
BRANCH   3  17
ATOM     17  C   UNL     1      33.235 -23.567 -16.151  0.00  0.00    +0.120 C 
BRANCH  17  19
ATOM     18  O   UNL     1      33.879 -23.838 -18.935  0.00  0.00    -0.270 OA
ATOM     19  N   UNL     1      33.737 -22.535 -17.022  0.00  0.00    -0.297 N 
ATOM     20  C   UNL     1      34.022 -22.761 -18.362  0.00  0.00    +0.248 C 
ATOM     21  H   UNL     1      33.884 -21.635 -16.653  0.00  0.00    +0.150 HD
BRANCH  20  23
ATOM     22  F   UNL     1      36.745 -22.016 -18.289  0.00  0.00    -0.204 F 
ATOM     23  C   UNL     1      34.558 -21.601 -19.120  0.00  0.00    +0.081 C 
ATOM     24  C   UNL     1      35.914 -21.283 -19.045  0.00  0.00    +0.144 C 
ATOM     25  C   UNL     1      33.703 -20.832 -19.908  0.00  0.00    +0.007 C 
ATOM     26  C   UNL     1      35.560 -19.425 -20.546  0.00  0.00    +0.074 C 
ATOM     27  C   UNL     1      36.415 -20.194 -19.758  0.00  0.00    +0.034 C 
ATOM     28  C   UNL     1      34.204 -19.743 -20.621  0.00  0.00    +0.004 C 
BRANCH  26  32
ATOM     29  F   UNL     1      37.452 -18.293 -21.476  0.00  0.00    -0.166 F 
ATOM     30  F   UNL     1      35.585 -18.152 -22.571  0.00  0.00    -0.166 F 
ATOM     31  F   UNL     1      35.830 -17.067 -20.702  0.00  0.00    -0.166 F 
ATOM     32  C   UNL     1      36.096 -18.260 -21.310  0.00  0.00    +0.419 C 
ENDBRANCH  26  32
ENDBRANCH  20  23
ENDBRANCH  17  19
ENDBRANCH   3  17
TORSDOF 10
ENDMDL
MODEL 4
REMARK VINA RESULT:     -11.0      1.402      1.949
REMARK  Name = 11711595
REMARK  10 active torsions:
REMARK  status: ('A' for Active; 'I' for Inactive)
REMARK    1  A    between atoms: C_1  and  C_9
REMARK    2  A    between atoms: C_3  and  C_17
REMARK    3  A    between atoms: C_5  and  O_7
REMARK    4  A    between atoms: C_9  and  C_10
REMARK    5  A    between atoms: C_10  and  C_12
REMARK    6  A    between atoms: C_10  and  C_15
REMARK    7  A    between atoms: C_12  and  O_13
REMARK    8  A    between atoms: C_17  and  N_19
REMARK    9  A    between atoms: C_20  and  C_23
REMARK   10  A    between atoms: C_26  and  C_32
REMARK                            x       y       z     vdW  Elec       q    Type
REMARK                         _______ _______ _______ _____ _____    ______ ____
ROOT
ATOM      1  C   UNL     1      35.453 -23.359 -13.837  0.00  0.00    -0.022 C 
ATOM      2  C   UNL     1      34.784 -23.226 -15.055  0.00  0.00    -0.004 C 
ATOM      3  C   UNL     1      33.415 -23.486 -15.131  0.00  0.00    +0.031 C 
ATOM      4  C   UNL     1      34.753 -23.751 -12.696  0.00  0.00    -0.001 C 
ATOM      5  C   UNL     1      32.716 -23.879 -13.989  0.00  0.00    +0.136 C 
ATOM      6  C   UNL     1      33.384 -24.011 -12.772  0.00  0.00    +0.036 C 
ENDROOT
BRANCH   5   7
ATOM      7  O   UNL     1      31.379 -24.137 -14.045  0.00  0.00    -0.472 OA
ATOM      8  C   UNL     1      30.761 -24.618 -12.853  0.00  0.00    +0.252 C 
ENDBRANCH   5   7
BRANCH   1   9
ATOM      9  C   UNL     1      36.934 -23.078 -13.755  0.00  0.00    +0.037 C 
BRANCH   9  10
ATOM     10  C   UNL     1      37.726 -24.195 -13.051  0.00  0.00    +0.103 C 
BRANCH  10  12
ATOM     11  O   UNL     1      37.707 -24.625 -10.654  0.00  0.00    -0.250 OA
ATOM     12  C   UNL     1      37.898 -23.845 -11.579  0.00  0.00    +0.314 C 
BRANCH  12  13
ATOM     13  O   UNL     1      38.315 -22.567 -11.390  0.00  0.00    -0.480 OA
ATOM     14  H   UNL     1      39.037 -22.389 -10.820  0.00  0.00    +0.295 HD
ENDBRANCH  12  13
ENDBRANCH  10  12
BRANCH  10  15
ATOM     15  C   UNL     1      36.990 -25.540 -13.193  0.00  0.00    +0.011 C 
ATOM     16  C   UNL     1      37.510 -26.373 -14.358  0.00  0.00    +0.001 C 
ENDBRANCH  10  15
ENDBRANCH   9  10
ENDBRANCH   1   9
BRANCH   3  17
ATOM     17  C   UNL     1      32.717 -23.340 -16.441  0.00  0.00    +0.120 C 
BRANCH  17  19
ATOM     18  O   UNL     1      33.876 -23.790 -19.029  0.00  0.00    -0.270 OA
ATOM     19  N   UNL     1      33.342 -22.355 -17.286  0.00  0.00    -0.297 N 
ATOM     20  C   UNL     1      33.879 -22.668 -18.528  0.00  0.00    +0.248 C 
ATOM     21  H   UNL     1      33.393 -21.424 -16.971  0.00  0.00    +0.150 HD
BRANCH  20  23
ATOM     22  F   UNL     1      32.398 -20.817 -20.064  0.00  0.00    -0.204 F 
ATOM     23  C   UNL     1      34.514 -21.546 -19.266  0.00  0.00    +0.081 C 
ATOM     24  C   UNL     1      33.730 -20.663 -20.008  0.00  0.00    +0.144 C 
ATOM     25  C   UNL     1      35.897 -21.376 -19.214  0.00  0.00    +0.007 C 
ATOM     26  C   UNL     1      35.712 -19.440 -20.647  0.00  0.00    +0.074 C 
ATOM     27  C   UNL     1      34.328 -19.610 -20.698  0.00  0.00    +0.034 C 
ATOM     28  C   UNL     1      36.496 -20.323 -19.905  0.00  0.00    +0.004 C 
BRANCH  26  32
ATOM     29  F   UNL     1      36.015 -18.263 -22.708  0.00  0.00    -0.166 F 
ATOM     30  F   UNL     1      36.030 -17.082 -20.890  0.00  0.00    -0.166 F 
ATOM     31  F   UNL     1      37.715 -18.375 -21.356  0.00  0.00    -0.166 F 
ATOM     32  C   UNL     1      36.352 -18.313 -21.385  0.00  0.00    +0.419 C 
ENDBRANCH  26  32
ENDBRANCH  20  23
ENDBRANCH  17  19
ENDBRANCH   3  17
TORSDOF 10
ENDMDL
MODEL 5
REMARK VINA RESULT:     -10.7      5.484     11.154
REMARK  Name = 11711595
REMARK  10 active torsions:
REMARK  status: ('A' for Active; 'I' for Inactive)
REMARK    1  A    between atoms: C_1  and  C_9
REMARK    2  A    between atoms: C_3  and  C_17
REMARK    3  A    between atoms: C_5  and  O_7
REMARK    4  A    between atoms: C_9  and  C_10
REMARK    5  A    between atoms: C_10  and  C_12
REMARK    6  A    between atoms: C_10  and  C_15
REMARK    7  A    between atoms: C_12  and  O_13
REMARK    8  A    between atoms: C_17  and  N_19
REMARK    9  A    between atoms: C_20  and  C_23
REMARK   10  A    between atoms: C_26  and  C_32
REMARK                            x       y       z     vdW  Elec       q    Type
REMARK                         _______ _______ _______ _____ _____    ______ ____
ROOT
ATOM      1  C   UNL     1      34.162 -14.329 -22.913  0.00  0.00    -0.022 C 
ATOM      2  C   UNL     1      35.081 -15.299 -22.510  0.00  0.00    -0.004 C 
ATOM      3  C   UNL     1      35.156 -16.514 -23.192  0.00  0.00    +0.031 C 
ATOM      4  C   UNL     1      33.318 -14.574 -23.996  0.00  0.00    -0.001 C 
ATOM      5  C   UNL     1      34.311 -16.759 -24.276  0.00  0.00    +0.136 C 
ATOM      6  C   UNL     1      33.393 -15.789 -24.677  0.00  0.00    +0.036 C 
ENDROOT
BRANCH   5   7
ATOM      7  O   UNL     1      34.371 -17.940 -24.952  0.00  0.00    -0.472 OA
ATOM      8  C   UNL     1      33.322 -18.877 -24.712  0.00  0.00    +0.252 C 
ENDBRANCH   5   7
BRANCH   1   9
ATOM      9  C   UNL     1      34.081 -13.013 -22.175  0.00  0.00    +0.037 C 
BRANCH   9  10
ATOM     10  C   UNL     1      32.721 -12.310 -22.336  0.00  0.00    +0.103 C 
BRANCH  10  12
ATOM     11  O   UNL     1      32.142 -13.321 -20.197  0.00  0.00    -0.250 OA
ATOM     12  C   UNL     1      31.904 -12.489 -21.064  0.00  0.00    +0.314 C 
BRANCH  12  13
ATOM     13  O   UNL     1      30.879 -11.603 -20.970  0.00  0.00    -0.480 OA
ATOM     14  H   UNL     1      30.534 -11.373 -20.130  0.00  0.00    +0.295 HD
ENDBRANCH  12  13
ENDBRANCH  10  12
BRANCH  10  15
ATOM     15  C   UNL     1      32.927 -10.812 -22.626  0.00  0.00    +0.011 C 
ATOM     16  C   UNL     1      34.023 -10.559 -23.655  0.00  0.00    +0.001 C 
ENDBRANCH  10  15
ENDBRANCH   9  10
ENDBRANCH   1   9
BRANCH   3  17
ATOM     17  C   UNL     1      36.145 -17.540 -22.748  0.00  0.00    +0.120 C 
BRANCH  17  19
ATOM     18  O   UNL     1      37.509 -18.923 -20.634  0.00  0.00    -0.270 OA
ATOM     19  N   UNL     1      35.570 -18.491 -21.831  0.00  0.00    -0.297 N 
ATOM     20  C   UNL     1      36.312 -19.112 -20.836  0.00  0.00    +0.248 C 
ATOM     21  H   UNL     1      34.614 -18.709 -21.914  0.00  0.00    +0.150 HD
BRANCH  20  23
ATOM     22  F   UNL     1      33.512 -19.456 -20.975  0.00  0.00    -0.204 F 
ATOM     23  C   UNL     1      35.579 -20.089 -19.990  0.00  0.00    +0.081 C 
ATOM     24  C   UNL     1      34.195 -20.214 -20.104  0.00  0.00    +0.144 C 
ATOM     25  C   UNL     1      36.279 -20.882 -19.080  0.00  0.00    +0.007 C 
ATOM     26  C   UNL     1      34.209 -21.926 -18.400  0.00  0.00    +0.074 C 
ATOM     27  C   UNL     1      33.509 -21.132 -19.309  0.00  0.00    +0.034 C 
ATOM     28  C   UNL     1      35.594 -21.800 -18.285  0.00  0.00    +0.004 C 
BRANCH  26  32
ATOM     29  F   UNL     1      34.009 -23.055 -16.299  0.00  0.00    -0.166 F 
ATOM     30  F   UNL     1      32.167 -22.582 -17.343  0.00  0.00    -0.166 F 
ATOM     31  F   UNL     1      33.461 -24.161 -18.091  0.00  0.00    -0.166 F 
ATOM     32  C   UNL     1      33.476 -22.908 -17.549  0.00  0.00    +0.419 C 
ENDBRANCH  26  32
ENDBRANCH  20  23
ENDBRANCH  17  19
ENDBRANCH   3  17
TORSDOF 10
ENDMDL
MODEL 6
REMARK VINA RESULT:     -10.6      2.843      4.607
REMARK  Name = 11711595
REMARK  10 active torsions:
REMARK  status: ('A' for Active; 'I' for Inactive)
REMARK    1  A    between atoms: C_1  and  C_9
REMARK    2  A    between atoms: C_3  and  C_17
REMARK    3  A    between atoms: C_5  and  O_7
REMARK    4  A    between atoms: C_9  and  C_10
REMARK    5  A    between atoms: C_10  and  C_12
REMARK    6  A    between atoms: C_10  and  C_15
REMARK    7  A    between atoms: C_12  and  O_13
REMARK    8  A    between atoms: C_17  and  N_19
REMARK    9  A    between atoms: C_20  and  C_23
REMARK   10  A    between atoms: C_26  and  C_32
REMARK                            x       y       z     vdW  Elec       q    Type
REMARK                         _______ _______ _______ _____ _____    ______ ____
ROOT
ATOM      1  C   UNL     1      34.867 -22.707 -16.238  0.00  0.00    -0.022 C 
ATOM      2  C   UNL     1      35.730 -22.167 -17.193  0.00  0.00    -0.004 C 
ATOM      3  C   UNL     1      35.233 -21.767 -18.434  0.00  0.00    +0.031 C 
ATOM      4  C   UNL     1      33.510 -22.846 -16.523  0.00  0.00    -0.001 C 
ATOM      5  C   UNL     1      33.874 -21.907 -18.719  0.00  0.00    +0.136 C 
ATOM      6  C   UNL     1      33.013 -22.446 -17.764  0.00  0.00    +0.036 C 
ENDROOT
BRANCH   5   7
ATOM      7  O   UNL     1      33.372 -21.522 -19.926  0.00  0.00    -0.472 OA
ATOM      8  C   UNL     1      32.528 -20.372 -19.940  0.00  0.00    +0.252 C 
ENDBRANCH   5   7
BRANCH   1   9
ATOM      9  C   UNL     1      35.405 -23.139 -14.895  0.00  0.00    +0.037 C 
BRANCH   9  10
ATOM     10  C   UNL     1      36.462 -24.255 -14.995  0.00  0.00    +0.103 C 
BRANCH  10  12
ATOM     11  O   UNL     1      38.037 -23.673 -13.231  0.00  0.00    -0.250 OA
ATOM     12  C   UNL     1      37.783 -23.755 -14.427  0.00  0.00    +0.314 C 
BRANCH  12  13
ATOM     13  O   UNL     1      38.678 -23.426 -15.393  0.00  0.00    -0.480 OA
ATOM     14  H   UNL     1      38.385 -23.010 -16.180  0.00  0.00    +0.295 HD
ENDBRANCH  12  13
ENDBRANCH  10  12
BRANCH  10  15
ATOM     15  C   UNL     1      35.993 -25.503 -14.225  0.00  0.00    +0.011 C 
ATOM     16  C   UNL     1      36.806 -26.745 -14.568  0.00  0.00    +0.001 C 
ENDBRANCH  10  15
ENDBRANCH   9  10
ENDBRANCH   1   9
BRANCH   3  17
ATOM     17  C   UNL     1      36.169 -21.193 -19.444  0.00  0.00    +0.120 C 
BRANCH  17  19
ATOM     18  O   UNL     1      37.733 -19.002 -20.442  0.00  0.00    -0.270 OA
ATOM     19  N   UNL     1      35.669 -19.971 -20.020  0.00  0.00    -0.297 N 
ATOM     20  C   UNL     1      36.506 -18.962 -20.477  0.00  0.00    +0.248 C 
ATOM     21  H   UNL     1      34.695 -19.845 -20.091  0.00  0.00    +0.150 HD
BRANCH  20  23
ATOM     22  F   UNL     1      35.976 -18.611 -23.229  0.00  0.00    -0.204 F 
ATOM     23  C   UNL     1      35.835 -17.752 -21.018  0.00  0.00    +0.081 C 
ATOM     24  C   UNL     1      35.599 -17.636 -22.388  0.00  0.00    +0.144 C 
ATOM     25  C   UNL     1      35.438 -16.733 -20.154  0.00  0.00    +0.007 C 
ATOM     26  C   UNL     1      34.571 -15.481 -22.029  0.00  0.00    +0.074 C 
ATOM     27  C   UNL     1      34.967 -16.501 -22.894  0.00  0.00    +0.034 C 
ATOM     28  C   UNL     1      34.807 -15.596 -20.659  0.00  0.00    +0.004 C 
BRANCH  26  32
ATOM     29  F   UNL     1      34.750 -13.230 -22.822  0.00  0.00    -0.166 F 
ATOM     30  F   UNL     1      33.241 -14.483 -23.748  0.00  0.00    -0.166 F 
ATOM     31  F   UNL     1      32.955 -13.765 -21.716  0.00  0.00    -0.166 F 
ATOM     32  C   UNL     1      33.895 -14.266 -22.570  0.00  0.00    +0.419 C 
ENDBRANCH  26  32
ENDBRANCH  20  23
ENDBRANCH  17  19
ENDBRANCH   3  17
TORSDOF 10
ENDMDL
MODEL 7
REMARK VINA RESULT:     -10.4      6.423     12.117
REMARK  Name = 11711595
REMARK  10 active torsions:
REMARK  status: ('A' for Active; 'I' for Inactive)
REMARK    1  A    between atoms: C_1  and  C_9
REMARK    2  A    between atoms: C_3  and  C_17
REMARK    3  A    between atoms: C_5  and  O_7
REMARK    4  A    between atoms: C_9  and  C_10
REMARK    5  A    between atoms: C_10  and  C_12
REMARK    6  A    between atoms: C_10  and  C_15
REMARK    7  A    between atoms: C_12  and  O_13
REMARK    8  A    between atoms: C_17  and  N_19
REMARK    9  A    between atoms: C_20  and  C_23
REMARK   10  A    between atoms: C_26  and  C_32
REMARK                            x       y       z     vdW  Elec       q    Type
REMARK                         _______ _______ _______ _____ _____    ______ ____
ROOT
ATOM      1  C   UNL     1      33.482 -13.314 -23.099  0.00  0.00    -0.022 C 
ATOM      2  C   UNL     1      34.513 -14.091 -22.570  0.00  0.00    -0.004 C 
ATOM      3  C   UNL     1      34.863 -15.295 -23.183  0.00  0.00    +0.031 C 
ATOM      4  C   UNL     1      32.802 -13.740 -24.239  0.00  0.00    -0.001 C 
ATOM      5  C   UNL     1      34.183 -15.720 -24.324  0.00  0.00    +0.136 C 
ATOM      6  C   UNL     1      33.153 -14.943 -24.852  0.00  0.00    +0.036 C 
ENDROOT
BRANCH   5   7
ATOM      7  O   UNL     1      34.512 -16.893 -24.935  0.00  0.00    -0.472 OA
ATOM      8  C   UNL     1      33.702 -18.028 -24.637  0.00  0.00    +0.252 C 
ENDBRANCH   5   7
BRANCH   1   9
ATOM      9  C   UNL     1      33.102 -12.011 -22.435  0.00  0.00    +0.037 C 
BRANCH   9  10
ATOM     10  C   UNL     1      33.217 -10.796 -23.374  0.00  0.00    +0.103 C 
BRANCH  10  12
ATOM     11  O   UNL     1      32.762  -8.420 -23.086  0.00  0.00    -0.250 OA
ATOM     12  C   UNL     1      32.616  -9.572 -22.695  0.00  0.00    +0.314 C 
BRANCH  12  13
ATOM     13  O   UNL     1      31.869  -9.891 -21.607  0.00  0.00    -0.480 OA
ATOM     14  H   UNL     1      31.777 -10.786 -21.348  0.00  0.00    +0.295 HD
ENDBRANCH  12  13
ENDBRANCH  10  12
BRANCH  10  15
ATOM     15  C   UNL     1      34.693 -10.534 -23.728  0.00  0.00    +0.011 C 
ATOM     16  C   UNL     1      34.950 -10.569 -25.229  0.00  0.00    +0.001 C 
ENDBRANCH  10  15
ENDBRANCH   9  10
ENDBRANCH   1   9
BRANCH   3  17
ATOM     17  C   UNL     1      35.968 -16.114 -22.603  0.00  0.00    +0.120 C 
BRANCH  17  19
ATOM     18  O   UNL     1      37.320 -18.575 -22.007  0.00  0.00    -0.270 OA
ATOM     19  N   UNL     1      35.477 -17.186 -21.777  0.00  0.00    -0.297 N 
ATOM     20  C   UNL     1      36.205 -18.345 -21.545  0.00  0.00    +0.248 C 
ATOM     21  H   UNL     1      34.590 -17.095 -21.361  0.00  0.00    +0.150 HD
BRANCH  20  23
ATOM     22  F   UNL     1      37.655 -20.103 -19.876  0.00  0.00    -0.204 F 
ATOM     23  C   UNL     1      35.549 -19.369 -20.692  0.00  0.00    +0.081 C 
ATOM     24  C   UNL     1      36.318 -20.209 -19.887  0.00  0.00    +0.144 C 
ATOM     25  C   UNL     1      34.159 -19.488 -20.696  0.00  0.00    +0.007 C 
ATOM     26  C   UNL     1      34.310 -21.287 -19.090  0.00  0.00    +0.074 C 
ATOM     27  C   UNL     1      35.699 -21.168 -19.086  0.00  0.00    +0.034 C 
ATOM     28  C   UNL     1      33.539 -20.447 -19.895  0.00  0.00    +0.004 C 
BRANCH  26  32
ATOM     29  F   UNL     1      32.361 -21.996 -17.896  0.00  0.00    -0.166 F 
ATOM     30  F   UNL     1      33.569 -23.545 -18.817  0.00  0.00    -0.166 F 
ATOM     31  F   UNL     1      34.298 -22.508 -17.050  0.00  0.00    -0.166 F 
ATOM     32  C   UNL     1      33.647 -22.313 -18.234  0.00  0.00    +0.419 C 
ENDBRANCH  26  32
ENDBRANCH  20  23
ENDBRANCH  17  19
ENDBRANCH   3  17
TORSDOF 10
ENDMDL
MODEL 8
REMARK VINA RESULT:     -10.2      3.048      5.137
REMARK  Name = 11711595
REMARK  10 active torsions:
REMARK  status: ('A' for Active; 'I' for Inactive)
REMARK    1  A    between atoms: C_1  and  C_9
REMARK    2  A    between atoms: C_3  and  C_17
REMARK    3  A    between atoms: C_5  and  O_7
REMARK    4  A    between atoms: C_9  and  C_10
REMARK    5  A    between atoms: C_10  and  C_12
REMARK    6  A    between atoms: C_10  and  C_15
REMARK    7  A    between atoms: C_12  and  O_13
REMARK    8  A    between atoms: C_17  and  N_19
REMARK    9  A    between atoms: C_20  and  C_23
REMARK   10  A    between atoms: C_26  and  C_32
REMARK                            x       y       z     vdW  Elec       q    Type
REMARK                         _______ _______ _______ _____ _____    ______ ____
ROOT
ATOM      1  C   UNL     1      35.295 -22.487 -16.742  0.00  0.00    -0.022 C 
ATOM      2  C   UNL     1      36.146 -21.774 -17.588  0.00  0.00    -0.004 C 
ATOM      3  C   UNL     1      35.657 -21.237 -18.780  0.00  0.00    +0.031 C 
ATOM      4  C   UNL     1      33.956 -22.663 -17.088  0.00  0.00    -0.001 C 
ATOM      5  C   UNL     1      34.316 -21.414 -19.125  0.00  0.00    +0.136 C 
ATOM      6  C   UNL     1      33.466 -22.126 -18.279  0.00  0.00    +0.036 C 
ENDROOT
BRANCH   5   7
ATOM      7  O   UNL     1      33.822 -20.897 -20.285  0.00  0.00    -0.472 OA
ATOM      8  C   UNL     1      32.555 -20.245 -20.215  0.00  0.00    +0.252 C 
ENDBRANCH   5   7
BRANCH   1   9
ATOM      9  C   UNL     1      35.826 -23.067 -15.453  0.00  0.00    +0.037 C 
BRANCH   9  10
ATOM     10  C   UNL     1      34.948 -24.202 -14.892  0.00  0.00    +0.103 C 
BRANCH  10  12
ATOM     11  O   UNL     1      36.515 -25.106 -13.262  0.00  0.00    -0.250 OA
ATOM     12  C   UNL     1      35.837 -25.270 -14.269  0.00  0.00    +0.314 C 
BRANCH  12  13
ATOM     13  O   UNL     1      35.785 -26.450 -14.938  0.00  0.00    -0.480 OA
ATOM     14  H   UNL     1      35.083 -27.050 -14.776  0.00  0.00    +0.295 HD
ENDBRANCH  12  13
ENDBRANCH  10  12
BRANCH  10  15
ATOM     15  C   UNL     1      33.969 -23.647 -13.840  0.00  0.00    +0.011 C 
ATOM     16  C   UNL     1      32.897 -24.656 -13.447  0.00  0.00    +0.001 C 
ENDBRANCH  10  15
ENDBRANCH   9  10
ENDBRANCH   1   9
BRANCH   3  17
ATOM     17  C   UNL     1      36.581 -20.478 -19.672  0.00  0.00    +0.120 C 
BRANCH  17  19
ATOM     18  O   UNL     1      37.820 -18.516 -21.362  0.00  0.00    -0.270 OA
ATOM     19  N   UNL     1      35.943 -19.336 -20.274  0.00  0.00    -0.297 N 
ATOM     20  C   UNL     1      36.627 -18.436 -21.081  0.00  0.00    +0.248 C 
ATOM     21  H   UNL     1      34.985 -19.186 -20.107  0.00  0.00    +0.150 HD
BRANCH  20  23
ATOM     22  F   UNL     1      35.525 -16.447 -19.406  0.00  0.00    -0.204 F 
ATOM     23  C   UNL     1      35.833 -17.295 -21.604  0.00  0.00    +0.081 C 
ATOM     24  C   UNL     1      35.314 -16.342 -20.727  0.00  0.00    +0.144 C 
ATOM     25  C   UNL     1      35.607 -17.176 -22.975  0.00  0.00    +0.007 C 
ATOM     26  C   UNL     1      34.345 -15.153 -22.591  0.00  0.00    +0.074 C 
ATOM     27  C   UNL     1      34.570 -15.271 -21.220  0.00  0.00    +0.034 C 
ATOM     28  C   UNL     1      34.863 -16.105 -23.469  0.00  0.00    +0.004 C 
BRANCH  26  32
ATOM     29  F   UNL     1      32.835 -14.308 -24.245  0.00  0.00    -0.166 F 
ATOM     30  F   UNL     1      32.629 -13.525 -22.233  0.00  0.00    -0.166 F 
ATOM     31  F   UNL     1      34.329 -12.938 -23.456  0.00  0.00    -0.166 F 
ATOM     32  C   UNL     1      33.549 -14.006 -23.120  0.00  0.00    +0.419 C 
ENDBRANCH  26  32
ENDBRANCH  20  23
ENDBRANCH  17  19
ENDBRANCH   3  17
TORSDOF 10
ENDMDL
MODEL 9
REMARK VINA RESULT:     -10.0      9.016     12.538
REMARK  Name = 11711595
REMARK  10 active torsions:
REMARK  status: ('A' for Active; 'I' for Inactive)
REMARK    1  A    between atoms: C_1  and  C_9
REMARK    2  A    between atoms: C_3  and  C_17
REMARK    3  A    between atoms: C_5  and  O_7
REMARK    4  A    between atoms: C_9  and  C_10
REMARK    5  A    between atoms: C_10  and  C_12
REMARK    6  A    between atoms: C_10  and  C_15
REMARK    7  A    between atoms: C_12  and  O_13
REMARK    8  A    between atoms: C_17  and  N_19
REMARK    9  A    between atoms: C_20  and  C_23
REMARK   10  A    between atoms: C_26  and  C_32
REMARK                            x       y       z     vdW  Elec       q    Type
REMARK                         _______ _______ _______ _____ _____    ______ ____
ROOT
ATOM      1  C   UNL     1      34.715 -15.664 -21.091  0.00  0.00    -0.022 C 
ATOM      2  C   UNL     1      33.781 -14.891 -20.399  0.00  0.00    -0.004 C 
ATOM      3  C   UNL     1      33.223 -13.764 -21.003  0.00  0.00    +0.031 C 
ATOM      4  C   UNL     1      35.090 -15.309 -22.386  0.00  0.00    -0.001 C 
ATOM      5  C   UNL     1      33.599 -13.410 -22.300  0.00  0.00    +0.136 C 
ATOM      6  C   UNL     1      34.532 -14.182 -22.991  0.00  0.00    +0.036 C 
ENDROOT
BRANCH   5   7
ATOM      7  O   UNL     1      33.065 -12.312 -22.904  0.00  0.00    -0.472 OA
ATOM      8  C   UNL     1      33.873 -11.650 -23.875  0.00  0.00    +0.252 C 
ENDBRANCH   5   7
BRANCH   1   9
ATOM      9  C   UNL     1      35.319 -16.883 -20.436  0.00  0.00    +0.037 C 
BRANCH   9  10
ATOM     10  C   UNL     1      35.891 -17.894 -21.447  0.00  0.00    +0.103 C 
BRANCH  10  12
ATOM     11  O   UNL     1      37.108 -19.211 -19.799  0.00  0.00    -0.250 OA
ATOM     12  C   UNL     1      37.113 -18.576 -20.847  0.00  0.00    +0.314 C 
BRANCH  12  13
ATOM     13  O   UNL     1      38.224 -18.430 -21.613  0.00  0.00    -0.480 OA
ATOM     14  H   UNL     1      38.151 -18.416 -22.547  0.00  0.00    +0.295 HD
ENDBRANCH  12  13
ENDBRANCH  10  12
BRANCH  10  15
ATOM     15  C   UNL     1      34.824 -18.944 -21.812  0.00  0.00    +0.011 C 
ATOM     16  C   UNL     1      34.294 -18.772 -23.231  0.00  0.00    +0.001 C 
ENDBRANCH  10  15
ENDBRANCH   9  10
ENDBRANCH   1   9
BRANCH   3  17
ATOM     17  C   UNL     1      32.227 -12.949 -20.248  0.00  0.00    +0.120 C 
BRANCH  17  19
ATOM     18  O   UNL     1      30.096 -11.054 -20.585  0.00  0.00    -0.270 OA
ATOM     19  N   UNL     1      32.363 -11.540 -20.510  0.00  0.00    -0.297 N 
ATOM     20  C   UNL     1      31.269 -10.698 -20.660  0.00  0.00    +0.248 C 
ATOM     21  H   UNL     1      33.267 -11.158 -20.588  0.00  0.00    +0.150 HD
BRANCH  20  23
ATOM     22  F   UNL     1      32.398  -8.951 -18.748  0.00  0.00    -0.204 F 
ATOM     23  C   UNL     1      31.577  -9.274 -20.954  0.00  0.00    +0.081 C 
ATOM     24  C   UNL     1      32.135  -8.460 -19.968  0.00  0.00    +0.144 C 
ATOM     25  C   UNL     1      31.308  -8.753 -22.219  0.00  0.00    +0.007 C 
ATOM     26  C   UNL     1      32.155  -6.604 -21.513  0.00  0.00    +0.074 C 
ATOM     27  C   UNL     1      32.424  -7.125 -20.247  0.00  0.00    +0.034 C 
ATOM     28  C   UNL     1      31.597  -7.418 -22.499  0.00  0.00    +0.004 C 
BRANCH  26  32
ATOM     29  F   UNL     1      33.500  -5.012 -22.689  0.00  0.00    -0.166 F 
ATOM     30  F   UNL     1      31.419  -4.494 -22.364  0.00  0.00    -0.166 F 
ATOM     31  F   UNL     1      32.815  -4.470 -20.697  0.00  0.00    -0.166 F 
ATOM     32  C   UNL     1      32.465  -5.175 -21.812  0.00  0.00    +0.419 C 
ENDBRANCH  26  32
ENDBRANCH  20  23
ENDBRANCH  17  19
ENDBRANCH   3  17
TORSDOF 10
ENDMDL
