MODEL 1
REMARK VINA RESULT:     -11.6      0.000      0.000
REMARK  Name = 60195662
REMARK  7 active torsions:
REMARK  status: ('A' for Active; 'I' for Inactive)
REMARK    1  A    between atoms: N_2  and  C_14
REMARK    2  A    between atoms: N_2  and  C_23
REMARK    3  A    between atoms: C_3  and  C_5
REMARK    4  A    between atoms: C_14  and  C_17
REMARK    5  A    between atoms: C_23  and  C_24
REMARK    6  A    between atoms: C_27  and  C_31
REMARK    7  A    between atoms: C_31  and  O_32
REMARK                            x       y       z     vdW  Elec       q    Type
REMARK                         _______ _______ _______ _____ _____    ______ ____
ROOT
ATOM      1  O   UNL     1      33.332 -23.859 -17.068  0.00  0.00    -0.270 OA
ATOM      2  N   UNL     1      34.717 -23.194 -15.306  0.00  0.00    -0.270 N 
ATOM      3  C   UNL     1      34.249 -23.146 -16.633  0.00  0.00    +0.251 C 
ENDROOT
BRANCH   3   5
ATOM      4  N   UNL     1      36.848 -21.055 -18.307  0.00  0.00    -0.248 NA
ATOM      5  C   UNL     1      34.871 -22.226 -17.568  0.00  0.00    +0.072 C 
ATOM      6  C   UNL     1      34.143 -21.640 -18.593  0.00  0.00    +0.003 C 
ATOM      7  C   UNL     1      34.767 -20.756 -19.483  0.00  0.00    -0.004 C 
ATOM      8  C   UNL     1      36.208 -21.903 -17.469  0.00  0.00    +0.103 C 
ATOM      9  C   UNL     1      36.139 -20.487 -19.301  0.00  0.00    +0.060 C 
ATOM     10  C   UNL     1      34.057 -20.146 -20.532  0.00  0.00    +0.053 C 
ATOM     11  C   UNL     1      36.757 -19.608 -20.185  0.00  0.00    +0.071 C 
ATOM     12  C   UNL     1      34.701 -19.270 -21.403  0.00  0.00    -0.026 C 
ATOM     13  C   UNL     1      36.054 -19.001 -21.228  0.00  0.00    -0.024 C 
ENDBRANCH   3   5
BRANCH   2  14
ATOM     14  C   UNL     1      34.152 -24.105 -14.312  0.00  0.00    +0.099 C 
ATOM     15  C   UNL     1      34.667 -25.523 -14.546  0.00  0.00    +0.026 C 
BRANCH  14  17
ATOM     16  F   UNL     1      28.516 -23.835 -14.238  0.00  0.00    -0.204 F 
ATOM     17  C   UNL     1      32.640 -24.032 -14.292  0.00  0.00    -0.004 C 
ATOM     18  C   UNL     1      31.887 -25.202 -14.196  0.00  0.00    -0.000 C 
ATOM     19  C   UNL     1      32.000 -22.795 -14.369  0.00  0.00    -0.000 C 
ATOM     20  C   UNL     1      30.494 -25.136 -14.178  0.00  0.00    +0.029 C 
ATOM     21  C   UNL     1      30.607 -22.728 -14.351  0.00  0.00    +0.029 C 
ATOM     22  C   UNL     1      29.853 -23.899 -14.255  0.00  0.00    +0.140 C 
ENDBRANCH  14  17
ENDBRANCH   2  14
BRANCH   2  23
ATOM     23  C   UNL     1      35.798 -22.340 -14.835  0.00  0.00    +0.121 C 
BRANCH  23  24
ATOM     24  C   UNL     1      36.726 -23.067 -13.905  0.00  0.00    -0.002 C 
ATOM     25  C   UNL     1      37.759 -23.849 -14.423  0.00  0.00    +0.004 C 
ATOM     26  C   UNL     1      36.556 -22.960 -12.525  0.00  0.00    -0.003 C 
ATOM     27  C   UNL     1      38.622 -24.524 -13.559  0.00  0.00    +0.075 C 
ATOM     28  C   UNL     1      37.420 -23.635 -11.662  0.00  0.00    -0.000 C 
ATOM     29  C   UNL     1      38.452 -24.417 -12.179  0.00  0.00    +0.006 C 
BRANCH  27  31
ATOM     30  O   UNL     1      40.843 -24.941 -14.344  0.00  0.00    -0.245 OA
ATOM     31  C   UNL     1      39.699 -25.339 -14.098  0.00  0.00    +0.338 C 
BRANCH  31  32
ATOM     32  O   UNL     1      39.320 -26.628 -14.314  0.00  0.00    -0.477 OA
ATOM     33  H   UNL     1      38.605 -26.994 -13.831  0.00  0.00    +0.295 HD
ENDBRANCH  31  32
ENDBRANCH  27  31
ENDBRANCH  23  24
ENDBRANCH   2  23
TORSDOF 7
ENDMDL
MODEL 2
REMARK VINA RESULT:     -11.3      2.893      6.529
REMARK  Name = 60195662
REMARK  7 active torsions:
REMARK  status: ('A' for Active; 'I' for Inactive)
REMARK    1  A    between atoms: N_2  and  C_14
REMARK    2  A    between atoms: N_2  and  C_23
REMARK    3  A    between atoms: C_3  and  C_5
REMARK    4  A    between atoms: C_14  and  C_17
REMARK    5  A    between atoms: C_23  and  C_24
REMARK    6  A    between atoms: C_27  and  C_31
REMARK    7  A    between atoms: C_31  and  O_32
REMARK                            x       y       z     vdW  Elec       q    Type
REMARK                         _______ _______ _______ _____ _____    ______ ____
ROOT
ATOM      1  O   UNL     1      35.492 -24.410 -15.807  0.00  0.00    -0.270 OA
ATOM      2  N   UNL     1      33.741 -23.577 -14.501  0.00  0.00    -0.270 N 
ATOM      3  C   UNL     1      34.504 -23.673 -15.681  0.00  0.00    +0.251 C 
ENDROOT
BRANCH   3   5
ATOM      4  N   UNL     1      32.411 -21.967 -18.259  0.00  0.00    -0.248 NA
ATOM      5  C   UNL     1      34.137 -22.858 -16.826  0.00  0.00    +0.072 C 
ATOM      6  C   UNL     1      35.099 -22.200 -17.578  0.00  0.00    +0.003 C 
ATOM      7  C   UNL     1      34.720 -21.419 -18.678  0.00  0.00    -0.004 C 
ATOM      8  C   UNL     1      32.819 -22.711 -17.205  0.00  0.00    +0.103 C 
ATOM      9  C   UNL     1      33.347 -21.330 -18.987  0.00  0.00    +0.060 C 
ATOM     10  C   UNL     1      35.670 -20.740 -19.460  0.00  0.00    +0.053 C 
ATOM     11  C   UNL     1      32.971 -20.554 -20.081  0.00  0.00    +0.071 C 
ATOM     12  C   UNL     1      35.266 -19.971 -20.549  0.00  0.00    -0.026 C 
ATOM     13  C   UNL     1      33.914 -19.878 -20.859  0.00  0.00    -0.024 C 
ENDBRANCH   3   5
BRANCH   2  14
ATOM     14  C   UNL     1      34.058 -24.353 -13.304  0.00  0.00    +0.099 C 
ATOM     15  C   UNL     1      33.354 -23.755 -12.087  0.00  0.00    +0.026 C 
BRANCH  14  17
ATOM     16  F   UNL     1      39.632 -24.825 -12.566  0.00  0.00    -0.204 F 
ATOM     17  C   UNL     1      35.553 -24.480 -13.105  0.00  0.00    -0.004 C 
ATOM     18  C   UNL     1      36.297 -23.376 -12.689  0.00  0.00    -0.000 C 
ATOM     19  C   UNL     1      36.187 -25.701 -13.340  0.00  0.00    -0.000 C 
ATOM     20  C   UNL     1      37.675 -23.492 -12.507  0.00  0.00    +0.029 C 
ATOM     21  C   UNL     1      37.565 -25.817 -13.157  0.00  0.00    +0.029 C 
ATOM     22  C   UNL     1      38.309 -24.713 -12.741  0.00  0.00    +0.140 C 
ENDBRANCH  14  17
ENDBRANCH   2  14
BRANCH   2  23
ATOM     23  C   UNL     1      32.586 -22.697 -14.394  0.00  0.00    +0.121 C 
BRANCH  23  24
ATOM     24  C   UNL     1      31.297 -23.430 -14.634  0.00  0.00    -0.002 C 
ATOM     25  C   UNL     1      30.280 -22.828 -15.374  0.00  0.00    +0.004 C 
ATOM     26  C   UNL     1      31.118 -24.714 -14.118  0.00  0.00    -0.003 C 
ATOM     27  C   UNL     1      29.083 -23.509 -15.597  0.00  0.00    +0.075 C 
ATOM     28  C   UNL     1      29.921 -25.394 -14.341  0.00  0.00    -0.000 C 
ATOM     29  C   UNL     1      28.904 -24.792 -15.081  0.00  0.00    +0.006 C 
BRANCH  27  31
ATOM     30  O   UNL     1      27.663 -21.704 -16.267  0.00  0.00    -0.245 OA
ATOM     31  C   UNL     1      28.023 -22.881 -16.369  0.00  0.00    +0.338 C 
BRANCH  31  32
ATOM     32  O   UNL     1      27.440 -23.741 -17.249  0.00  0.00    -0.477 OA
ATOM     33  H   UNL     1      26.513 -23.715 -17.386  0.00  0.00    +0.295 HD
ENDBRANCH  31  32
ENDBRANCH  27  31
ENDBRANCH  23  24
ENDBRANCH   2  23
TORSDOF 7
ENDMDL
MODEL 3
REMARK VINA RESULT:     -11.2      1.687      2.074
REMARK  Name = 60195662
REMARK  7 active torsions:
REMARK  status: ('A' for Active; 'I' for Inactive)
REMARK    1  A    between atoms: N_2  and  C_14
REMARK    2  A    between atoms: N_2  and  C_23
REMARK    3  A    between atoms: C_3  and  C_5
REMARK    4  A    between atoms: C_14  and  C_17
REMARK    5  A    between atoms: C_23  and  C_24
REMARK    6  A    between atoms: C_27  and  C_31
REMARK    7  A    between atoms: C_31  and  O_32
REMARK                            x       y       z     vdW  Elec       q    Type
REMARK                         _______ _______ _______ _____ _____    ______ ____
ROOT
ATOM      1  O   UNL     1      32.960 -23.772 -17.324  0.00  0.00    -0.270 OA
ATOM      2  N   UNL     1      34.222 -23.138 -15.461  0.00  0.00    -0.270 N 
ATOM      3  C   UNL     1      33.861 -23.085 -16.821  0.00  0.00    +0.251 C 
ENDROOT
BRANCH   3   5
ATOM      4  N   UNL     1      36.667 -21.156 -18.350  0.00  0.00    -0.248 NA
ATOM      5  C   UNL     1      34.582 -22.190 -17.708  0.00  0.00    +0.072 C 
ATOM      6  C   UNL     1      33.935 -21.520 -18.736  0.00  0.00    +0.003 C 
ATOM      7  C   UNL     1      34.654 -20.662 -19.579  0.00  0.00    -0.004 C 
ATOM      8  C   UNL     1      35.937 -21.975 -17.558  0.00  0.00    +0.103 C 
ATOM      9  C   UNL     1      36.037 -20.507 -19.347  0.00  0.00    +0.060 C 
ATOM     10  C   UNL     1      34.029 -19.969 -20.630  0.00  0.00    +0.053 C 
ATOM     11  C   UNL     1      36.750 -19.653 -20.184  0.00  0.00    +0.071 C 
ATOM     12  C   UNL     1      34.767 -19.121 -21.453  0.00  0.00    -0.026 C 
ATOM     13  C   UNL     1      36.129 -18.964 -21.229  0.00  0.00    -0.024 C 
ENDBRANCH   3   5
BRANCH   2  14
ATOM     14  C   UNL     1      33.552 -24.025 -14.511  0.00  0.00    +0.099 C 
ATOM     15  C   UNL     1      34.032 -25.462 -14.706  0.00  0.00    +0.026 C 
BRANCH  14  17
ATOM     16  F   UNL     1      27.940 -23.551 -14.851  0.00  0.00    -0.204 F 
ATOM     17  C   UNL     1      32.047 -23.898 -14.602  0.00  0.00    -0.004 C 
ATOM     18  C   UNL     1      31.264 -25.029 -14.836  0.00  0.00    -0.000 C 
ATOM     19  C   UNL     1      31.442 -22.649 -14.452  0.00  0.00    -0.000 C 
ATOM     20  C   UNL     1      29.877 -24.912 -14.920  0.00  0.00    +0.029 C 
ATOM     21  C   UNL     1      30.054 -22.533 -14.536  0.00  0.00    +0.029 C 
ATOM     22  C   UNL     1      29.272 -23.664 -14.770  0.00  0.00    +0.140 C 
ENDBRANCH  14  17
ENDBRANCH   2  14
BRANCH   2  23
ATOM     23  C   UNL     1      35.287 -22.313 -14.910  0.00  0.00    +0.121 C 
BRANCH  23  24
ATOM     24  C   UNL     1      36.175 -23.089 -13.979  0.00  0.00    -0.002 C 
ATOM     25  C   UNL     1      35.847 -23.191 -12.627  0.00  0.00    +0.004 C 
ATOM     26  C   UNL     1      37.326 -23.708 -14.467  0.00  0.00    -0.003 C 
ATOM     27  C   UNL     1      36.671 -23.913 -11.763  0.00  0.00    +0.075 C 
ATOM     28  C   UNL     1      38.149 -24.430 -13.602  0.00  0.00    -0.000 C 
ATOM     29  C   UNL     1      37.821 -24.532 -12.250  0.00  0.00    +0.006 C 
BRANCH  27  31
ATOM     30  O   UNL     1      36.776 -23.304  -9.451  0.00  0.00    -0.245 OA
ATOM     31  C   UNL     1      36.329 -24.020 -10.353  0.00  0.00    +0.338 C 
BRANCH  31  32
ATOM     32  O   UNL     1      35.437 -25.018 -10.108  0.00  0.00    -0.477 OA
ATOM     33  H   UNL     1      34.649 -25.077 -10.613  0.00  0.00    +0.295 HD
ENDBRANCH  31  32
ENDBRANCH  27  31
ENDBRANCH  23  24
ENDBRANCH   2  23
TORSDOF 7
ENDMDL
MODEL 4
REMARK VINA RESULT:     -10.1      2.882      6.164
REMARK  Name = 60195662
REMARK  7 active torsions:
REMARK  status: ('A' for Active; 'I' for Inactive)
REMARK    1  A    between atoms: N_2  and  C_14
REMARK    2  A    between atoms: N_2  and  C_23
REMARK    3  A    between atoms: C_3  and  C_5
REMARK    4  A    between atoms: C_14  and  C_17
REMARK    5  A    between atoms: C_23  and  C_24
REMARK    6  A    between atoms: C_27  and  C_31
REMARK    7  A    between atoms: C_31  and  O_32
REMARK                            x       y       z     vdW  Elec       q    Type
REMARK                         _______ _______ _______ _____ _____    ______ ____
ROOT
ATOM      1  O   UNL     1      37.135 -22.382 -14.929  0.00  0.00    -0.270 OA
ATOM      2  N   UNL     1      35.243 -23.748 -15.067  0.00  0.00    -0.270 N 
ATOM      3  C   UNL     1      36.118 -22.749 -15.535  0.00  0.00    +0.251 C 
ENDROOT
BRANCH   3   5
ATOM      4  N   UNL     1      36.621 -20.902 -18.739  0.00  0.00    -0.248 NA
ATOM      5  C   UNL     1      35.824 -22.086 -16.793  0.00  0.00    +0.072 C 
ATOM      6  C   UNL     1      34.524 -21.986 -17.266  0.00  0.00    +0.003 C 
ATOM      7  C   UNL     1      34.266 -21.342 -18.484  0.00  0.00    -0.004 C 
ATOM      8  C   UNL     1      36.827 -21.532 -17.560  0.00  0.00    +0.103 C 
ATOM      9  C   UNL     1      35.358 -20.807 -19.197  0.00  0.00    +0.060 C 
ATOM     10  C   UNL     1      32.960 -21.224 -18.991  0.00  0.00    +0.053 C 
ATOM     11  C   UNL     1      35.101 -20.166 -20.406  0.00  0.00    +0.071 C 
ATOM     12  C   UNL     1      32.731 -20.578 -20.204  0.00  0.00    -0.026 C 
ATOM     13  C   UNL     1      33.804 -20.048 -20.911  0.00  0.00    -0.024 C 
ENDBRANCH   3   5
BRANCH   2  14
ATOM     14  C   UNL     1      35.465 -24.448 -13.803  0.00  0.00    +0.099 C 
ATOM     15  C   UNL     1      35.101 -23.542 -12.629  0.00  0.00    +0.026 C 
BRANCH  14  17
ATOM     16  F   UNL     1      40.729 -26.447 -13.443  0.00  0.00    -0.204 F 
ATOM     17  C   UNL     1      36.877 -24.984 -13.707  0.00  0.00    -0.004 C 
ATOM     18  C   UNL     1      37.301 -25.992 -14.573  0.00  0.00    -0.000 C 
ATOM     19  C   UNL     1      37.755 -24.470 -12.751  0.00  0.00    -0.000 C 
ATOM     20  C   UNL     1      38.603 -26.486 -14.484  0.00  0.00    +0.029 C 
ATOM     21  C   UNL     1      39.056 -24.964 -12.663  0.00  0.00    +0.029 C 
ATOM     22  C   UNL     1      39.480 -25.972 -13.529  0.00  0.00    +0.140 C 
ENDBRANCH  14  17
ENDBRANCH   2  14
BRANCH   2  23
ATOM     23  C   UNL     1      34.058 -24.150 -15.810  0.00  0.00    +0.121 C 
BRANCH  23  24
ATOM     24  C   UNL     1      32.795 -23.650 -15.169  0.00  0.00    -0.002 C 
ATOM     25  C   UNL     1      31.613 -23.597 -15.907  0.00  0.00    +0.004 C 
ATOM     26  C   UNL     1      32.804 -23.241 -13.835  0.00  0.00    -0.003 C 
ATOM     27  C   UNL     1      30.439 -23.133 -15.310  0.00  0.00    +0.075 C 
ATOM     28  C   UNL     1      31.631 -22.778 -13.240  0.00  0.00    -0.000 C 
ATOM     29  C   UNL     1      30.448 -22.724 -13.977  0.00  0.00    +0.006 C 
BRANCH  27  31
ATOM     30  O   UNL     1      28.739 -22.066 -16.612  0.00  0.00    -0.245 OA
ATOM     31  C   UNL     1      29.206 -23.078 -16.079  0.00  0.00    +0.338 C 
BRANCH  31  32
ATOM     32  O   UNL     1      28.589 -24.289 -16.162  0.00  0.00    -0.477 OA
ATOM     33  H   UNL     1      28.094 -24.614 -15.435  0.00  0.00    +0.295 HD
ENDBRANCH  31  32
ENDBRANCH  27  31
ENDBRANCH  23  24
ENDBRANCH   2  23
TORSDOF 7
ENDMDL
MODEL 5
REMARK VINA RESULT:      -9.7      2.394      6.048
REMARK  Name = 60195662
REMARK  7 active torsions:
REMARK  status: ('A' for Active; 'I' for Inactive)
REMARK    1  A    between atoms: N_2  and  C_14
REMARK    2  A    between atoms: N_2  and  C_23
REMARK    3  A    between atoms: C_3  and  C_5
REMARK    4  A    between atoms: C_14  and  C_17
REMARK    5  A    between atoms: C_23  and  C_24
REMARK    6  A    between atoms: C_27  and  C_31
REMARK    7  A    between atoms: C_31  and  O_32
REMARK                            x       y       z     vdW  Elec       q    Type
REMARK                         _______ _______ _______ _____ _____    ______ ____
ROOT
ATOM      1  O   UNL     1      34.121 -23.505 -18.187  0.00  0.00    -0.270 OA
ATOM      2  N   UNL     1      35.322 -22.480 -16.463  0.00  0.00    -0.270 N 
ATOM      3  C   UNL     1      34.218 -23.172 -16.997  0.00  0.00    +0.251 C 
ENDROOT
BRANCH   3   5
ATOM      4  N   UNL     1      32.325 -24.569 -14.099  0.00  0.00    -0.248 NA
ATOM      5  C   UNL     1      33.110 -23.514 -16.123  0.00  0.00    +0.072 C 
ATOM      6  C   UNL     1      31.809 -23.144 -16.433  0.00  0.00    +0.003 C 
ATOM      7  C   UNL     1      30.757 -23.486 -15.573  0.00  0.00    -0.004 C 
ATOM      8  C   UNL     1      33.313 -24.220 -14.955  0.00  0.00    +0.103 C 
ATOM      9  C   UNL     1      31.064 -24.209 -14.401  0.00  0.00    +0.060 C 
ATOM     10  C   UNL     1      29.428 -23.126 -15.857  0.00  0.00    +0.053 C 
ATOM     11  C   UNL     1      30.018 -24.548 -13.548  0.00  0.00    +0.071 C 
ATOM     12  C   UNL     1      28.401 -23.479 -14.986  0.00  0.00    -0.026 C 
ATOM     13  C   UNL     1      28.697 -24.191 -13.829  0.00  0.00    -0.024 C 
ENDBRANCH   3   5
BRANCH   2  14
ATOM     14  C   UNL     1      36.467 -22.088 -17.283  0.00  0.00    +0.099 C 
ATOM     15  C   UNL     1      37.520 -21.397 -16.420  0.00  0.00    +0.026 C 
BRANCH  14  17
ATOM     16  F   UNL     1      34.874 -18.944 -21.689  0.00  0.00    -0.204 F 
ATOM     17  C   UNL     1      36.040 -21.244 -18.464  0.00  0.00    -0.004 C 
ATOM     18  C   UNL     1      34.703 -21.231 -18.865  0.00  0.00    -0.000 C 
ATOM     19  C   UNL     1      36.982 -20.480 -19.153  0.00  0.00    -0.000 C 
ATOM     20  C   UNL     1      34.309 -20.454 -19.954  0.00  0.00    +0.029 C 
ATOM     21  C   UNL     1      36.588 -19.703 -20.242  0.00  0.00    +0.029 C 
ATOM     22  C   UNL     1      35.252 -19.690 -20.643  0.00  0.00    +0.140 C 
ENDBRANCH  14  17
ENDBRANCH   2  14
BRANCH   2  23
ATOM     23  C   UNL     1      35.396 -22.107 -15.058  0.00  0.00    +0.121 C 
BRANCH  23  24
ATOM     24  C   UNL     1      36.182 -23.102 -14.252  0.00  0.00    -0.002 C 
ATOM     25  C   UNL     1      36.478 -24.355 -14.790  0.00  0.00    +0.004 C 
ATOM     26  C   UNL     1      36.616 -22.774 -12.969  0.00  0.00    -0.003 C 
ATOM     27  C   UNL     1      37.208 -25.279 -14.043  0.00  0.00    +0.075 C 
ATOM     28  C   UNL     1      37.346 -23.698 -12.222  0.00  0.00    -0.000 C 
ATOM     29  C   UNL     1      37.642 -24.951 -12.759  0.00  0.00    +0.006 C 
BRANCH  27  31
ATOM     30  O   UNL     1      38.457 -27.309 -14.256  0.00  0.00    -0.245 OA
ATOM     31  C   UNL     1      37.518 -26.585 -14.603  0.00  0.00    +0.338 C 
BRANCH  31  32
ATOM     32  O   UNL     1      36.646 -26.952 -15.582  0.00  0.00    -0.477 OA
ATOM     33  H   UNL     1      36.872 -26.823 -16.483  0.00  0.00    +0.295 HD
ENDBRANCH  31  32
ENDBRANCH  27  31
ENDBRANCH  23  24
ENDBRANCH   2  23
TORSDOF 7
ENDMDL
MODEL 6
REMARK VINA RESULT:      -9.6      2.729      6.338
REMARK  Name = 60195662
REMARK  7 active torsions:
REMARK  status: ('A' for Active; 'I' for Inactive)
REMARK    1  A    between atoms: N_2  and  C_14
REMARK    2  A    between atoms: N_2  and  C_23
REMARK    3  A    between atoms: C_3  and  C_5
REMARK    4  A    between atoms: C_14  and  C_17
REMARK    5  A    between atoms: C_23  and  C_24
REMARK    6  A    between atoms: C_27  and  C_31
REMARK    7  A    between atoms: C_31  and  O_32
REMARK                            x       y       z     vdW  Elec       q    Type
REMARK                         _______ _______ _______ _____ _____    ______ ____
ROOT
ATOM      1  O   UNL     1      34.146 -23.498 -18.172  0.00  0.00    -0.270 OA
ATOM      2  N   UNL     1      35.344 -22.466 -16.449  0.00  0.00    -0.270 N 
ATOM      3  C   UNL     1      34.249 -23.176 -16.979  0.00  0.00    +0.251 C 
ENDROOT
BRANCH   3   5
ATOM      4  N   UNL     1      32.412 -24.680 -14.098  0.00  0.00    -0.248 NA
ATOM      5  C   UNL     1      33.157 -23.550 -16.097  0.00  0.00    +0.072 C 
ATOM      6  C   UNL     1      31.851 -23.170 -16.368  0.00  0.00    +0.003 C 
ATOM      7  C   UNL     1      30.815 -23.543 -15.500  0.00  0.00    -0.004 C 
ATOM      8  C   UNL     1      33.383 -24.299 -14.960  0.00  0.00    +0.103 C 
ATOM      9  C   UNL     1      31.145 -24.309 -14.363  0.00  0.00    +0.060 C 
ATOM     10  C   UNL     1      29.482 -23.173 -15.746  0.00  0.00    +0.053 C 
ATOM     11  C   UNL     1      30.115 -24.680 -13.503  0.00  0.00    +0.071 C 
ATOM     12  C   UNL     1      28.471 -23.558 -14.868  0.00  0.00    -0.026 C 
ATOM     13  C   UNL     1      28.789 -24.313 -13.745  0.00  0.00    -0.024 C 
ENDBRANCH   3   5
BRANCH   2  14
ATOM     14  C   UNL     1      36.471 -22.042 -17.277  0.00  0.00    +0.099 C 
ATOM     15  C   UNL     1      37.502 -21.306 -16.424  0.00  0.00    +0.026 C 
BRANCH  14  17
ATOM     16  F   UNL     1      34.752 -18.994 -21.703  0.00  0.00    -0.204 F 
ATOM     17  C   UNL     1      36.010 -21.225 -18.465  0.00  0.00    -0.004 C 
ATOM     18  C   UNL     1      36.935 -20.493 -19.209  0.00  0.00    -0.000 C 
ATOM     19  C   UNL     1      34.659 -21.203 -18.815  0.00  0.00    -0.000 C 
ATOM     20  C   UNL     1      36.510 -19.739 -20.303  0.00  0.00    +0.029 C 
ATOM     21  C   UNL     1      34.235 -20.450 -19.909  0.00  0.00    +0.029 C 
ATOM     22  C   UNL     1      35.160 -19.717 -20.653  0.00  0.00    +0.140 C 
ENDBRANCH  14  17
ENDBRANCH   2  14
BRANCH   2  23
ATOM     23  C   UNL     1      35.425 -22.107 -15.041  0.00  0.00    +0.121 C 
BRANCH  23  24
ATOM     24  C   UNL     1      36.065 -23.190 -14.220  0.00  0.00    -0.002 C 
ATOM     25  C   UNL     1      35.803 -23.274 -12.853  0.00  0.00    +0.004 C 
ATOM     26  C   UNL     1      36.918 -24.112 -14.826  0.00  0.00    -0.003 C 
ATOM     27  C   UNL     1      36.397 -24.281 -12.090  0.00  0.00    +0.075 C 
ATOM     28  C   UNL     1      37.510 -25.119 -14.063  0.00  0.00    -0.000 C 
ATOM     29  C   UNL     1      37.250 -25.203 -12.696  0.00  0.00    +0.006 C 
BRANCH  27  31
ATOM     30  O   UNL     1      35.271 -25.095 -10.142  0.00  0.00    -0.245 OA
ATOM     31  C   UNL     1      36.124 -24.369 -10.665  0.00  0.00    +0.338 C 
BRANCH  31  32
ATOM     32  O   UNL     1      36.924 -23.550  -9.929  0.00  0.00    -0.477 OA
ATOM     33  H   UNL     1      36.731 -22.634  -9.873  0.00  0.00    +0.295 HD
ENDBRANCH  31  32
ENDBRANCH  27  31
ENDBRANCH  23  24
ENDBRANCH   2  23
TORSDOF 7
ENDMDL
MODEL 7
REMARK VINA RESULT:      -9.6      2.880      5.948
REMARK  Name = 60195662
REMARK  7 active torsions:
REMARK  status: ('A' for Active; 'I' for Inactive)
REMARK    1  A    between atoms: N_2  and  C_14
REMARK    2  A    between atoms: N_2  and  C_23
REMARK    3  A    between atoms: C_3  and  C_5
REMARK    4  A    between atoms: C_14  and  C_17
REMARK    5  A    between atoms: C_23  and  C_24
REMARK    6  A    between atoms: C_27  and  C_31
REMARK    7  A    between atoms: C_31  and  O_32
REMARK                            x       y       z     vdW  Elec       q    Type
REMARK                         _______ _______ _______ _____ _____    ______ ____
ROOT
ATOM      1  O   UNL     1      36.504 -22.302 -14.955  0.00  0.00    -0.270 OA
ATOM      2  N   UNL     1      34.708 -23.706 -15.473  0.00  0.00    -0.270 N 
ATOM      3  C   UNL     1      35.627 -22.675 -15.748  0.00  0.00    +0.251 C 
ENDROOT
BRANCH   3   5
ATOM      4  N   UNL     1      36.692 -20.888 -18.847  0.00  0.00    -0.248 NA
ATOM      5  C   UNL     1      35.553 -21.985 -17.023  0.00  0.00    +0.072 C 
ATOM      6  C   UNL     1      34.336 -21.752 -17.645  0.00  0.00    +0.003 C 
ATOM      7  C   UNL     1      34.291 -21.084 -18.877  0.00  0.00    -0.004 C 
ATOM      8  C   UNL     1      36.692 -21.536 -17.659  0.00  0.00    +0.103 C 
ATOM      9  C   UNL     1      35.509 -20.664 -19.449  0.00  0.00    +0.060 C 
ATOM     10  C   UNL     1      33.073 -20.834 -19.533  0.00  0.00    +0.053 C 
ATOM     11  C   UNL     1      35.463 -19.999 -20.672  0.00  0.00    +0.071 C 
ATOM     12  C   UNL     1      33.057 -20.167 -20.756  0.00  0.00    -0.026 C 
ATOM     13  C   UNL     1      34.254 -19.750 -21.326  0.00  0.00    -0.024 C 
ENDBRANCH   3   5
BRANCH   2  14
ATOM     14  C   UNL     1      34.711 -24.435 -14.206  0.00  0.00    +0.099 C 
ATOM     15  C   UNL     1      34.088 -23.579 -13.105  0.00  0.00    +0.026 C 
BRANCH  14  17
ATOM     16  F   UNL     1      39.889 -26.238 -12.875  0.00  0.00    -0.204 F 
ATOM     17  C   UNL     1      36.099 -24.919 -13.849  0.00  0.00    -0.004 C 
ATOM     18  C   UNL     1      36.732 -24.440 -12.701  0.00  0.00    -0.000 C 
ATOM     19  C   UNL     1      36.748 -25.844 -14.668  0.00  0.00    -0.000 C 
ATOM     20  C   UNL     1      38.012 -24.885 -12.372  0.00  0.00    +0.029 C 
ATOM     21  C   UNL     1      38.028 -26.290 -14.338  0.00  0.00    +0.029 C 
ATOM     22  C   UNL     1      38.660 -25.810 -13.191  0.00  0.00    +0.140 C 
ENDBRANCH  14  17
ENDBRANCH   2  14
BRANCH   2  23
ATOM     23  C   UNL     1      33.692 -24.113 -16.432  0.00  0.00    +0.121 C 
BRANCH  23  24
ATOM     24  C   UNL     1      32.307 -23.766 -15.967  0.00  0.00    -0.002 C 
ATOM     25  C   UNL     1      31.687 -24.541 -14.987  0.00  0.00    +0.004 C 
ATOM     26  C   UNL     1      31.642 -22.668 -16.513  0.00  0.00    -0.003 C 
ATOM     27  C   UNL     1      30.400 -24.218 -14.553  0.00  0.00    +0.075 C 
ATOM     28  C   UNL     1      30.356 -22.346 -16.079  0.00  0.00    -0.000 C 
ATOM     29  C   UNL     1      29.735 -23.121 -15.099  0.00  0.00    +0.006 C 
BRANCH  27  31
ATOM     30  O   UNL     1      28.704 -25.661 -13.679  0.00  0.00    -0.245 OA
ATOM     31  C   UNL     1      29.753 -25.025 -13.532  0.00  0.00    +0.338 C 
BRANCH  31  32
ATOM     32  O   UNL     1      30.435 -25.018 -12.353  0.00  0.00    -0.477 OA
ATOM     33  H   UNL     1      30.008 -24.740 -11.567  0.00  0.00    +0.295 HD
ENDBRANCH  31  32
ENDBRANCH  27  31
ENDBRANCH  23  24
ENDBRANCH   2  23
TORSDOF 7
ENDMDL
MODEL 8
REMARK VINA RESULT:      -9.3      2.502      5.887
REMARK  Name = 60195662
REMARK  7 active torsions:
REMARK  status: ('A' for Active; 'I' for Inactive)
REMARK    1  A    between atoms: N_2  and  C_14
REMARK    2  A    between atoms: N_2  and  C_23
REMARK    3  A    between atoms: C_3  and  C_5
REMARK    4  A    between atoms: C_14  and  C_17
REMARK    5  A    between atoms: C_23  and  C_24
REMARK    6  A    between atoms: C_27  and  C_31
REMARK    7  A    between atoms: C_31  and  O_32
REMARK                            x       y       z     vdW  Elec       q    Type
REMARK                         _______ _______ _______ _____ _____    ______ ____
ROOT
ATOM      1  O   UNL     1      34.085 -23.384 -11.993  0.00  0.00    -0.270 OA
ATOM      2  N   UNL     1      33.112 -23.624 -14.105  0.00  0.00    -0.270 N 
ATOM      3  C   UNL     1      34.130 -23.822 -13.152  0.00  0.00    +0.251 C 
ENDROOT
BRANCH   3   5
ATOM      4  N   UNL     1      36.297 -26.428 -14.715  0.00  0.00    -0.248 NA
ATOM      5  C   UNL     1      35.318 -24.566 -13.532  0.00  0.00    +0.072 C 
ATOM      6  C   UNL     1      36.579 -24.173 -13.109  0.00  0.00    +0.003 C 
ATOM      7  C   UNL     1      37.710 -24.909 -13.490  0.00  0.00    -0.004 C 
ATOM      8  C   UNL     1      35.231 -25.691 -14.326  0.00  0.00    +0.103 C 
ATOM      9  C   UNL     1      37.520 -26.044 -14.304  0.00  0.00    +0.060 C 
ATOM     10  C   UNL     1      39.001 -24.537 -13.078  0.00  0.00    +0.053 C 
ATOM     11  C   UNL     1      38.644 -26.775 -14.680  0.00  0.00    +0.071 C 
ATOM     12  C   UNL     1      40.108 -25.286 -13.470  0.00  0.00    -0.026 C 
ATOM     13  C   UNL     1      39.929 -26.406 -14.273  0.00  0.00    -0.024 C 
ENDBRANCH   3   5
BRANCH   2  14
ATOM     14  C   UNL     1      31.896 -22.873 -13.802  0.00  0.00    +0.099 C 
ATOM     15  C   UNL     1      31.615 -22.912 -12.301  0.00  0.00    +0.026 C 
BRANCH  14  17
ATOM     16  F   UNL     1      27.522 -24.690 -16.867  0.00  0.00    -0.204 F 
ATOM     17  C   UNL     1      30.723 -23.360 -14.624  0.00  0.00    -0.004 C 
ATOM     18  C   UNL     1      30.204 -22.560 -15.642  0.00  0.00    -0.000 C 
ATOM     19  C   UNL     1      30.160 -24.610 -14.364  0.00  0.00    -0.000 C 
ATOM     20  C   UNL     1      29.123 -23.009 -16.400  0.00  0.00    +0.029 C 
ATOM     21  C   UNL     1      29.079 -25.059 -15.122  0.00  0.00    +0.029 C 
ATOM     22  C   UNL     1      28.560 -24.259 -16.140  0.00  0.00    +0.140 C 
ENDBRANCH  14  17
ENDBRANCH   2  14
BRANCH   2  23
ATOM     23  C   UNL     1      33.205 -24.155 -15.458  0.00  0.00    +0.121 C 
BRANCH  23  24
ATOM     24  C   UNL     1      33.987 -23.249 -16.365  0.00  0.00    -0.002 C 
ATOM     25  C   UNL     1      35.244 -22.788 -15.974  0.00  0.00    +0.004 C 
ATOM     26  C   UNL     1      33.458 -22.871 -17.599  0.00  0.00    -0.003 C 
ATOM     27  C   UNL     1      35.972 -21.948 -16.817  0.00  0.00    +0.075 C 
ATOM     28  C   UNL     1      34.186 -22.031 -18.441  0.00  0.00    -0.000 C 
ATOM     29  C   UNL     1      35.443 -21.569 -18.051  0.00  0.00    +0.006 C 
BRANCH  27  31
ATOM     30  O   UNL     1      38.108 -22.110 -15.752  0.00  0.00    -0.245 OA
ATOM     31  C   UNL     1      37.283 -21.468 -16.410  0.00  0.00    +0.338 C 
BRANCH  31  32
ATOM     32  O   UNL     1      37.529 -20.199 -16.837  0.00  0.00    -0.477 OA
ATOM     33  H   UNL     1      37.960 -19.589 -16.270  0.00  0.00    +0.295 HD
ENDBRANCH  31  32
ENDBRANCH  27  31
ENDBRANCH  23  24
ENDBRANCH   2  23
TORSDOF 7
ENDMDL
MODEL 9
REMARK VINA RESULT:      -9.2      2.600      6.368
REMARK  Name = 60195662
REMARK  7 active torsions:
REMARK  status: ('A' for Active; 'I' for Inactive)
REMARK    1  A    between atoms: N_2  and  C_14
REMARK    2  A    between atoms: N_2  and  C_23
REMARK    3  A    between atoms: C_3  and  C_5
REMARK    4  A    between atoms: C_14  and  C_17
REMARK    5  A    between atoms: C_23  and  C_24
REMARK    6  A    between atoms: C_27  and  C_31
REMARK    7  A    between atoms: C_31  and  O_32
REMARK                            x       y       z     vdW  Elec       q    Type
REMARK                         _______ _______ _______ _____ _____    ______ ____
ROOT
ATOM      1  O   UNL     1      34.198 -23.373 -12.061  0.00  0.00    -0.270 OA
ATOM      2  N   UNL     1      33.291 -23.565 -14.207  0.00  0.00    -0.270 N 
ATOM      3  C   UNL     1      34.272 -23.797 -13.223  0.00  0.00    +0.251 C 
ENDROOT
BRANCH   3   5
ATOM      4  N   UNL     1      36.425 -26.461 -14.707  0.00  0.00    -0.248 NA
ATOM      5  C   UNL     1      35.454 -24.564 -13.572  0.00  0.00    +0.072 C 
ATOM      6  C   UNL     1      36.715 -24.180 -13.140  0.00  0.00    +0.003 C 
ATOM      7  C   UNL     1      37.841 -24.937 -13.491  0.00  0.00    -0.004 C 
ATOM      8  C   UNL     1      35.364 -25.703 -14.346  0.00  0.00    +0.103 C 
ATOM      9  C   UNL     1      37.648 -26.085 -14.286  0.00  0.00    +0.060 C 
ATOM     10  C   UNL     1      39.132 -24.574 -13.069  0.00  0.00    +0.053 C 
ATOM     11  C   UNL     1      38.767 -26.837 -14.633  0.00  0.00    +0.071 C 
ATOM     12  C   UNL     1      40.234 -25.344 -13.432  0.00  0.00    -0.026 C 
ATOM     13  C   UNL     1      40.050 -26.477 -14.215  0.00  0.00    -0.024 C 
ENDBRANCH   3   5
BRANCH   2  14
ATOM     14  C   UNL     1      32.083 -22.789 -13.935  0.00  0.00    +0.099 C 
ATOM     15  C   UNL     1      31.834 -22.716 -12.430  0.00  0.00    +0.026 C 
BRANCH  14  17
ATOM     16  F   UNL     1      27.646 -24.819 -16.769  0.00  0.00    -0.204 F 
ATOM     17  C   UNL     1      30.892 -23.333 -14.695  0.00  0.00    -0.004 C 
ATOM     18  C   UNL     1      30.398 -24.604 -14.399  0.00  0.00    -0.000 C 
ATOM     19  C   UNL     1      30.290 -22.565 -15.691  0.00  0.00    -0.000 C 
ATOM     20  C   UNL     1      29.301 -25.106 -15.100  0.00  0.00    +0.029 C 
ATOM     21  C   UNL     1      29.193 -23.067 -16.392  0.00  0.00    +0.029 C 
ATOM     22  C   UNL     1      28.699 -24.337 -16.097  0.00  0.00    +0.140 C 
ENDBRANCH  14  17
ENDBRANCH   2  14
BRANCH   2  23
ATOM     23  C   UNL     1      33.417 -24.081 -15.562  0.00  0.00    +0.121 C 
BRANCH  23  24
ATOM     24  C   UNL     1      34.168 -23.137 -16.457  0.00  0.00    -0.002 C 
ATOM     25  C   UNL     1      33.532 -22.570 -17.561  0.00  0.00    +0.004 C 
ATOM     26  C   UNL     1      35.499 -22.825 -16.182  0.00  0.00    -0.003 C 
ATOM     27  C   UNL     1      34.228 -21.691 -18.392  0.00  0.00    +0.075 C 
ATOM     28  C   UNL     1      36.195 -21.946 -17.013  0.00  0.00    -0.000 C 
ATOM     29  C   UNL     1      35.560 -21.380 -18.118  0.00  0.00    +0.006 C 
BRANCH  27  31
ATOM     30  O   UNL     1      32.427 -21.376 -19.934  0.00  0.00    -0.245 OA
ATOM     31  C   UNL     1      33.566 -21.100 -19.543  0.00  0.00    +0.338 C 
BRANCH  31  32
ATOM     32  O   UNL     1      34.343 -20.178 -20.175  0.00  0.00    -0.477 OA
ATOM     33  H   UNL     1      34.389 -19.300 -19.849  0.00  0.00    +0.295 HD
ENDBRANCH  31  32
ENDBRANCH  27  31
ENDBRANCH  23  24
ENDBRANCH   2  23
TORSDOF 7
ENDMDL
