MODEL 1
REMARK VINA RESULT:     -11.6      0.000      0.000
REMARK  Name = 42627755
REMARK  2 active torsions:
REMARK  status: ('A' for Active; 'I' for Inactive)
REMARK    1  A    between atoms: N_5  and  C_20
REMARK    2  A    between atoms: C_7  and  C_28
REMARK                            x       y       z     vdW  Elec       q    Type
REMARK                         _______ _______ _______ _____ _____    ______ ____
ROOT
ATOM      1  N   UNL     1      35.449 -21.630 -18.732  0.00  0.00    -0.239 N 
ATOM      2  N   UNL     1      34.765 -22.239 -17.749  0.00  0.00    -0.166 NA
ATOM      3  N   UNL     1      32.364 -22.393 -17.331  0.00  0.00    -0.271 N 
ATOM      4  N   UNL     1      33.326 -23.620 -15.531  0.00  0.00    -0.322 NA
ATOM      5  N   UNL     1      34.229 -24.834 -13.744  0.00  0.00    -0.247 N 
ATOM      6  N   UNL     1      31.900 -24.633 -13.875  0.00  0.00    -0.170 NA
ATOM      7  C   UNL     1      34.657 -20.993 -19.643  0.00  0.00    +0.045 C 
ATOM      8  C   UNL     1      33.365 -21.202 -19.226  0.00  0.00    +0.048 C 
ATOM      9  C   UNL     1      33.492 -21.973 -18.056  0.00  0.00    +0.152 C 
ATOM     10  C   UNL     1      32.219 -23.159 -16.149  0.00  0.00    +0.199 C 
ATOM     11  C   UNL     1      30.937 -23.392 -15.697  0.00  0.00    +0.070 C 
ATOM     12  C   UNL     1      33.097 -24.339 -14.415  0.00  0.00    +0.150 C 
ATOM     13  C   UNL     1      30.836 -24.142 -14.543  0.00  0.00    +0.116 C 
ATOM     14  H   UNL     1      36.432 -21.642 -18.791  0.00  0.00    +0.174 HD
ATOM     15  H   UNL     1      31.510 -22.097 -17.720  0.00  0.00    +0.156 HD
ATOM     16  H   UNL     1      34.014 -25.354 -12.936  0.00  0.00    +0.165 HD
ENDROOT
BRANCH   5  20
ATOM     17  N   UNL     1      38.876 -26.511 -13.874  0.00  0.00    -0.315 N 
ATOM     18  N   UNL     1      39.705 -24.622 -14.702  0.00  0.00    -0.315 N 
ATOM     19  C   UNL     1      37.803 -25.670 -14.011  0.00  0.00    +0.060 C 
ATOM     20  C   UNL     1      35.615 -24.733 -14.005  0.00  0.00    +0.059 C 
ATOM     21  C   UNL     1      38.346 -24.498 -14.530  0.00  0.00    +0.059 C 
ATOM     22  C   UNL     1      36.444 -25.827 -13.735  0.00  0.00    +0.031 C 
ATOM     23  C   UNL     1      36.130 -23.545 -14.525  0.00  0.00    +0.017 C 
ATOM     24  C   UNL     1      37.498 -23.408 -14.795  0.00  0.00    +0.017 C 
ATOM     25  C   UNL     1      39.989 -25.840 -14.299  0.00  0.00    +0.182 C 
ATOM     26  H   UNL     1      38.850 -27.433 -13.531  0.00  0.00    +0.148 HD
ATOM     27  H   UNL     1      40.329 -23.946 -15.052  0.00  0.00    +0.148 HD
ENDBRANCH   5  20
BRANCH   7  28
ATOM     28  C   UNL     1      35.121 -20.214 -20.866  0.00  0.00    +0.037 C 
ATOM     29  C   UNL     1      36.255 -19.244 -20.716  0.00  0.00    +0.006 C 
ATOM     30  C   UNL     1      34.857 -18.738 -20.922  0.00  0.00    +0.006 C 
ENDBRANCH   7  28
TORSDOF 2
ENDMDL
MODEL 2
REMARK VINA RESULT:     -11.4      1.953      7.025
REMARK  Name = 42627755
REMARK  2 active torsions:
REMARK  status: ('A' for Active; 'I' for Inactive)
REMARK    1  A    between atoms: N_5  and  C_20
REMARK    2  A    between atoms: C_7  and  C_28
REMARK                            x       y       z     vdW  Elec       q    Type
REMARK                         _______ _______ _______ _____ _____    ______ ____
ROOT
ATOM      1  N   UNL     1      30.903 -22.766 -16.631  0.00  0.00    -0.239 N 
ATOM      2  N   UNL     1      32.229 -22.782 -16.413  0.00  0.00    -0.166 NA
ATOM      3  N   UNL     1      33.538 -23.746 -14.592  0.00  0.00    -0.271 N 
ATOM      4  N   UNL     1      35.184 -22.769 -16.009  0.00  0.00    -0.322 NA
ATOM      5  N   UNL     1      36.836 -21.824 -17.372  0.00  0.00    -0.247 N 
ATOM      6  N   UNL     1      37.515 -22.920 -15.418  0.00  0.00    -0.170 NA
ATOM      7  C   UNL     1      30.178 -23.398 -15.664  0.00  0.00    +0.045 C 
ATOM      8  C   UNL     1      31.094 -23.859 -14.750  0.00  0.00    +0.048 C 
ATOM      9  C   UNL     1      32.339 -23.450 -15.261  0.00  0.00    +0.152 C 
ATOM     10  C   UNL     1      34.893 -23.457 -14.885  0.00  0.00    +0.199 C 
ATOM     11  C   UNL     1      35.845 -23.903 -13.992  0.00  0.00    +0.070 C 
ATOM     12  C   UNL     1      36.496 -22.539 -16.210  0.00  0.00    +0.150 C 
ATOM     13  C   UNL     1      37.153 -23.603 -14.312  0.00  0.00    +0.116 C 
ATOM     14  H   UNL     1      30.492 -22.339 -17.417  0.00  0.00    +0.174 HD
ATOM     15  H   UNL     1      33.411 -24.250 -13.756  0.00  0.00    +0.156 HD
ATOM     16  H   UNL     1      37.804 -21.680 -17.479  0.00  0.00    +0.165 HD
ENDROOT
BRANCH   5  20
ATOM     17  N   UNL     1      36.059 -18.932 -21.304  0.00  0.00    -0.315 N 
ATOM     18  N   UNL     1      33.937 -19.550 -21.541  0.00  0.00    -0.315 N 
ATOM     19  C   UNL     1      35.827 -19.835 -20.300  0.00  0.00    +0.060 C 
ATOM     20  C   UNL     1      36.059 -21.273 -18.418  0.00  0.00    +0.059 C 
ATOM     21  C   UNL     1      34.496 -20.206 -20.469  0.00  0.00    +0.059 C 
ATOM     22  C   UNL     1      36.641 -20.345 -19.288  0.00  0.00    +0.031 C 
ATOM     23  C   UNL     1      34.727 -21.665 -18.562  0.00  0.00    +0.017 C 
ATOM     24  C   UNL     1      33.928 -21.140 -19.585  0.00  0.00    +0.017 C 
ATOM     25  C   UNL     1      34.901 -18.794 -22.018  0.00  0.00    +0.182 C 
ATOM     26  H   UNL     1      36.908 -18.465 -21.480  0.00  0.00    +0.148 HD
ATOM     27  H   UNL     1      33.016 -19.629 -21.878  0.00  0.00    +0.148 HD
ENDBRANCH   5  20
BRANCH   7  28
ATOM     28  C   UNL     1      28.664 -23.554 -15.616  0.00  0.00    +0.037 C 
ATOM     29  C   UNL     1      27.834 -22.862 -16.657  0.00  0.00    +0.006 C 
ATOM     30  C   UNL     1      27.829 -22.364 -15.241  0.00  0.00    +0.006 C 
ENDBRANCH   7  28
TORSDOF 2
ENDMDL
MODEL 3
REMARK VINA RESULT:     -11.4      1.753      5.408
REMARK  Name = 42627755
REMARK  2 active torsions:
REMARK  status: ('A' for Active; 'I' for Inactive)
REMARK    1  A    between atoms: N_5  and  C_20
REMARK    2  A    between atoms: C_7  and  C_28
REMARK                            x       y       z     vdW  Elec       q    Type
REMARK                         _______ _______ _______ _____ _____    ______ ____
ROOT
ATOM      1  N   UNL     1      34.467 -21.599 -18.495  0.00  0.00    -0.239 N 
ATOM      2  N   UNL     1      34.848 -22.191 -17.350  0.00  0.00    -0.166 NA
ATOM      3  N   UNL     1      37.062 -22.504 -16.372  0.00  0.00    -0.271 N 
ATOM      4  N   UNL     1      35.603 -23.523 -14.791  0.00  0.00    -0.322 NA
ATOM      5  N   UNL     1      34.205 -24.537 -13.209  0.00  0.00    -0.247 N 
ATOM      6  N   UNL     1      36.510 -24.529 -12.797  0.00  0.00    -0.170 NA
ATOM      7  C   UNL     1      35.503 -21.093 -19.224  0.00  0.00    +0.045 C 
ATOM      8  C   UNL     1      36.639 -21.373 -18.505  0.00  0.00    +0.048 C 
ATOM      9  C   UNL     1      36.176 -22.051 -17.363  0.00  0.00    +0.152 C 
ATOM     10  C   UNL     1      36.861 -23.196 -15.153  0.00  0.00    +0.199 C 
ATOM     11  C   UNL     1      37.977 -23.497 -14.401  0.00  0.00    +0.070 C 
ATOM     12  C   UNL     1      35.502 -24.179 -13.618  0.00  0.00    +0.150 C 
ATOM     13  C   UNL     1      37.740 -24.171 -13.221  0.00  0.00    +0.116 C 
ATOM     14  H   UNL     1      33.527 -21.536 -18.781  0.00  0.00    +0.174 HD
ATOM     15  H   UNL     1      38.006 -22.302 -16.562  0.00  0.00    +0.156 HD
ATOM     16  H   UNL     1      34.178 -25.013 -12.348  0.00  0.00    +0.165 HD
ENDROOT
BRANCH   5  20
ATOM     17  N   UNL     1      29.389 -25.469 -13.812  0.00  0.00    -0.315 N 
ATOM     18  N   UNL     1      29.123 -23.926 -15.390  0.00  0.00    -0.315 N 
ATOM     19  C   UNL     1      30.624 -24.899 -13.978  0.00  0.00    +0.060 C 
ATOM     20  C   UNL     1      32.931 -24.345 -13.793  0.00  0.00    +0.059 C 
ATOM     21  C   UNL     1      30.433 -23.939 -14.968  0.00  0.00    +0.059 C 
ATOM     22  C   UNL     1      31.856 -25.133 -13.366  0.00  0.00    +0.031 C 
ATOM     23  C   UNL     1      32.770 -23.375 -14.783  0.00  0.00    +0.017 C 
ATOM     24  C   UNL     1      31.523 -23.157 -15.384  0.00  0.00    +0.017 C 
ATOM     25  C   UNL     1      28.526 -24.855 -14.677  0.00  0.00    +0.182 C 
ATOM     26  H   UNL     1      29.163 -26.191 -13.182  0.00  0.00    +0.148 HD
ATOM     27  H   UNL     1      28.720 -23.347 -16.077  0.00  0.00    +0.148 HD
ENDBRANCH   5  20
BRANCH   7  28
ATOM     28  C   UNL     1      35.408 -20.368 -20.560  0.00  0.00    +0.037 C 
ATOM     29  C   UNL     1      36.234 -19.134 -20.771  0.00  0.00    +0.006 C 
ATOM     30  C   UNL     1      34.747 -19.021 -20.603  0.00  0.00    +0.006 C 
ENDBRANCH   7  28
TORSDOF 2
ENDMDL
MODEL 4
REMARK VINA RESULT:     -11.3      1.943      5.614
REMARK  Name = 42627755
REMARK  2 active torsions:
REMARK  status: ('A' for Active; 'I' for Inactive)
REMARK    1  A    between atoms: N_5  and  C_20
REMARK    2  A    between atoms: C_7  and  C_28
REMARK                            x       y       z     vdW  Elec       q    Type
REMARK                         _______ _______ _______ _____ _____    ______ ____
ROOT
ATOM      1  N   UNL     1      33.905 -21.932 -18.405  0.00  0.00    -0.239 N 
ATOM      2  N   UNL     1      34.193 -22.438 -17.195  0.00  0.00    -0.166 NA
ATOM      3  N   UNL     1      36.312 -22.602 -15.993  0.00  0.00    -0.271 N 
ATOM      4  N   UNL     1      34.741 -23.582 -14.495  0.00  0.00    -0.322 NA
ATOM      5  N   UNL     1      33.232 -24.553 -12.991  0.00  0.00    -0.247 N 
ATOM      6  N   UNL     1      35.485 -24.427 -12.364  0.00  0.00    -0.170 NA
ATOM      7  C   UNL     1      34.988 -21.430 -19.065  0.00  0.00    +0.045 C 
ATOM      8  C   UNL     1      36.059 -21.620 -18.225  0.00  0.00    +0.048 C 
ATOM      9  C   UNL     1      35.511 -22.245 -17.090  0.00  0.00    +0.152 C 
ATOM     10  C   UNL     1      36.017 -23.227 -14.757  0.00  0.00    +0.199 C 
ATOM     11  C   UNL     1      37.064 -23.436 -13.885  0.00  0.00    +0.070 C 
ATOM     12  C   UNL     1      34.550 -24.169 -13.298  0.00  0.00    +0.150 C 
ATOM     13  C   UNL     1      36.737 -24.047 -12.692  0.00  0.00    +0.116 C 
ATOM     14  H   UNL     1      32.995 -21.924 -18.783  0.00  0.00    +0.174 HD
ATOM     15  H   UNL     1      37.262 -22.375 -16.106  0.00  0.00    +0.156 HD
ATOM     16  H   UNL     1      33.139 -24.976 -12.107  0.00  0.00    +0.165 HD
ENDROOT
BRANCH   5  20
ATOM     17  N   UNL     1      30.146 -22.515 -16.268  0.00  0.00    -0.315 N 
ATOM     18  N   UNL     1      28.517 -23.979 -15.887  0.00  0.00    -0.315 N 
ATOM     19  C   UNL     1      30.635 -23.365 -15.311  0.00  0.00    +0.060 C 
ATOM     20  C   UNL     1      32.015 -24.448 -13.703  0.00  0.00    +0.059 C 
ATOM     21  C   UNL     1      29.600 -24.269 -15.090  0.00  0.00    +0.059 C 
ATOM     22  C   UNL     1      31.856 -23.420 -14.639  0.00  0.00    +0.031 C 
ATOM     23  C   UNL     1      30.996 -25.370 -13.460  0.00  0.00    +0.017 C 
ATOM     24  C   UNL     1      29.777 -25.296 -14.146  0.00  0.00    +0.017 C 
ATOM     25  C   UNL     1      28.878 -22.922 -16.580  0.00  0.00    +0.182 C 
ATOM     26  H   UNL     1      30.622 -21.748 -16.662  0.00  0.00    +0.148 HD
ATOM     27  H   UNL     1      27.658 -24.458 -15.930  0.00  0.00    +0.148 HD
ENDBRANCH   5  20
BRANCH   7  28
ATOM     28  C   UNL     1      34.998 -20.792 -20.447  0.00  0.00    +0.037 C 
ATOM     29  C   UNL     1      35.748 -19.508 -20.643  0.00  0.00    +0.006 C 
ATOM     30  C   UNL     1      34.248 -19.508 -20.653  0.00  0.00    +0.006 C 
ENDBRANCH   7  28
TORSDOF 2
ENDMDL
MODEL 5
REMARK VINA RESULT:      -9.8      2.159      6.377
REMARK  Name = 42627755
REMARK  2 active torsions:
REMARK  status: ('A' for Active; 'I' for Inactive)
REMARK    1  A    between atoms: N_5  and  C_20
REMARK    2  A    between atoms: C_7  and  C_28
REMARK                            x       y       z     vdW  Elec       q    Type
REMARK                         _______ _______ _______ _____ _____    ______ ____
ROOT
ATOM      1  N   UNL     1      31.277 -23.755 -15.219  0.00  0.00    -0.239 N 
ATOM      2  N   UNL     1      32.521 -23.741 -14.713  0.00  0.00    -0.166 NA
ATOM      3  N   UNL     1      33.389 -24.556 -12.581  0.00  0.00    -0.271 N 
ATOM      4  N   UNL     1      35.314 -23.669 -13.666  0.00  0.00    -0.322 NA
ATOM      5  N   UNL     1      37.233 -22.809 -14.696  0.00  0.00    -0.247 N 
ATOM      6  N   UNL     1      37.455 -23.753 -12.565  0.00  0.00    -0.170 NA
ATOM      7  C   UNL     1      30.352 -24.321 -14.393  0.00  0.00    +0.045 C 
ATOM      8  C   UNL     1      31.040 -24.705 -13.267  0.00  0.00    +0.048 C 
ATOM      9  C   UNL     1      32.370 -24.322 -13.519  0.00  0.00    +0.152 C 
ATOM     10  C   UNL     1      34.777 -24.275 -12.587  0.00  0.00    +0.199 C 
ATOM     11  C   UNL     1      35.505 -24.646 -11.476  0.00  0.00    +0.070 C 
ATOM     12  C   UNL     1      36.639 -23.441 -13.589  0.00  0.00    +0.150 C 
ATOM     13  C   UNL     1      36.853 -24.356 -11.519  0.00  0.00    +0.116 C 
ATOM     14  H   UNL     1      31.053 -23.390 -16.106  0.00  0.00    +0.174 HD
ATOM     15  H   UNL     1      33.077 -24.999 -11.760  0.00  0.00    +0.156 HD
ATOM     16  H   UNL     1      38.201 -22.663 -14.597  0.00  0.00    +0.165 HD
ENDROOT
BRANCH   5  20
ATOM     17  N   UNL     1      33.753 -22.355 -18.176  0.00  0.00    -0.315 N 
ATOM     18  N   UNL     1      35.008 -21.077 -19.492  0.00  0.00    -0.315 N 
ATOM     19  C   UNL     1      34.946 -22.211 -17.517  0.00  0.00    +0.060 C 
ATOM     20  C   UNL     1      36.710 -22.344 -15.926  0.00  0.00    +0.059 C 
ATOM     21  C   UNL     1      35.712 -21.410 -18.358  0.00  0.00    +0.059 C 
ATOM     22  C   UNL     1      35.408 -22.698 -16.294  0.00  0.00    +0.031 C 
ATOM     23  C   UNL     1      37.503 -21.542 -16.748  0.00  0.00    +0.017 C 
ATOM     24  C   UNL     1      37.019 -21.064 -17.972  0.00  0.00    +0.017 C 
ATOM     25  C   UNL     1      33.839 -21.660 -19.351  0.00  0.00    +0.182 C 
ATOM     26  H   UNL     1      32.974 -22.867 -17.861  0.00  0.00    +0.148 HD
ATOM     27  H   UNL     1      35.313 -20.522 -20.246  0.00  0.00    +0.148 HD
ENDBRANCH   5  20
BRANCH   7  28
ATOM     28  C   UNL     1      28.864 -24.489 -14.670  0.00  0.00    +0.037 C 
ATOM     29  C   UNL     1      28.378 -24.384 -16.085  0.00  0.00    +0.006 C 
ATOM     30  C   UNL     1      28.073 -23.289 -15.104  0.00  0.00    +0.006 C 
ENDBRANCH   7  28
TORSDOF 2
ENDMDL
MODEL 6
REMARK VINA RESULT:      -9.3      7.079     11.794
REMARK  Name = 42627755
REMARK  2 active torsions:
REMARK  status: ('A' for Active; 'I' for Inactive)
REMARK    1  A    between atoms: N_5  and  C_20
REMARK    2  A    between atoms: C_7  and  C_28
REMARK                            x       y       z     vdW  Elec       q    Type
REMARK                         _______ _______ _______ _____ _____    ______ ____
ROOT
ATOM      1  N   UNL     1      32.781 -12.908 -20.192  0.00  0.00    -0.239 N 
ATOM      2  N   UNL     1      33.083 -13.297 -21.442  0.00  0.00    -0.166 NA
ATOM      3  N   UNL     1      32.805 -12.157 -23.583  0.00  0.00    -0.271 N 
ATOM      4  N   UNL     1      33.787 -14.242 -24.182  0.00  0.00    -0.322 NA
ATOM      5  N   UNL     1      34.752 -16.279 -24.817  0.00  0.00    -0.247 N 
ATOM      6  N   UNL     1      34.245 -14.729 -26.497  0.00  0.00    -0.170 NA
ATOM      7  C   UNL     1      32.224 -11.665 -20.121  0.00  0.00    +0.045 C 
ATOM      8  C   UNL     1      32.159 -11.209 -21.416  0.00  0.00    +0.048 C 
ATOM      9  C   UNL     1      32.700 -12.255 -22.186  0.00  0.00    +0.152 C 
ATOM     10  C   UNL     1      33.299 -13.045 -24.569  0.00  0.00    +0.199 C 
ATOM     11  C   UNL     1      33.253 -12.625 -25.882  0.00  0.00    +0.070 C 
ATOM     12  C   UNL     1      34.237 -15.023 -25.184  0.00  0.00    +0.150 C 
ATOM     13  C   UNL     1      33.743 -13.517 -26.814  0.00  0.00    +0.116 C 
ATOM     14  H   UNL     1      32.946 -13.469 -19.399  0.00  0.00    +0.174 HD
ATOM     15  H   UNL     1      32.469 -11.307 -23.946  0.00  0.00    +0.156 HD
ATOM     16  H   UNL     1      35.069 -16.814 -25.580  0.00  0.00    +0.165 HD
ENDROOT
BRANCH   5  20
ATOM     17  N   UNL     1      34.652 -20.156 -21.755  0.00  0.00    -0.315 N 
ATOM     18  N   UNL     1      35.296 -18.979 -19.983  0.00  0.00    -0.315 N 
ATOM     19  C   UNL     1      34.813 -18.873 -22.208  0.00  0.00    +0.060 C 
ATOM     20  C   UNL     1      34.904 -16.922 -23.567  0.00  0.00    +0.059 C 
ATOM     21  C   UNL     1      35.214 -18.157 -21.084  0.00  0.00    +0.059 C 
ATOM     22  C   UNL     1      34.646 -18.293 -23.466  0.00  0.00    +0.031 C 
ATOM     23  C   UNL     1      35.309 -16.177 -22.458  0.00  0.00    +0.017 C 
ATOM     24  C   UNL     1      35.470 -16.780 -21.204  0.00  0.00    +0.017 C 
ATOM     25  C   UNL     1      34.952 -20.169 -20.421  0.00  0.00    +0.182 C 
ATOM     26  H   UNL     1      34.372 -20.931 -22.293  0.00  0.00    +0.148 HD
ATOM     27  H   UNL     1      35.555 -18.729 -19.067  0.00  0.00    +0.148 HD
ENDBRANCH   5  20
BRANCH   7  28
ATOM     28  C   UNL     1      31.771 -10.940 -18.862  0.00  0.00    +0.037 C 
ATOM     29  C   UNL     1      30.967  -9.681 -19.003  0.00  0.00    +0.006 C 
ATOM     30  C   UNL     1      32.391  -9.613 -18.532  0.00  0.00    +0.006 C 
ENDBRANCH   7  28
TORSDOF 2
ENDMDL
