MODEL 1
REMARK VINA RESULT:     -11.9      0.000      0.000
REMARK  Name = 447767
REMARK  2 active torsions:
REMARK  status: ('A' for Active; 'I' for Inactive)
REMARK    1  A    between atoms: N_2  and  C_10
REMARK    2  A    between atoms: C_8  and  C_24
REMARK                            x       y       z     vdW  Elec       q    Type
REMARK                         _______ _______ _______ _____ _____    ______ ____
ROOT
ATOM      1  O   UNL     1      34.335 -19.185 -24.335  0.00  0.00    -0.270 OA
ATOM      2  N   UNL     1      34.031 -14.226 -23.941  0.00  0.00    +0.396 N 
ATOM      3  N   UNL     1      34.800 -16.976 -23.727  0.00  0.00    -0.280 N 
ATOM      4  C   UNL     1      34.345 -14.810 -22.628  0.00  0.00    -0.054 C 
ATOM      5  C   UNL     1      33.434 -15.238 -24.822  0.00  0.00    -0.054 C 
ATOM      6  C   UNL     1      35.308 -15.991 -22.765  0.00  0.00    +0.071 C 
ATOM      7  C   UNL     1      34.385 -16.418 -25.011  0.00  0.00    +0.071 C 
ATOM      8  C   UNL     1      34.760 -18.359 -23.529  0.00  0.00    +0.249 C 
ATOM      9  H   UNL     1      34.900 -13.901 -24.365  0.00  0.00    -0.079 HD
ENDROOT
BRANCH   2  10
ATOM     10  C   UNL     1      33.136 -13.080 -23.792  0.00  0.00    -0.011 C 
ATOM     11  C   UNL     1      33.815 -11.767 -24.158  0.00  0.00    -0.038 C 
ATOM     12  C   UNL     1      32.757 -12.829 -22.339  0.00  0.00    -0.038 C 
ATOM     13  C   UNL     1      33.819 -10.887 -23.051  0.00  0.00    -0.006 C 
ATOM     14  C   UNL     1      33.169 -11.540 -21.935  0.00  0.00    -0.006 C 
ATOM     15  C   UNL     1      34.360 -11.392 -25.375  0.00  0.00    -0.006 C 
ATOM     16  C   UNL     1      32.087 -13.675 -21.469  0.00  0.00    -0.006 C 
ATOM     17  C   UNL     1      34.382  -9.626 -23.155  0.00  0.00    -0.000 C 
ATOM     18  C   UNL     1      32.923 -11.091 -20.647  0.00  0.00    -0.000 C 
ATOM     19  C   UNL     1      34.927 -10.121 -25.479  0.00  0.00    -0.000 C 
ATOM     20  C   UNL     1      31.839 -13.223 -20.172  0.00  0.00    -0.000 C 
ATOM     21  C   UNL     1      34.939  -9.247 -24.380  0.00  0.00    -0.000 C 
ATOM     22  C   UNL     1      32.254 -11.944 -19.765  0.00  0.00    -0.000 C 
ENDBRANCH   2  10
BRANCH   8  24
ATOM     23  N   UNL     1      36.496 -20.528 -18.686  0.00  0.00    -0.312 N 
ATOM     24  C   UNL     1      35.272 -18.893 -22.260  0.00  0.00    +0.054 C 
ATOM     25  C   UNL     1      34.494 -19.800 -21.534  0.00  0.00    +0.006 C 
ATOM     26  C   UNL     1      36.522 -18.491 -21.801  0.00  0.00    +0.006 C 
ATOM     27  C   UNL     1      34.993 -20.309 -20.319  0.00  0.00    +0.015 C 
ATOM     28  C   UNL     1      36.251 -19.890 -19.880  0.00  0.00    +0.048 C 
ATOM     29  C   UNL     1      37.037 -18.984 -20.598  0.00  0.00    +0.015 C 
ATOM     30  C   UNL     1      34.493 -21.220 -19.347  0.00  0.00    +0.017 C 
ATOM     31  C   UNL     1      35.439 -21.334 -18.355  0.00  0.00    +0.062 C 
ATOM     32  H   UNL     1      37.312 -20.421 -18.146  0.00  0.00    +0.152 HD
ENDBRANCH   8  24
TORSDOF 2
ENDMDL
MODEL 2
REMARK VINA RESULT:     -11.0      2.079      3.611
REMARK  Name = 447767
REMARK  2 active torsions:
REMARK  status: ('A' for Active; 'I' for Inactive)
REMARK    1  A    between atoms: N_2  and  C_10
REMARK    2  A    between atoms: C_8  and  C_24
REMARK                            x       y       z     vdW  Elec       q    Type
REMARK                         _______ _______ _______ _____ _____    ______ ____
ROOT
ATOM      1  O   UNL     1      34.098 -14.892 -26.363  0.00  0.00    -0.270 OA
ATOM      2  N   UNL     1      33.354 -11.072 -23.249  0.00  0.00    +0.396 N 
ATOM      3  N   UNL     1      34.206 -13.515 -24.477  0.00  0.00    -0.280 N 
ATOM      4  C   UNL     1      33.293 -12.338 -22.504  0.00  0.00    -0.054 C 
ATOM      5  C   UNL     1      33.123 -11.307 -24.681  0.00  0.00    -0.054 C 
ATOM      6  C   UNL     1      34.329 -13.336 -23.025  0.00  0.00    +0.071 C 
ATOM      7  C   UNL     1      34.164 -12.272 -25.243  0.00  0.00    +0.071 C 
ATOM      8  C   UNL     1      34.201 -14.741 -25.147  0.00  0.00    +0.249 C 
ATOM      9  H   UNL     1      34.287 -10.675 -23.133  0.00  0.00    -0.079 HD
ENDROOT
BRANCH   2  10
ATOM     10  C   UNL     1      32.380 -10.118 -22.721  0.00  0.00    -0.011 C 
ATOM     11  C   UNL     1      32.887  -8.683 -22.785  0.00  0.00    -0.038 C 
ATOM     12  C   UNL     1      32.157 -10.291 -21.224  0.00  0.00    -0.038 C 
ATOM     13  C   UNL     1      32.941  -8.119 -21.490  0.00  0.00    -0.006 C 
ATOM     14  C   UNL     1      32.493  -9.107 -20.532  0.00  0.00    -0.006 C 
ATOM     15  C   UNL     1      33.245  -7.949 -23.904  0.00  0.00    -0.006 C 
ATOM     16  C   UNL     1      31.676 -11.404 -20.553  0.00  0.00    -0.006 C 
ATOM     17  C   UNL     1      33.369  -6.814 -21.306  0.00  0.00    -0.000 C 
ATOM     18  C   UNL     1      32.362  -9.032 -19.155  0.00  0.00    -0.000 C 
ATOM     19  C   UNL     1      33.676  -6.634 -23.719  0.00  0.00    -0.000 C 
ATOM     20  C   UNL     1      31.545 -11.330 -19.165  0.00  0.00    -0.000 C 
ATOM     21  C   UNL     1      33.738  -6.072 -22.433  0.00  0.00    -0.000 C 
ATOM     22  C   UNL     1      31.885 -10.156 -18.473  0.00  0.00    -0.000 C 
ENDBRANCH   2  10
BRANCH   8  24
ATOM     23  N   UNL     1      34.837 -19.267 -21.939  0.00  0.00    -0.312 N 
ATOM     24  C   UNL     1      34.338 -15.968 -24.350  0.00  0.00    +0.054 C 
ATOM     25  C   UNL     1      34.995 -15.915 -23.118  0.00  0.00    +0.006 C 
ATOM     26  C   UNL     1      33.809 -17.161 -24.831  0.00  0.00    +0.006 C 
ATOM     27  C   UNL     1      35.120 -17.094 -22.359  0.00  0.00    +0.015 C 
ATOM     28  C   UNL     1      34.582 -18.280 -22.863  0.00  0.00    +0.048 C 
ATOM     29  C   UNL     1      33.921 -18.344 -24.095  0.00  0.00    +0.015 C 
ATOM     30  C   UNL     1      35.707 -17.406 -21.100  0.00  0.00    +0.017 C 
ATOM     31  C   UNL     1      35.518 -18.749 -20.870  0.00  0.00    +0.062 C 
ATOM     32  H   UNL     1      34.570 -20.210 -22.033  0.00  0.00    +0.152 HD
ENDBRANCH   8  24
TORSDOF 2
ENDMDL
MODEL 3
REMARK VINA RESULT:     -10.7      4.349      7.646
REMARK  Name = 447767
REMARK  2 active torsions:
REMARK  status: ('A' for Active; 'I' for Inactive)
REMARK    1  A    between atoms: N_2  and  C_10
REMARK    2  A    between atoms: C_8  and  C_24
REMARK                            x       y       z     vdW  Elec       q    Type
REMARK                         _______ _______ _______ _____ _____    ______ ____
ROOT
ATOM      1  O   UNL     1      31.210 -11.719 -20.639  0.00  0.00    -0.270 OA
ATOM      2  N   UNL     1      32.753  -7.560 -22.913  0.00  0.00    +0.396 N 
ATOM      3  N   UNL     1      32.120 -10.269 -22.231  0.00  0.00    -0.280 N 
ATOM      4  C   UNL     1      33.752  -8.624 -23.093  0.00  0.00    -0.054 C 
ATOM      5  C   UNL     1      31.889  -7.857 -21.761  0.00  0.00    -0.054 C 
ATOM      6  C   UNL     1      33.079  -9.982 -23.305  0.00  0.00    +0.071 C 
ATOM      7  C   UNL     1      31.173  -9.192 -21.956  0.00  0.00    +0.071 C 
ATOM      8  C   UNL     1      32.014 -11.478 -21.539  0.00  0.00    +0.249 C 
ATOM      9  H   UNL     1      32.172  -7.518 -23.750  0.00  0.00    -0.079 HD
ENDROOT
BRANCH   2  10
ATOM     10  C   UNL     1      33.408  -6.264 -22.742  0.00  0.00    -0.011 C 
ATOM     11  C   UNL     1      32.420  -5.162 -22.384  0.00  0.00    -0.038 C 
ATOM     12  C   UNL     1      33.988  -5.736 -24.048  0.00  0.00    -0.038 C 
ATOM     13  C   UNL     1      32.440  -4.142 -23.363  0.00  0.00    -0.006 C 
ATOM     14  C   UNL     1      33.402  -4.495 -24.384  0.00  0.00    -0.006 C 
ATOM     15  C   UNL     1      31.596  -5.076 -21.274  0.00  0.00    -0.006 C 
ATOM     16  C   UNL     1      34.964  -6.310 -24.846  0.00  0.00    -0.006 C 
ATOM     17  C   UNL     1      31.622  -3.031 -23.240  0.00  0.00    -0.000 C 
ATOM     18  C   UNL     1      33.784  -3.823 -25.534  0.00  0.00    -0.000 C 
ATOM     19  C   UNL     1      30.772  -3.956 -21.151  0.00  0.00    -0.000 C 
ATOM     20  C   UNL     1      35.349  -5.633 -26.005  0.00  0.00    -0.000 C 
ATOM     21  C   UNL     1      30.784  -2.944 -22.124  0.00  0.00    -0.000 C 
ATOM     22  C   UNL     1      34.763  -4.402 -26.346  0.00  0.00    -0.000 C 
ENDBRANCH   2  10
BRANCH   8  24
ATOM     23  N   UNL     1      35.361 -15.642 -23.162  0.00  0.00    -0.312 N 
ATOM     24  C   UNL     1      32.924 -12.571 -21.906  0.00  0.00    +0.054 C 
ATOM     25  C   UNL     1      32.800 -13.174 -23.161  0.00  0.00    +0.006 C 
ATOM     26  C   UNL     1      33.896 -12.987 -21.002  0.00  0.00    +0.006 C 
ATOM     27  C   UNL     1      33.677 -14.219 -23.507  0.00  0.00    +0.015 C 
ATOM     28  C   UNL     1      34.645 -14.619 -22.583  0.00  0.00    +0.048 C 
ATOM     29  C   UNL     1      34.778 -14.022 -21.324  0.00  0.00    +0.015 C 
ATOM     30  C   UNL     1      33.838 -15.038 -24.660  0.00  0.00    +0.017 C 
ATOM     31  C   UNL     1      34.880 -15.903 -24.417  0.00  0.00    +0.062 C 
ATOM     32  H   UNL     1      36.109 -16.118 -22.735  0.00  0.00    +0.152 HD
ENDBRANCH   8  24
TORSDOF 2
ENDMDL
MODEL 4
REMARK VINA RESULT:     -10.1      4.285     10.389
REMARK  Name = 447767
REMARK  2 active torsions:
REMARK  status: ('A' for Active; 'I' for Inactive)
REMARK    1  A    between atoms: N_2  and  C_10
REMARK    2  A    between atoms: C_8  and  C_24
REMARK                            x       y       z     vdW  Elec       q    Type
REMARK                         _______ _______ _______ _____ _____    ______ ____
ROOT
ATOM      1  O   UNL     1      31.369  -6.733 -21.321  0.00  0.00    -0.270 OA
ATOM      2  N   UNL     1      33.025 -11.347 -22.222  0.00  0.00    +0.396 N 
ATOM      3  N   UNL     1      32.694  -8.506 -22.073  0.00  0.00    -0.280 N 
ATOM      4  C   UNL     1      33.196 -10.515 -23.423  0.00  0.00    -0.054 C 
ATOM      5  C   UNL     1      32.016 -10.759 -21.330  0.00  0.00    -0.054 C 
ATOM      6  C   UNL     1      33.617  -9.091 -23.053  0.00  0.00    +0.071 C 
ATOM      7  C   UNL     1      32.423  -9.348 -20.911  0.00  0.00    +0.071 C 
ATOM      8  C   UNL     1      32.142  -7.224 -22.142  0.00  0.00    +0.249 C 
ATOM      9  H   UNL     1      33.915 -11.380 -21.725  0.00  0.00    -0.079 HD
ENDROOT
BRANCH   2  10
ATOM     10  C   UNL     1      32.653 -12.712 -22.591  0.00  0.00    -0.011 C 
ATOM     11  C   UNL     1      33.465 -13.754 -21.834  0.00  0.00    -0.038 C 
ATOM     12  C   UNL     1      33.015 -13.037 -24.034  0.00  0.00    -0.038 C 
ATOM     13  C   UNL     1      34.192 -14.565 -22.735  0.00  0.00    -0.006 C 
ATOM     14  C   UNL     1      33.916 -14.124 -24.085  0.00  0.00    -0.006 C 
ATOM     15  C   UNL     1      33.528 -13.966 -20.466  0.00  0.00    -0.006 C 
ATOM     16  C   UNL     1      32.561 -12.425 -25.191  0.00  0.00    -0.006 C 
ATOM     17  C   UNL     1      35.000 -15.589 -22.268  0.00  0.00    -0.000 C 
ATOM     18  C   UNL     1      34.379 -14.600 -25.301  0.00  0.00    -0.000 C 
ATOM     19  C   UNL     1      34.341 -14.998 -19.996  0.00  0.00    -0.000 C 
ATOM     20  C   UNL     1      33.028 -12.904 -26.416  0.00  0.00    -0.000 C 
ATOM     21  C   UNL     1      35.071 -15.801 -20.888  0.00  0.00    -0.000 C 
ATOM     22  C   UNL     1      33.929 -13.981 -26.470  0.00  0.00    -0.000 C 
ENDBRANCH   2  10
BRANCH   8  24
ATOM     23  N   UNL     1      33.783  -4.030 -26.418  0.00  0.00    -0.312 N 
ATOM     24  C   UNL     1      32.510  -6.370 -23.280  0.00  0.00    +0.054 C 
ATOM     25  C   UNL     1      33.860  -6.173 -23.580  0.00  0.00    +0.006 C 
ATOM     26  C   UNL     1      31.510  -5.774 -24.041  0.00  0.00    +0.006 C 
ATOM     27  C   UNL     1      34.205  -5.355 -24.673  0.00  0.00    +0.015 C 
ATOM     28  C   UNL     1      33.183  -4.767 -25.423  0.00  0.00    +0.048 C 
ATOM     29  C   UNL     1      31.828  -4.958 -25.131  0.00  0.00    +0.015 C 
ATOM     30  C   UNL     1      35.438  -4.944 -25.254  0.00  0.00    +0.017 C 
ATOM     31  C   UNL     1      35.146  -4.129 -26.323  0.00  0.00    +0.062 C 
ATOM     32  H   UNL     1      33.303  -3.505 -27.098  0.00  0.00    +0.152 HD
ENDBRANCH   8  24
TORSDOF 2
ENDMDL
MODEL 5
REMARK VINA RESULT:      -9.7      4.538     11.005
REMARK  Name = 447767
REMARK  2 active torsions:
REMARK  status: ('A' for Active; 'I' for Inactive)
REMARK    1  A    between atoms: N_2  and  C_10
REMARK    2  A    between atoms: C_8  and  C_24
REMARK                            x       y       z     vdW  Elec       q    Type
REMARK                         _______ _______ _______ _____ _____    ______ ____
ROOT
ATOM      1  O   UNL     1      36.691 -21.486 -19.684  0.00  0.00    -0.270 OA
ATOM      2  N   UNL     1      32.412 -22.434 -17.311  0.00  0.00    +0.396 N 
ATOM      3  N   UNL     1      34.408 -21.682 -19.222  0.00  0.00    -0.280 N 
ATOM      4  C   UNL     1      32.308 -21.155 -18.029  0.00  0.00    -0.054 C 
ATOM      5  C   UNL     1      33.822 -22.788 -17.095  0.00  0.00    -0.054 C 
ATOM      6  C   UNL     1      33.023 -21.221 -19.380  0.00  0.00    +0.071 C 
ATOM      7  C   UNL     1      34.559 -22.899 -18.429  0.00  0.00    +0.071 C 
ATOM      8  C   UNL     1      35.531 -21.100 -19.816  0.00  0.00    +0.249 C 
ATOM      9  H   UNL     1      31.980 -23.160 -17.882  0.00  0.00    -0.079 HD
ENDROOT
BRANCH   2  10
ATOM     10  C   UNL     1      31.699 -22.367 -16.036  0.00  0.00    -0.011 C 
ATOM     11  C   UNL     1      32.387 -23.180 -14.948  0.00  0.00    -0.038 C 
ATOM     12  C   UNL     1      30.336 -23.044 -16.102  0.00  0.00    -0.038 C 
ATOM     13  C   UNL     1      31.523 -24.187 -14.462  0.00  0.00    -0.006 C 
ATOM     14  C   UNL     1      30.264 -24.104 -15.171  0.00  0.00    -0.006 C 
ATOM     15  C   UNL     1      33.661 -23.016 -14.430  0.00  0.00    -0.006 C 
ATOM     16  C   UNL     1      29.258 -22.724 -16.911  0.00  0.00    -0.006 C 
ATOM     17  C   UNL     1      31.937 -25.048 -13.458  0.00  0.00    -0.000 C 
ATOM     18  C   UNL     1      29.110 -24.861 -15.050  0.00  0.00    -0.000 C 
ATOM     19  C   UNL     1      34.079 -23.883 -13.420  0.00  0.00    -0.000 C 
ATOM     20  C   UNL     1      28.095 -23.487 -16.790  0.00  0.00    -0.000 C 
ATOM     21  C   UNL     1      33.226 -24.889 -12.938  0.00  0.00    -0.000 C 
ATOM     22  C   UNL     1      28.022 -24.545 -15.870  0.00  0.00    -0.000 C 
ENDBRANCH   2  10
BRANCH   8  24
ATOM     23  N   UNL     1      34.661 -16.809 -23.282  0.00  0.00    -0.312 N 
ATOM     24  C   UNL     1      35.330 -19.931 -20.683  0.00  0.00    +0.054 C 
ATOM     25  C   UNL     1      34.752 -20.103 -21.943  0.00  0.00    +0.006 C 
ATOM     26  C   UNL     1      35.715 -18.672 -20.236  0.00  0.00    +0.006 C 
ATOM     27  C   UNL     1      34.560 -18.978 -22.767  0.00  0.00    +0.015 C 
ATOM     28  C   UNL     1      34.955 -17.724 -22.296  0.00  0.00    +0.048 C 
ATOM     29  C   UNL     1      35.535 -17.540 -21.036  0.00  0.00    +0.015 C 
ATOM     30  C   UNL     1      34.019 -18.783 -24.069  0.00  0.00    +0.017 C 
ATOM     31  C   UNL     1      34.095 -17.440 -24.358  0.00  0.00    +0.062 C 
ATOM     32  H   UNL     1      34.833 -15.842 -23.222  0.00  0.00    +0.152 HD
ENDBRANCH   8  24
TORSDOF 2
ENDMDL
MODEL 6
REMARK VINA RESULT:      -9.3      2.528      8.505
REMARK  Name = 447767
REMARK  2 active torsions:
REMARK  status: ('A' for Active; 'I' for Inactive)
REMARK    1  A    between atoms: N_2  and  C_10
REMARK    2  A    between atoms: C_8  and  C_24
REMARK                            x       y       z     vdW  Elec       q    Type
REMARK                         _______ _______ _______ _____ _____    ______ ____
ROOT
ATOM      1  O   UNL     1      31.656 -13.172 -19.877  0.00  0.00    -0.270 OA
ATOM      2  N   UNL     1      35.477 -15.927 -21.507  0.00  0.00    +0.396 N 
ATOM      3  N   UNL     1      33.737 -13.781 -20.750  0.00  0.00    -0.280 N 
ATOM      4  C   UNL     1      35.264 -14.789 -22.413  0.00  0.00    -0.054 C 
ATOM      5  C   UNL     1      34.263 -16.192 -20.722  0.00  0.00    -0.054 C 
ATOM      6  C   UNL     1      34.881 -13.528 -21.635  0.00  0.00    +0.071 C 
ATOM      7  C   UNL     1      33.872 -14.964 -19.903  0.00  0.00    +0.071 C 
ATOM      8  C   UNL     1      32.614 -12.960 -20.619  0.00  0.00    +0.249 C 
ATOM      9  H   UNL     1      36.231 -15.689 -20.863  0.00  0.00    -0.079 HD
ENDROOT
BRANCH   2  10
ATOM     10  C   UNL     1      35.872 -17.116 -22.260  0.00  0.00    -0.011 C 
ATOM     11  C   UNL     1      34.825 -17.520 -23.290  0.00  0.00    -0.038 C 
ATOM     12  C   UNL     1      35.927 -18.361 -21.384  0.00  0.00    -0.038 C 
ATOM     13  C   UNL     1      34.351 -18.825 -23.029  0.00  0.00    -0.006 C 
ATOM     14  C   UNL     1      35.027 -19.341 -21.858  0.00  0.00    -0.006 C 
ATOM     15  C   UNL     1      34.359 -16.789 -24.371  0.00  0.00    -0.006 C 
ATOM     16  C   UNL     1      36.726 -18.594 -20.276  0.00  0.00    -0.006 C 
ATOM     17  C   UNL     1      33.393 -19.405 -23.845  0.00  0.00    -0.000 C 
ATOM     18  C   UNL     1      34.913 -20.564 -21.216  0.00  0.00    -0.000 C 
ATOM     19  C   UNL     1      33.394 -17.373 -25.194  0.00  0.00    -0.000 C 
ATOM     20  C   UNL     1      36.611 -19.826 -19.629  0.00  0.00    -0.000 C 
ATOM     21  C   UNL     1      32.915 -18.668 -24.933  0.00  0.00    -0.000 C 
ATOM     22  C   UNL     1      35.712 -20.800 -20.094  0.00  0.00    -0.000 C 
ENDBRANCH   2  10
BRANCH   8  24
ATOM     23  N   UNL     1      32.282  -8.170 -23.468  0.00  0.00    -0.312 N 
ATOM     24  C   UNL     1      32.556 -11.730 -21.420  0.00  0.00    +0.054 C 
ATOM     25  C   UNL     1      31.960 -10.588 -20.879  0.00  0.00    +0.006 C 
ATOM     26  C   UNL     1      33.097 -11.721 -22.701  0.00  0.00    +0.006 C 
ATOM     27  C   UNL     1      31.910  -9.412 -21.652  0.00  0.00    +0.015 C 
ATOM     28  C   UNL     1      32.460  -9.426 -22.936  0.00  0.00    +0.048 C 
ATOM     29  C   UNL     1      33.059 -10.565 -23.487  0.00  0.00    +0.015 C 
ATOM     30  C   UNL     1      31.398  -8.102 -21.433  0.00  0.00    +0.017 C 
ATOM     31  C   UNL     1      31.640  -7.363 -22.567  0.00  0.00    +0.062 C 
ATOM     32  H   UNL     1      32.574  -7.891 -24.366  0.00  0.00    +0.152 HD
ENDBRANCH   8  24
TORSDOF 2
ENDMDL
MODEL 7
REMARK VINA RESULT:      -9.2      5.065      8.891
REMARK  Name = 447767
REMARK  2 active torsions:
REMARK  status: ('A' for Active; 'I' for Inactive)
REMARK    1  A    between atoms: N_2  and  C_10
REMARK    2  A    between atoms: C_8  and  C_24
REMARK                            x       y       z     vdW  Elec       q    Type
REMARK                         _______ _______ _______ _____ _____    ______ ____
ROOT
ATOM      1  O   UNL     1      32.397 -10.940 -20.019  0.00  0.00    -0.270 OA
ATOM      2  N   UNL     1      32.138  -6.442 -22.153  0.00  0.00    +0.396 N 
ATOM      3  N   UNL     1      32.013  -9.247 -21.585  0.00  0.00    -0.280 N 
ATOM      4  C   UNL     1      32.664  -7.420 -23.118  0.00  0.00    -0.054 C 
ATOM      5  C   UNL     1      32.312  -6.934 -20.778  0.00  0.00    -0.054 C 
ATOM      6  C   UNL     1      31.960  -8.771 -22.972  0.00  0.00    +0.071 C 
ATOM      7  C   UNL     1      31.590  -8.266 -20.588  0.00  0.00    +0.071 C 
ATOM      8  C   UNL     1      32.353 -10.540 -21.182  0.00  0.00    +0.249 C 
ATOM      9  H   UNL     1      31.141  -6.321 -22.328  0.00  0.00    -0.079 HD
ENDROOT
BRANCH   2  10
ATOM     10  C   UNL     1      32.796  -5.148 -22.322  0.00  0.00    -0.011 C 
ATOM     11  C   UNL     1      31.806  -3.991 -22.297  0.00  0.00    -0.038 C 
ATOM     12  C   UNL     1      33.408  -4.990 -23.708  0.00  0.00    -0.038 C 
ATOM     13  C   UNL     1      31.854  -3.272 -23.513  0.00  0.00    -0.006 C 
ATOM     14  C   UNL     1      32.837  -3.886 -24.379  0.00  0.00    -0.006 C 
ATOM     15  C   UNL     1      30.958  -3.610 -21.270  0.00  0.00    -0.006 C 
ATOM     16  C   UNL     1      34.399  -5.757 -24.300  0.00  0.00    -0.006 C 
ATOM     17  C   UNL     1      31.040  -2.169 -23.712  0.00  0.00    -0.000 C 
ATOM     18  C   UNL     1      33.248  -3.547 -25.658  0.00  0.00    -0.000 C 
ATOM     19  C   UNL     1      30.138  -2.499 -21.471  0.00  0.00    -0.000 C 
ATOM     20  C   UNL     1      34.813  -5.416 -25.589  0.00  0.00    -0.000 C 
ATOM     21  C   UNL     1      30.177  -1.786 -22.681  0.00  0.00    -0.000 C 
ATOM     22  C   UNL     1      34.242  -4.323 -26.261  0.00  0.00    -0.000 C 
ENDBRANCH   2  10
BRANCH   8  24
ATOM     23  N   UNL     1      33.659 -14.096 -25.283  0.00  0.00    -0.312 N 
ATOM     24  C   UNL     1      32.683 -11.526 -22.220  0.00  0.00    +0.054 C 
ATOM     25  C   UNL     1      33.061 -11.084 -23.490  0.00  0.00    +0.006 C 
ATOM     26  C   UNL     1      32.617 -12.883 -21.922  0.00  0.00    +0.006 C 
ATOM     27  C   UNL     1      33.378 -12.035 -24.479  0.00  0.00    +0.015 C 
ATOM     28  C   UNL     1      33.304 -13.392 -24.156  0.00  0.00    +0.048 C 
ATOM     29  C   UNL     1      32.928 -13.846 -22.888  0.00  0.00    +0.015 C 
ATOM     30  C   UNL     1      33.790 -11.951 -25.839  0.00  0.00    +0.017 C 
ATOM     31  C   UNL     1      33.954 -13.235 -26.306  0.00  0.00    +0.062 C 
ATOM     32  H   UNL     1      33.696 -15.078 -25.346  0.00  0.00    +0.152 HD
ENDBRANCH   8  24
TORSDOF 2
ENDMDL
MODEL 8
REMARK VINA RESULT:      -9.1      4.625     10.419
REMARK  Name = 447767
REMARK  2 active torsions:
REMARK  status: ('A' for Active; 'I' for Inactive)
REMARK    1  A    between atoms: N_2  and  C_10
REMARK    2  A    between atoms: C_8  and  C_24
REMARK                            x       y       z     vdW  Elec       q    Type
REMARK                         _______ _______ _______ _____ _____    ______ ____
ROOT
ATOM      1  O   UNL     1      31.200  -7.753 -19.365  0.00  0.00    -0.270 OA
ATOM      2  N   UNL     1      32.976 -11.785 -21.696  0.00  0.00    +0.396 N 
ATOM      3  N   UNL     1      32.379  -9.112 -20.858  0.00  0.00    -0.280 N 
ATOM      4  C   UNL     1      32.612 -10.760 -22.686  0.00  0.00    -0.054 C 
ATOM      5  C   UNL     1      32.282 -11.540 -20.424  0.00  0.00    -0.054 C 
ATOM      6  C   UNL     1      32.962  -9.358 -22.182  0.00  0.00    +0.071 C 
ATOM      7  C   UNL     1      32.638 -10.160 -19.874  0.00  0.00    +0.071 C 
ATOM      8  C   UNL     1      31.689  -7.959 -20.476  0.00  0.00    +0.249 C 
ATOM      9  H   UNL     1      33.981 -11.730 -21.531  0.00  0.00    -0.079 HD
ENDROOT
BRANCH   2  10
ATOM     10  C   UNL     1      32.665 -13.121 -22.201  0.00  0.00    -0.011 C 
ATOM     11  C   UNL     1      33.561 -14.191 -21.590  0.00  0.00    -0.038 C 
ATOM     12  C   UNL     1      32.990 -13.267 -23.682  0.00  0.00    -0.038 C 
ATOM     13  C   UNL     1      34.296 -14.855 -22.598  0.00  0.00    -0.006 C 
ATOM     14  C   UNL     1      33.945 -14.288 -23.882  0.00  0.00    -0.006 C 
ATOM     15  C   UNL     1      33.687 -14.546 -20.257  0.00  0.00    -0.006 C 
ATOM     16  C   UNL     1      32.460 -12.560 -24.749  0.00  0.00    -0.006 C 
ATOM     17  C   UNL     1      35.175 -15.876 -22.273  0.00  0.00    -0.000 C 
ATOM     18  C   UNL     1      34.388 -14.601 -25.157  0.00  0.00    -0.000 C 
ATOM     19  C   UNL     1      34.572 -15.574 -19.930  0.00  0.00    -0.000 C 
ATOM     20  C   UNL     1      32.905 -12.875 -26.035  0.00  0.00    -0.000 C 
ATOM     21  C   UNL     1      35.310 -16.232 -20.928  0.00  0.00    -0.000 C 
ATOM     22  C   UNL     1      33.861 -13.885 -26.236  0.00  0.00    -0.000 C 
ENDBRANCH   2  10
BRANCH   8  24
ATOM     23  N   UNL     1      31.176  -3.721 -24.074  0.00  0.00    -0.312 N 
ATOM     24  C   UNL     1      31.527  -6.886 -21.466  0.00  0.00    +0.054 C 
ATOM     25  C   UNL     1      31.907  -5.583 -21.133  0.00  0.00    +0.006 C 
ATOM     26  C   UNL     1      31.002  -7.184 -22.719  0.00  0.00    +0.006 C 
ATOM     27  C   UNL     1      31.751  -4.561 -22.089  0.00  0.00    +0.015 C 
ATOM     28  C   UNL     1      31.221  -4.884 -23.340  0.00  0.00    +0.048 C 
ATOM     29  C   UNL     1      30.838  -6.185 -23.684  0.00  0.00    +0.015 C 
ATOM     30  C   UNL     1      32.022  -3.163 -22.099  0.00  0.00    +0.017 C 
ATOM     31  C   UNL     1      31.657  -2.675 -23.332  0.00  0.00    +0.062 C 
ATOM     32  H   UNL     1      30.846  -3.650 -24.998  0.00  0.00    +0.152 HD
ENDBRANCH   8  24
TORSDOF 2
ENDMDL
