MODEL 1
REMARK VINA RESULT:     -12.3      0.000      0.000
REMARK  Name = 4566
REMARK  6 active torsions:
REMARK  status: ('A' for Active; 'I' for Inactive)
REMARK    1  A    between atoms: N_4  and  C_14
REMARK    2  A    between atoms: C_6  and  O_26
REMARK    3  A    between atoms: C_15  and  S_20
REMARK    4  A    between atoms: S_20  and  N_23
REMARK    5  A    between atoms: O_26  and  C_27
REMARK    6  A    between atoms: C_27  and  C_28
REMARK                            x       y       z     vdW  Elec       q    Type
REMARK                         _______ _______ _______ _____ _____    ______ ____
ROOT
ATOM      1  N   UNL     1      32.357 -23.334 -15.341  0.00  0.00    -0.293 NA
ATOM      2  N   UNL     1      29.076 -22.455 -16.751  0.00  0.00    -0.266 NA
ATOM      3  N   UNL     1      30.479 -23.775 -13.847  0.00  0.00    -0.316 NA
ATOM      4  N   UNL     1      32.680 -24.239 -13.206  0.00  0.00    -0.238 N 
ATOM      5  N   UNL     1      28.315 -23.190 -14.789  0.00  0.00    -0.296 N 
ATOM      6  C   UNL     1      31.535 -22.863 -16.305  0.00  0.00    +0.288 C 
ATOM      7  C   UNL     1      30.180 -22.845 -16.047  0.00  0.00    +0.215 C 
ATOM      8  C   UNL     1      29.682 -23.298 -14.833  0.00  0.00    +0.196 C 
ATOM      9  C   UNL     1      31.786 -23.755 -14.187  0.00  0.00    +0.207 C 
ATOM     10  C   UNL     1      27.983 -22.681 -15.956  0.00  0.00    +0.164 C 
ATOM     11  H   UNL     1      29.066 -22.081 -17.661  0.00  0.00    +0.126 HD
ATOM     12  H   UNL     1      32.237 -24.539 -12.379  0.00  0.00    +0.166 HD
ATOM     13  H   UNL     1      27.716 -23.440 -14.048  0.00  0.00    +0.150 HD
ENDROOT
BRANCH   4  14
ATOM     14  C   UNL     1      34.079 -24.377 -13.180  0.00  0.00    +0.059 C 
ATOM     15  C   UNL     1      36.859 -24.653 -13.125  0.00  0.00    +0.122 C 
ATOM     16  C   UNL     1      34.760 -24.846 -14.305  0.00  0.00    +0.017 C 
ATOM     17  C   UNL     1      34.795 -24.047 -12.026  0.00  0.00    +0.017 C 
ATOM     18  C   UNL     1      36.148 -24.984 -14.279  0.00  0.00    +0.021 C 
ATOM     19  C   UNL     1      36.183 -24.185 -11.999  0.00  0.00    +0.021 C 
BRANCH  15  20
ATOM     20  S   UNL     1      38.597 -24.826 -13.091  0.00  0.00    +0.057 S 
ATOM     21  O   UNL     1      39.133 -23.894 -12.109  0.00  0.00    -0.153 OA
ATOM     22  O   UNL     1      38.918 -26.243 -12.994  0.00  0.00    -0.153 OA
BRANCH  20  23
ATOM     23  N   UNL     1      39.009 -24.277 -14.656  0.00  0.00    -0.203 NA
ATOM     24  H   UNL     1      38.164 -24.197 -15.222  0.00  0.00    +0.144 HD
ATOM     25  H   UNL     1      39.647 -24.943 -15.092  0.00  0.00    +0.144 HD
ENDBRANCH  20  23
ENDBRANCH  15  20
ENDBRANCH   4  14
BRANCH   6  26
ATOM     26  O   UNL     1      32.082 -22.427 -17.486  0.00  0.00    -0.453 OA
BRANCH  26  27
ATOM     27  C   UNL     1      33.414 -22.819 -17.762  0.00  0.00    +0.208 C 
BRANCH  27  28
ATOM     28  C   UNL     1      33.902 -22.045 -18.986  0.00  0.00    +0.044 C 
ATOM     29  C   UNL     1      32.959 -20.877 -19.302  0.00  0.00    +0.004 C 
ATOM     30  C   UNL     1      35.338 -21.547 -18.774  0.00  0.00    +0.004 C 
ATOM     31  C   UNL     1      33.455 -20.055 -20.489  0.00  0.00    +0.000 C 
ATOM     32  C   UNL     1      35.830 -20.724 -19.963  0.00  0.00    +0.000 C 
ATOM     33  C   UNL     1      34.885 -19.568 -20.278  0.00  0.00    +0.000 C 
ENDBRANCH  27  28
ENDBRANCH  26  27
ENDBRANCH   6  26
TORSDOF 6
ENDMDL
MODEL 2
REMARK VINA RESULT:     -12.2      1.329      1.644
REMARK  Name = 4566
REMARK  6 active torsions:
REMARK  status: ('A' for Active; 'I' for Inactive)
REMARK    1  A    between atoms: N_4  and  C_14
REMARK    2  A    between atoms: C_6  and  O_26
REMARK    3  A    between atoms: C_15  and  S_20
REMARK    4  A    between atoms: S_20  and  N_23
REMARK    5  A    between atoms: O_26  and  C_27
REMARK    6  A    between atoms: C_27  and  C_28
REMARK                            x       y       z     vdW  Elec       q    Type
REMARK                         _______ _______ _______ _____ _____    ______ ____
ROOT
ATOM      1  N   UNL     1      33.850 -23.807 -15.316  0.00  0.00    -0.293 NA
ATOM      2  N   UNL     1      30.429 -22.813 -16.230  0.00  0.00    -0.266 NA
ATOM      3  N   UNL     1      32.250 -23.936 -13.479  0.00  0.00    -0.316 NA
ATOM      4  N   UNL     1      34.498 -24.510 -13.179  0.00  0.00    -0.238 N 
ATOM      5  N   UNL     1      29.992 -23.276 -14.094  0.00  0.00    -0.296 N 
ATOM      6  C   UNL     1      32.898 -23.373 -16.172  0.00  0.00    +0.288 C 
ATOM      7  C   UNL     1      31.616 -23.217 -15.687  0.00  0.00    +0.215 C 
ATOM      8  C   UNL     1      31.319 -23.500 -14.361  0.00  0.00    +0.196 C 
ATOM      9  C   UNL     1      33.472 -24.058 -14.040  0.00  0.00    +0.207 C 
ATOM     10  C   UNL     1      29.486 -22.865 -15.236  0.00  0.00    +0.164 C 
ATOM     11  H   UNL     1      30.278 -22.536 -17.162  0.00  0.00    +0.126 HD
ATOM     12  H   UNL     1      34.194 -24.685 -12.258  0.00  0.00    +0.166 HD
ATOM     13  H   UNL     1      29.523 -23.398 -13.237  0.00  0.00    +0.150 HD
ENDROOT
BRANCH   4  14
ATOM     14  C   UNL     1      35.867 -24.759 -13.379  0.00  0.00    +0.059 C 
ATOM     15  C   UNL     1      38.588 -25.254 -13.775  0.00  0.00    +0.122 C 
ATOM     16  C   UNL     1      36.277 -25.774 -14.246  0.00  0.00    +0.017 C 
ATOM     17  C   UNL     1      36.825 -23.992 -12.710  0.00  0.00    +0.017 C 
ATOM     18  C   UNL     1      37.635 -26.022 -14.444  0.00  0.00    +0.021 C 
ATOM     19  C   UNL     1      38.183 -24.240 -12.908  0.00  0.00    +0.021 C 
BRANCH  15  20
ATOM     20  S   UNL     1      40.289 -25.564 -14.022  0.00  0.00    +0.057 S 
ATOM     21  O   UNL     1      41.027 -24.346 -13.720  0.00  0.00    -0.153 OA
ATOM     22  O   UNL     1      40.635 -26.806 -13.345  0.00  0.00    -0.153 OA
BRANCH  20  23
ATOM     23  N   UNL     1      40.329 -25.830 -15.709  0.00  0.00    -0.203 NA
ATOM     24  H   UNL     1      40.186 -24.946 -16.197  0.00  0.00    +0.144 HD
ATOM     25  H   UNL     1      39.590 -26.484 -15.967  0.00  0.00    +0.144 HD
ENDBRANCH  20  23
ENDBRANCH  15  20
ENDBRANCH   4  14
BRANCH   6  26
ATOM     26  O   UNL     1      33.248 -23.108 -17.473  0.00  0.00    -0.453 OA
BRANCH  26  27
ATOM     27  C   UNL     1      34.525 -22.538 -17.692  0.00  0.00    +0.208 C 
BRANCH  27  28
ATOM     28  C   UNL     1      34.498 -21.790 -19.024  0.00  0.00    +0.044 C 
ATOM     29  C   UNL     1      33.234 -20.929 -19.138  0.00  0.00    +0.004 C 
ATOM     30  C   UNL     1      35.761 -20.934 -19.190  0.00  0.00    +0.004 C 
ATOM     31  C   UNL     1      33.210 -20.130 -20.439  0.00  0.00    +0.000 C 
ATOM     32  C   UNL     1      35.733 -20.135 -20.491  0.00  0.00    +0.000 C 
ATOM     33  C   UNL     1      34.470 -19.285 -20.604  0.00  0.00    +0.000 C 
ENDBRANCH  27  28
ENDBRANCH  26  27
ENDBRANCH   6  26
TORSDOF 6
ENDMDL
MODEL 3
REMARK VINA RESULT:     -11.6      2.943      6.782
REMARK  Name = 4566
REMARK  6 active torsions:
REMARK  status: ('A' for Active; 'I' for Inactive)
REMARK    1  A    between atoms: N_4  and  C_14
REMARK    2  A    between atoms: C_6  and  O_26
REMARK    3  A    between atoms: C_15  and  S_20
REMARK    4  A    between atoms: S_20  and  N_23
REMARK    5  A    between atoms: O_26  and  C_27
REMARK    6  A    between atoms: C_27  and  C_28
REMARK                            x       y       z     vdW  Elec       q    Type
REMARK                         _______ _______ _______ _____ _____    ______ ____
ROOT
ATOM      1  N   UNL     1      34.602 -23.849 -14.013  0.00  0.00    -0.293 NA
ATOM      2  N   UNL     1      38.143 -24.066 -13.040  0.00  0.00    -0.266 NA
ATOM      3  N   UNL     1      34.960 -24.222 -11.629  0.00  0.00    -0.316 NA
ATOM      4  N   UNL     1      32.807 -24.044 -12.523  0.00  0.00    -0.238 N 
ATOM      5  N   UNL     1      37.304 -24.365 -10.997  0.00  0.00    -0.296 N 
ATOM      6  C   UNL     1      35.932 -23.836 -14.254  0.00  0.00    +0.288 C 
ATOM      7  C   UNL     1      36.785 -24.018 -13.185  0.00  0.00    +0.215 C 
ATOM      8  C   UNL     1      36.287 -24.205 -11.903  0.00  0.00    +0.196 C 
ATOM      9  C   UNL     1      34.204 -24.039 -12.732  0.00  0.00    +0.207 C 
ATOM     10  C   UNL     1      38.405 -24.276 -11.712  0.00  0.00    +0.164 C 
ATOM     11  H   UNL     1      38.810 -23.968 -13.757  0.00  0.00    +0.126 HD
ATOM     12  H   UNL     1      32.547 -24.183 -11.583  0.00  0.00    +0.166 HD
ATOM     13  H   UNL     1      37.227 -24.512 -10.026  0.00  0.00    +0.150 HD
ENDROOT
BRANCH   4  14
ATOM     14  C   UNL     1      31.714 -23.890 -13.395  0.00  0.00    +0.059 C 
ATOM     15  C   UNL     1      29.545 -23.582 -15.129  0.00  0.00    +0.122 C 
ATOM     16  C   UNL     1      30.817 -24.942 -13.590  0.00  0.00    +0.017 C 
ATOM     17  C   UNL     1      31.521 -22.682 -14.071  0.00  0.00    +0.017 C 
ATOM     18  C   UNL     1      29.734 -24.790 -14.456  0.00  0.00    +0.021 C 
ATOM     19  C   UNL     1      30.438 -22.530 -14.937  0.00  0.00    +0.021 C 
BRANCH  15  20
ATOM     20  S   UNL     1      28.189 -23.391 -16.213  0.00  0.00    +0.057 S 
ATOM     21  O   UNL     1      28.492 -22.311 -17.142  0.00  0.00    -0.153 OA
ATOM     22  O   UNL     1      27.818 -24.703 -16.725  0.00  0.00    -0.153 OA
BRANCH  20  23
ATOM     23  N   UNL     1      26.978 -22.864 -15.129  0.00  0.00    -0.203 NA
ATOM     24  H   UNL     1      26.058 -23.054 -15.528  0.00  0.00    +0.144 HD
ATOM     25  H   UNL     1      27.077 -21.861 -14.969  0.00  0.00    +0.144 HD
ENDBRANCH  20  23
ENDBRANCH  15  20
ENDBRANCH   4  14
BRANCH   6  26
ATOM     26  O   UNL     1      36.369 -23.648 -15.542  0.00  0.00    -0.453 OA
BRANCH  26  27
ATOM     27  C   UNL     1      36.399 -22.317 -16.023  0.00  0.00    +0.208 C 
BRANCH  27  28
ATOM     28  C   UNL     1      35.817 -22.301 -17.436  0.00  0.00    +0.044 C 
ATOM     29  C   UNL     1      34.284 -22.250 -17.392  0.00  0.00    +0.004 C 
ATOM     30  C   UNL     1      36.381 -21.121 -18.240  0.00  0.00    +0.004 C 
ATOM     31  C   UNL     1      33.681 -22.178 -18.793  0.00  0.00    +0.000 C 
ATOM     32  C   UNL     1      35.774 -21.052 -19.640  0.00  0.00    +0.000 C 
ATOM     33  C   UNL     1      34.250 -21.009 -19.591  0.00  0.00    +0.000 C 
ENDBRANCH  27  28
ENDBRANCH  26  27
ENDBRANCH   6  26
TORSDOF 6
ENDMDL
MODEL 4
REMARK VINA RESULT:     -11.6      3.056      6.777
REMARK  Name = 4566
REMARK  6 active torsions:
REMARK  status: ('A' for Active; 'I' for Inactive)
REMARK    1  A    between atoms: N_4  and  C_14
REMARK    2  A    between atoms: C_6  and  O_26
REMARK    3  A    between atoms: C_15  and  S_20
REMARK    4  A    between atoms: S_20  and  N_23
REMARK    5  A    between atoms: O_26  and  C_27
REMARK    6  A    between atoms: C_27  and  C_28
REMARK                            x       y       z     vdW  Elec       q    Type
REMARK                         _______ _______ _______ _____ _____    ______ ____
ROOT
ATOM      1  N   UNL     1      34.585 -23.515 -15.215  0.00  0.00    -0.293 NA
ATOM      2  N   UNL     1      38.253 -23.670 -14.987  0.00  0.00    -0.266 NA
ATOM      3  N   UNL     1      35.413 -24.815 -13.323  0.00  0.00    -0.316 NA
ATOM      4  N   UNL     1      33.121 -24.551 -13.710  0.00  0.00    -0.238 N 
ATOM      5  N   UNL     1      37.839 -24.911 -13.183  0.00  0.00    -0.296 N 
ATOM      6  C   UNL     1      35.841 -23.232 -15.625  0.00  0.00    +0.288 C 
ATOM      7  C   UNL     1      36.892 -23.738 -14.889  0.00  0.00    +0.215 C 
ATOM      8  C   UNL     1      36.660 -24.514 -13.760  0.00  0.00    +0.196 C 
ATOM      9  C   UNL     1      34.451 -24.279 -14.104  0.00  0.00    +0.207 C 
ATOM     10  C   UNL     1      38.776 -24.388 -13.944  0.00  0.00    +0.164 C 
ATOM     11  H   UNL     1      38.764 -23.193 -15.680  0.00  0.00    +0.126 HD
ATOM     12  H   UNL     1      33.054 -25.107 -12.899  0.00  0.00    +0.166 HD
ATOM     13  H   UNL     1      37.957 -25.464 -12.377  0.00  0.00    +0.150 HD
ENDROOT
BRANCH   4  14
ATOM     14  C   UNL     1      31.875 -24.183 -14.247  0.00  0.00    +0.059 C 
ATOM     15  C   UNL     1      29.400 -23.451 -15.318  0.00  0.00    +0.122 C 
ATOM     16  C   UNL     1      30.705 -24.791 -13.788  0.00  0.00    +0.017 C 
ATOM     17  C   UNL     1      31.802 -23.207 -15.245  0.00  0.00    +0.017 C 
ATOM     18  C   UNL     1      29.469 -24.426 -14.322  0.00  0.00    +0.021 C 
ATOM     19  C   UNL     1      30.566 -22.842 -15.779  0.00  0.00    +0.021 C 
BRANCH  15  20
ATOM     20  S   UNL     1      27.853 -22.995 -15.987  0.00  0.00    +0.057 S 
ATOM     21  O   UNL     1      26.876 -22.968 -14.908  0.00  0.00    -0.153 OA
ATOM     22  O   UNL     1      28.041 -21.818 -16.823  0.00  0.00    -0.153 OA
BRANCH  20  23
ATOM     23  N   UNL     1      27.526 -24.335 -16.994  0.00  0.00    -0.203 NA
ATOM     24  H   UNL     1      26.877 -24.965 -16.522  0.00  0.00    +0.144 HD
ATOM     25  H   UNL     1      28.395 -24.831 -17.193  0.00  0.00    +0.144 HD
ENDBRANCH  20  23
ENDBRANCH  15  20
ENDBRANCH   4  14
BRANCH   6  26
ATOM     26  O   UNL     1      36.013 -22.461 -16.749  0.00  0.00    -0.453 OA
BRANCH  26  27
ATOM     27  C   UNL     1      35.065 -22.619 -17.788  0.00  0.00    +0.208 C 
BRANCH  27  28
ATOM     28  C   UNL     1      34.959 -21.300 -18.551  0.00  0.00    +0.044 C 
ATOM     29  C   UNL     1      36.190 -21.088 -19.443  0.00  0.00    +0.004 C 
ATOM     30  C   UNL     1      33.669 -21.255 -19.380  0.00  0.00    +0.004 C 
ATOM     31  C   UNL     1      36.083 -19.800 -20.257  0.00  0.00    +0.000 C 
ATOM     32  C   UNL     1      33.566 -19.967 -20.194  0.00  0.00    +0.000 C 
ATOM     33  C   UNL     1      34.795 -19.757 -21.073  0.00  0.00    +0.000 C 
ENDBRANCH  27  28
ENDBRANCH  26  27
ENDBRANCH   6  26
TORSDOF 6
ENDMDL
MODEL 5
REMARK VINA RESULT:     -11.2      3.536      7.224
REMARK  Name = 4566
REMARK  6 active torsions:
REMARK  status: ('A' for Active; 'I' for Inactive)
REMARK    1  A    between atoms: N_4  and  C_14
REMARK    2  A    between atoms: C_6  and  O_26
REMARK    3  A    between atoms: C_15  and  S_20
REMARK    4  A    between atoms: S_20  and  N_23
REMARK    5  A    between atoms: O_26  and  C_27
REMARK    6  A    between atoms: C_27  and  C_28
REMARK                            x       y       z     vdW  Elec       q    Type
REMARK                         _______ _______ _______ _____ _____    ______ ____
ROOT
ATOM      1  N   UNL     1      33.820 -22.625 -15.997  0.00  0.00    -0.293 NA
ATOM      2  N   UNL     1      32.787 -24.583 -13.059  0.00  0.00    -0.266 NA
ATOM      3  N   UNL     1      31.619 -23.656 -16.209  0.00  0.00    -0.316 NA
ATOM      4  N   UNL     1      32.525 -22.355 -17.928  0.00  0.00    -0.238 N 
ATOM      5  N   UNL     1      30.947 -24.948 -14.262  0.00  0.00    -0.296 N 
ATOM      6  C   UNL     1      33.988 -23.139 -14.758  0.00  0.00    +0.288 C 
ATOM      7  C   UNL     1      32.974 -23.915 -14.236  0.00  0.00    +0.215 C 
ATOM      8  C   UNL     1      31.818 -24.156 -14.965  0.00  0.00    +0.196 C 
ATOM      9  C   UNL     1      32.661 -22.912 -16.636  0.00  0.00    +0.207 C 
ATOM     10  C   UNL     1      31.558 -25.186 -13.122  0.00  0.00    +0.164 C 
ATOM     11  H   UNL     1      33.418 -24.623 -12.305  0.00  0.00    +0.126 HD
ATOM     12  H   UNL     1      31.673 -22.579 -18.369  0.00  0.00    +0.166 HD
ATOM     13  H   UNL     1      30.059 -25.266 -14.547  0.00  0.00    +0.150 HD
ENDROOT
BRANCH   4  14
ATOM     14  C   UNL     1      33.367 -21.543 -18.708  0.00  0.00    +0.059 C 
ATOM     15  C   UNL     1      35.041 -19.927 -20.255  0.00  0.00    +0.122 C 
ATOM     16  C   UNL     1      34.753 -21.700 -18.639  0.00  0.00    +0.017 C 
ATOM     17  C   UNL     1      32.822 -20.573 -19.554  0.00  0.00    +0.017 C 
ATOM     18  C   UNL     1      35.590 -20.893 -19.412  0.00  0.00    +0.021 C 
ATOM     19  C   UNL     1      33.658 -19.767 -20.326  0.00  0.00    +0.021 C 
BRANCH  15  20
ATOM     20  S   UNL     1      36.088 -18.917 -21.222  0.00  0.00    +0.057 S 
ATOM     21  O   UNL     1      37.450 -19.060 -20.727  0.00  0.00    -0.153 OA
ATOM     22  O   UNL     1      35.799 -19.165 -22.628  0.00  0.00    -0.153 OA
BRANCH  20  23
ATOM     23  N   UNL     1      35.511 -17.362 -20.811  0.00  0.00    -0.203 NA
ATOM     24  H   UNL     1      34.971 -17.417 -19.947  0.00  0.00    +0.144 HD
ATOM     25  H   UNL     1      34.915 -17.011 -21.561  0.00  0.00    +0.144 HD
ENDBRANCH  20  23
ENDBRANCH  15  20
ENDBRANCH   4  14
BRANCH   6  26
ATOM     26  O   UNL     1      35.152 -22.869 -14.082  0.00  0.00    -0.453 OA
BRANCH  26  27
ATOM     27  C   UNL     1      36.366 -23.087 -14.777  0.00  0.00    +0.208 C 
BRANCH  27  28
ATOM     28  C   UNL     1      37.182 -24.127 -14.011  0.00  0.00    +0.044 C 
ATOM     29  C   UNL     1      37.172 -23.825 -12.507  0.00  0.00    +0.004 C 
ATOM     30  C   UNL     1      36.654 -25.541 -14.288  0.00  0.00    +0.004 C 
ATOM     31  C   UNL     1      37.937 -24.881 -11.713  0.00  0.00    +0.000 C 
ATOM     32  C   UNL     1      37.421 -26.595 -13.491  0.00  0.00    +0.000 C 
ATOM     33  C   UNL     1      37.414 -26.286 -11.997  0.00  0.00    +0.000 C 
ENDBRANCH  27  28
ENDBRANCH  26  27
ENDBRANCH   6  26
TORSDOF 6
ENDMDL
MODEL 6
REMARK VINA RESULT:     -11.1      2.717      5.503
REMARK  Name = 4566
REMARK  6 active torsions:
REMARK  status: ('A' for Active; 'I' for Inactive)
REMARK    1  A    between atoms: N_4  and  C_14
REMARK    2  A    between atoms: C_6  and  O_26
REMARK    3  A    between atoms: C_15  and  S_20
REMARK    4  A    between atoms: S_20  and  N_23
REMARK    5  A    between atoms: O_26  and  C_27
REMARK    6  A    between atoms: C_27  and  C_28
REMARK                            x       y       z     vdW  Elec       q    Type
REMARK                         _______ _______ _______ _____ _____    ______ ____
ROOT
ATOM      1  N   UNL     1      34.976 -22.158 -17.320  0.00  0.00    -0.293 NA
ATOM      2  N   UNL     1      33.740 -20.591 -20.409  0.00  0.00    -0.266 NA
ATOM      3  N   UNL     1      36.661 -20.873 -18.530  0.00  0.00    -0.316 NA
ATOM      4  N   UNL     1      37.173 -21.976 -16.532  0.00  0.00    -0.238 N 
ATOM      5  N   UNL     1      35.833 -19.842 -20.570  0.00  0.00    -0.296 N 
ATOM      6  C   UNL     1      34.031 -21.868 -18.242  0.00  0.00    +0.288 C 
ATOM      7  C   UNL     1      34.394 -21.080 -19.314  0.00  0.00    +0.215 C 
ATOM      8  C   UNL     1      35.692 -20.600 -19.436  0.00  0.00    +0.196 C 
ATOM      9  C   UNL     1      36.216 -21.650 -17.519  0.00  0.00    +0.207 C 
ATOM     10  C   UNL     1      34.643 -19.856 -21.132  0.00  0.00    +0.164 C 
ATOM     11  H   UNL     1      32.794 -20.739 -20.638  0.00  0.00    +0.126 HD
ATOM     12  H   UNL     1      38.064 -21.592 -16.702  0.00  0.00    +0.166 HD
ATOM     13  H   UNL     1      36.645 -19.387 -20.892  0.00  0.00    +0.150 HD
ENDROOT
BRANCH   4  14
ATOM     14  C   UNL     1      37.103 -22.742 -15.355  0.00  0.00    +0.059 C 
ATOM     15  C   UNL     1      36.959 -24.264 -13.016  0.00  0.00    +0.122 C 
ATOM     16  C   UNL     1      38.067 -23.717 -15.092  0.00  0.00    +0.017 C 
ATOM     17  C   UNL     1      36.065 -22.531 -14.442  0.00  0.00    +0.017 C 
ATOM     18  C   UNL     1      37.996 -24.478 -13.925  0.00  0.00    +0.021 C 
ATOM     19  C   UNL     1      35.995 -23.291 -13.274  0.00  0.00    +0.021 C 
BRANCH  15  20
ATOM     20  S   UNL     1      36.870 -25.216 -11.555  0.00  0.00    +0.057 S 
ATOM     21  O   UNL     1      37.093 -26.613 -11.901  0.00  0.00    -0.153 OA
ATOM     22  O   UNL     1      37.699 -24.581 -10.539  0.00  0.00    -0.153 OA
BRANCH  20  23
ATOM     23  N   UNL     1      35.229 -25.008 -11.130  0.00  0.00    -0.203 NA
ATOM     24  H   UNL     1      35.140 -24.990 -10.114  0.00  0.00    +0.144 HD
ATOM     25  H   UNL     1      34.680 -25.782 -11.505  0.00  0.00    +0.144 HD
ENDBRANCH  20  23
ENDBRANCH  15  20
ENDBRANCH   4  14
BRANCH   6  26
ATOM     26  O   UNL     1      32.765 -22.369 -18.072  0.00  0.00    -0.453 OA
BRANCH  26  27
ATOM     27  C   UNL     1      32.616 -23.452 -17.173  0.00  0.00    +0.208 C 
BRANCH  27  28
ATOM     28  C   UNL     1      31.949 -22.937 -15.899  0.00  0.00    +0.044 C 
ATOM     29  C   UNL     1      30.444 -23.240 -15.914  0.00  0.00    +0.004 C 
ATOM     30  C   UNL     1      32.616 -23.540 -14.656  0.00  0.00    +0.004 C 
ATOM     31  C   UNL     1      29.763 -22.782 -14.627  0.00  0.00    +0.000 C 
ATOM     32  C   UNL     1      31.931 -23.081 -13.370  0.00  0.00    +0.000 C 
ATOM     33  C   UNL     1      30.434 -23.377 -13.393  0.00  0.00    +0.000 C 
ENDBRANCH  27  28
ENDBRANCH  26  27
ENDBRANCH   6  26
TORSDOF 6
ENDMDL
MODEL 7
REMARK VINA RESULT:     -10.2      3.671      7.768
REMARK  Name = 4566
REMARK  6 active torsions:
REMARK  status: ('A' for Active; 'I' for Inactive)
REMARK    1  A    between atoms: N_4  and  C_14
REMARK    2  A    between atoms: C_6  and  O_26
REMARK    3  A    between atoms: C_15  and  S_20
REMARK    4  A    between atoms: S_20  and  N_23
REMARK    5  A    between atoms: O_26  and  C_27
REMARK    6  A    between atoms: C_27  and  C_28
REMARK                            x       y       z     vdW  Elec       q    Type
REMARK                         _______ _______ _______ _____ _____    ______ ____
ROOT
ATOM      1  N   UNL     1      35.136 -22.864 -16.016  0.00  0.00    -0.293 NA
ATOM      2  N   UNL     1      35.235 -24.825 -12.906  0.00  0.00    -0.266 NA
ATOM      3  N   UNL     1      37.376 -23.163 -15.097  0.00  0.00    -0.316 NA
ATOM      4  N   UNL     1      37.020 -21.957 -17.069  0.00  0.00    -0.238 N 
ATOM      5  N   UNL     1      37.430 -24.460 -13.041  0.00  0.00    -0.296 N 
ATOM      6  C   UNL     1      34.581 -23.575 -15.009  0.00  0.00    +0.288 C 
ATOM      7  C   UNL     1      35.419 -24.083 -14.038  0.00  0.00    +0.215 C 
ATOM      8  C   UNL     1      36.790 -23.870 -14.101  0.00  0.00    +0.196 C 
ATOM      9  C   UNL     1      36.481 -22.705 -15.998  0.00  0.00    +0.207 C 
ATOM     10  C   UNL     1      36.469 -25.025 -12.343  0.00  0.00    +0.164 C 
ATOM     11  H   UNL     1      34.376 -25.155 -12.558  0.00  0.00    +0.126 HD
ATOM     12  H   UNL     1      37.999 -21.858 -17.030  0.00  0.00    +0.166 HD
ATOM     13  H   UNL     1      38.395 -24.461 -12.847  0.00  0.00    +0.150 HD
ENDROOT
BRANCH   4  14
ATOM     14  C   UNL     1      36.431 -21.326 -18.180  0.00  0.00    +0.059 C 
ATOM     15  C   UNL     1      35.260 -20.073 -20.385  0.00  0.00    +0.122 C 
ATOM     16  C   UNL     1      37.148 -20.374 -18.908  0.00  0.00    +0.017 C 
ATOM     17  C   UNL     1      35.126 -21.649 -18.560  0.00  0.00    +0.017 C 
ATOM     18  C   UNL     1      36.564 -19.748 -20.009  0.00  0.00    +0.021 C 
ATOM     19  C   UNL     1      34.542 -21.023 -19.661  0.00  0.00    +0.021 C 
BRANCH  15  20
ATOM     20  S   UNL     1      34.529 -19.289 -21.764  0.00  0.00    +0.057 S 
ATOM     21  O   UNL     1      35.195 -19.762 -22.969  0.00  0.00    -0.153 OA
ATOM     22  O   UNL     1      33.082 -19.402 -21.645  0.00  0.00    -0.153 OA
BRANCH  20  23
ATOM     23  N   UNL     1      34.975 -17.663 -21.488  0.00  0.00    -0.203 NA
ATOM     24  H   UNL     1      35.964 -17.619 -21.241  0.00  0.00    +0.144 HD
ATOM     25  H   UNL     1      34.417 -17.283 -20.723  0.00  0.00    +0.144 HD
ENDBRANCH  20  23
ENDBRANCH  15  20
ENDBRANCH   4  14
BRANCH   6  26
ATOM     26  O   UNL     1      33.220 -23.754 -14.996  0.00  0.00    -0.453 OA
BRANCH  26  27
ATOM     27  C   UNL     1      32.494 -23.102 -13.971  0.00  0.00    +0.208 C 
BRANCH  27  28
ATOM     28  C   UNL     1      31.002 -23.254 -14.263  0.00  0.00    +0.044 C 
ATOM     29  C   UNL     1      30.675 -22.774 -15.683  0.00  0.00    +0.004 C 
ATOM     30  C   UNL     1      30.556 -24.708 -14.060  0.00  0.00    +0.004 C 
ATOM     31  C   UNL     1      29.198 -22.966 -16.018  0.00  0.00    +0.000 C 
ATOM     32  C   UNL     1      29.078 -24.896 -14.397  0.00  0.00    +0.000 C 
ATOM     33  C   UNL     1      28.756 -24.411 -15.807  0.00  0.00    +0.000 C 
ENDBRANCH  27  28
ENDBRANCH  26  27
ENDBRANCH   6  26
TORSDOF 6
ENDMDL
MODEL 8
REMARK VINA RESULT:      -9.7      8.237     11.501
REMARK  Name = 4566
REMARK  6 active torsions:
REMARK  status: ('A' for Active; 'I' for Inactive)
REMARK    1  A    between atoms: N_4  and  C_14
REMARK    2  A    between atoms: C_6  and  O_26
REMARK    3  A    between atoms: C_15  and  S_20
REMARK    4  A    between atoms: S_20  and  N_23
REMARK    5  A    between atoms: O_26  and  C_27
REMARK    6  A    between atoms: C_27  and  C_28
REMARK                            x       y       z     vdW  Elec       q    Type
REMARK                         _______ _______ _______ _____ _____    ______ ____
ROOT
ATOM      1  N   UNL     1      34.288 -15.239 -23.019  0.00  0.00    -0.293 NA
ATOM      2  N   UNL     1      33.386 -12.135 -24.773  0.00  0.00    -0.266 NA
ATOM      3  N   UNL     1      34.224 -15.449 -25.448  0.00  0.00    -0.316 NA
ATOM      4  N   UNL     1      34.769 -17.268 -24.083  0.00  0.00    -0.238 N 
ATOM      5  N   UNL     1      33.626 -13.392 -26.598  0.00  0.00    -0.296 N 
ATOM      6  C   UNL     1      33.942 -13.934 -23.080  0.00  0.00    +0.288 C 
ATOM      7  C   UNL     1      33.734 -13.377 -24.325  0.00  0.00    +0.215 C 
ATOM      8  C   UNL     1      33.879 -14.139 -25.476  0.00  0.00    +0.196 C 
ATOM      9  C   UNL     1      34.406 -15.907 -24.191  0.00  0.00    +0.207 C 
ATOM     10  C   UNL     1      33.333 -12.193 -26.141  0.00  0.00    +0.164 C 
ATOM     11  H   UNL     1      33.206 -11.343 -24.216  0.00  0.00    +0.126 HD
ATOM     12  H   UNL     1      34.848 -17.728 -24.951  0.00  0.00    +0.166 HD
ATOM     13  H   UNL     1      33.658 -13.687 -27.537  0.00  0.00    +0.150 HD
ENDROOT
BRANCH   4  14
ATOM     14  C   UNL     1      35.040 -18.095 -22.979  0.00  0.00    +0.059 C 
ATOM     15  C   UNL     1      35.578 -19.741 -20.786  0.00  0.00    +0.122 C 
ATOM     16  C   UNL     1      36.256 -17.987 -22.302  0.00  0.00    +0.017 C 
ATOM     17  C   UNL     1      34.093 -19.032 -22.554  0.00  0.00    +0.017 C 
ATOM     18  C   UNL     1      36.526 -18.808 -21.206  0.00  0.00    +0.021 C 
ATOM     19  C   UNL     1      34.362 -19.853 -21.459  0.00  0.00    +0.021 C 
BRANCH  15  20
ATOM     20  S   UNL     1      35.915 -20.770 -19.415  0.00  0.00    +0.057 S 
ATOM     21  O   UNL     1      36.325 -22.076 -19.910  0.00  0.00    -0.153 OA
ATOM     22  O   UNL     1      36.776 -20.042 -18.493  0.00  0.00    -0.153 OA
BRANCH  20  23
ATOM     23  N   UNL     1      34.360 -20.905 -18.720  0.00  0.00    -0.203 NA
ATOM     24  H   UNL     1      33.657 -20.919 -19.459  0.00  0.00    +0.144 HD
ATOM     25  H   UNL     1      34.192 -20.108 -18.106  0.00  0.00    +0.144 HD
ENDBRANCH  20  23
ENDBRANCH  15  20
ENDBRANCH   4  14
BRANCH   6  26
ATOM     26  O   UNL     1      33.813 -13.228 -21.909  0.00  0.00    -0.453 OA
BRANCH  26  27
ATOM     27  C   UNL     1      32.660 -13.481 -21.129  0.00  0.00    +0.208 C 
BRANCH  27  28
ATOM     28  C   UNL     1      31.939 -12.157 -20.887  0.00  0.00    +0.044 C 
ATOM     29  C   UNL     1      32.126 -11.694 -19.436  0.00  0.00    +0.004 C 
ATOM     30  C   UNL     1      32.429 -11.085 -21.870  0.00  0.00    +0.004 C 
ATOM     31  C   UNL     1      31.458 -10.344 -19.183  0.00  0.00    +0.000 C 
ATOM     32  C   UNL     1      31.760  -9.736 -21.614  0.00  0.00    +0.000 C 
ATOM     33  C   UNL     1      31.942  -9.284 -20.168  0.00  0.00    +0.000 C 
ENDBRANCH  27  28
ENDBRANCH  26  27
ENDBRANCH   6  26
TORSDOF 6
ENDMDL
MODEL 9
REMARK VINA RESULT:      -9.5      4.157      8.427
REMARK  Name = 4566
REMARK  6 active torsions:
REMARK  status: ('A' for Active; 'I' for Inactive)
REMARK    1  A    between atoms: N_4  and  C_14
REMARK    2  A    between atoms: C_6  and  O_26
REMARK    3  A    between atoms: C_15  and  S_20
REMARK    4  A    between atoms: S_20  and  N_23
REMARK    5  A    between atoms: O_26  and  C_27
REMARK    6  A    between atoms: C_27  and  C_28
REMARK                            x       y       z     vdW  Elec       q    Type
REMARK                         _______ _______ _______ _____ _____    ______ ____
ROOT
ATOM      1  N   UNL     1      35.136 -22.178 -17.403  0.00  0.00    -0.293 NA
ATOM      2  N   UNL     1      35.274 -24.142 -14.296  0.00  0.00    -0.266 NA
ATOM      3  N   UNL     1      37.230 -21.950 -16.171  0.00  0.00    -0.316 NA
ATOM      4  N   UNL     1      36.871 -20.811 -18.182  0.00  0.00    -0.238 N 
ATOM      5  N   UNL     1      37.309 -23.252 -14.119  0.00  0.00    -0.296 N 
ATOM      6  C   UNL     1      34.636 -23.029 -16.480  0.00  0.00    +0.288 C 
ATOM      7  C   UNL     1      35.428 -23.346 -15.396  0.00  0.00    +0.215 C 
ATOM      8  C   UNL     1      36.700 -22.805 -15.263  0.00  0.00    +0.196 C 
ATOM      9  C   UNL     1      36.385 -21.697 -17.193  0.00  0.00    +0.207 C 
ATOM     10  C   UNL     1      36.427 -24.052 -13.561  0.00  0.00    +0.164 C 
ATOM     11  H   UNL     1      34.481 -24.680 -14.072  0.00  0.00    +0.126 HD
ATOM     12  H   UNL     1      37.781 -20.479 -18.005  0.00  0.00    +0.166 HD
ATOM     13  H   UNL     1      38.209 -23.024 -13.788  0.00  0.00    +0.150 HD
ENDROOT
BRANCH   4  14
ATOM     14  C   UNL     1      36.308 -20.311 -19.370  0.00  0.00    +0.059 C 
ATOM     15  C   UNL     1      35.188 -19.318 -21.729  0.00  0.00    +0.122 C 
ATOM     16  C   UNL     1      37.025 -19.412 -20.162  0.00  0.00    +0.017 C 
ATOM     17  C   UNL     1      35.028 -20.712 -19.763  0.00  0.00    +0.017 C 
ATOM     18  C   UNL     1      36.466 -18.915 -21.340  0.00  0.00    +0.021 C 
ATOM     19  C   UNL     1      34.470 -20.215 -20.941  0.00  0.00    +0.021 C 
BRANCH  15  20
ATOM     20  S   UNL     1      34.489 -18.696 -23.203  0.00  0.00    +0.057 S 
ATOM     21  O   UNL     1      33.041 -18.827 -23.117  0.00  0.00    -0.153 OA
ATOM     22  O   UNL     1      35.082 -17.395 -23.483  0.00  0.00    -0.153 OA
BRANCH  20  23
ATOM     23  N   UNL     1      35.079 -19.822 -24.344  0.00  0.00    -0.203 NA
ATOM     24  H   UNL     1      35.185 -20.734 -23.898  0.00  0.00    +0.144 HD
ATOM     25  H   UNL     1      35.985 -19.509 -24.694  0.00  0.00    +0.144 HD
ENDBRANCH  20  23
ENDBRANCH  15  20
ENDBRANCH   4  14
BRANCH   6  26
ATOM     26  O   UNL     1      33.372 -23.533 -16.661  0.00  0.00    -0.453 OA
BRANCH  26  27
ATOM     27  C   UNL     1      32.301 -22.806 -16.088  0.00  0.00    +0.208 C 
BRANCH  27  28
ATOM     28  C   UNL     1      31.191 -23.790 -15.721  0.00  0.00    +0.044 C 
ATOM     29  C   UNL     1      31.415 -24.361 -14.315  0.00  0.00    +0.004 C 
ATOM     30  C   UNL     1      29.815 -23.117 -15.824  0.00  0.00    +0.004 C 
ATOM     31  C   UNL     1      30.289 -25.307 -13.903  0.00  0.00    +0.000 C 
ATOM     32  C   UNL     1      28.692 -24.065 -15.410  0.00  0.00    +0.000 C 
ATOM     33  C   UNL     1      28.923 -24.637 -14.015  0.00  0.00    +0.000 C 
ENDBRANCH  27  28
ENDBRANCH  26  27
ENDBRANCH   6  26
TORSDOF 6
ENDMDL
