MODEL 1
REMARK VINA RESULT:     -11.7      0.000      0.000
REMARK  Name = 135565465
REMARK  7 active torsions:
REMARK  status: ('A' for Active; 'I' for Inactive)
REMARK    1  A    between atoms: N_2  and  C_9
REMARK    2  A    between atoms: N_2  and  O_21
REMARK    3  A    between atoms: C_3  and  C_23
REMARK    4  A    between atoms: C_10  and  C_14
REMARK    5  A    between atoms: C_23  and  C_24
REMARK    6  A    between atoms: C_24  and  C_25
REMARK    7  A    between atoms: C_25  and  N_27
REMARK                            x       y       z     vdW  Elec       q    Type
REMARK                         _______ _______ _______ _____ _____    ______ ____
ROOT
ATOM      1  O   UNL     1      35.991 -22.389 -17.026  0.00  0.00    -0.453 OA
ATOM      2  C   UNL     1      34.804 -20.229 -20.370  0.00  0.00    -0.040 C 
ATOM      3  C   UNL     1      33.825 -20.873 -19.606  0.00  0.00    +0.053 C 
ATOM      4  C   UNL     1      34.193 -21.608 -18.473  0.00  0.00    +0.036 C 
ATOM      5  C   UNL     1      36.146 -20.315 -20.009  0.00  0.00    -0.005 C 
ATOM      6  C   UNL     1      35.543 -21.690 -18.119  0.00  0.00    +0.143 C 
ATOM      7  C   UNL     1      36.517 -21.045 -18.883  0.00  0.00    +0.037 C 
ATOM      8  C   UNL     1      33.201 -22.307 -17.628  0.00  0.00    +0.110 C 
ATOM      9  C   UNL     1      35.067 -23.055 -16.241  0.00  0.00    +0.160 C 
ATOM     10  C   UNL     1      33.745 -23.050 -16.467  0.00  0.00    +0.060 C 
ENDROOT
BRANCH   9  13
ATOM     11  S   UNL     1      37.321 -23.219 -11.480  0.00  0.00    -0.091 S 
ATOM     12  N   UNL     1      35.702 -25.113 -15.202  0.00  0.00    -0.266 NA
ATOM     13  C   UNL     1      35.658 -23.771 -15.093  0.00  0.00    +0.093 C 
ATOM     14  C   UNL     1      36.119 -23.050 -14.007  0.00  0.00    +0.081 C 
ATOM     15  C   UNL     1      36.665 -23.806 -12.962  0.00  0.00    +0.011 C 
ATOM     16  C   UNL     1      36.730 -25.200 -13.032  0.00  0.00    +0.005 C 
ATOM     17  C   UNL     1      36.231 -25.828 -14.184  0.00  0.00    +0.152 C 
ATOM     18  C   UNL     1      37.327 -25.752 -11.850  0.00  0.00    +0.005 C 
ATOM     19  C   UNL     1      37.690 -24.792 -10.935  0.00  0.00    +0.035 C 
ENDBRANCH   9  13
BRANCH   8  20
ATOM     20  N   UNL     1      31.922 -22.308 -17.833  0.00  0.00    -0.135 NA
BRANCH  20  21
ATOM     21  O   UNL     1      31.286 -22.574 -16.620  0.00  0.00    -0.265 OA
ATOM     22  H   UNL     1      31.793 -22.753 -15.854  0.00  0.00    +0.247 HD
ENDBRANCH  20  21
ENDBRANCH   8  20
BRANCH   2  23
ATOM     23  C   UNL     1      34.406 -19.446 -21.576  0.00  0.00    +0.020 C 
BRANCH  23  24
ATOM     24  C   UNL     1      35.031 -18.043 -21.591  0.00  0.00    -0.018 C 
BRANCH  24  25
ATOM     25  C   UNL     1      35.778 -17.773 -22.897  0.00  0.00    -0.077 C 
BRANCH  25  27
ATOM     26  O   UNL     1      33.390 -14.506 -24.011  0.00  0.00    -0.358 OA
ATOM     27  N   UNL     1      35.349 -16.501 -23.473  0.00  0.00    +0.390 N 
ATOM     28  C   UNL     1      34.292 -16.710 -24.473  0.00  0.00    -0.045 C 
ATOM     29  C   UNL     1      34.876 -15.586 -22.425  0.00  0.00    -0.045 C 
ATOM     30  C   UNL     1      34.421 -14.271 -23.051  0.00  0.00    +0.119 C 
ATOM     31  C   UNL     1      33.853 -15.368 -25.051  0.00  0.00    +0.119 C 
ATOM     32  H   UNL     1      36.154 -16.079 -23.934  0.00  0.00    -0.079 HD
ENDBRANCH  25  27
ENDBRANCH  24  25
ENDBRANCH  23  24
ENDBRANCH   2  23
TORSDOF 7
ENDMDL
MODEL 2
REMARK VINA RESULT:     -11.7      4.666      8.476
REMARK  Name = 135565465
REMARK  7 active torsions:
REMARK  status: ('A' for Active; 'I' for Inactive)
REMARK    1  A    between atoms: N_2  and  C_9
REMARK    2  A    between atoms: N_2  and  O_21
REMARK    3  A    between atoms: C_3  and  C_23
REMARK    4  A    between atoms: C_10  and  C_14
REMARK    5  A    between atoms: C_23  and  C_24
REMARK    6  A    between atoms: C_24  and  C_25
REMARK    7  A    between atoms: C_25  and  N_27
REMARK                            x       y       z     vdW  Elec       q    Type
REMARK                         _______ _______ _______ _____ _____    ______ ____
ROOT
ATOM      1  O   UNL     1      34.943 -16.020 -21.516  0.00  0.00    -0.453 OA
ATOM      2  C   UNL     1      33.880 -12.618 -23.649  0.00  0.00    -0.040 C 
ATOM      3  C   UNL     1      33.871 -13.851 -24.308  0.00  0.00    +0.053 C 
ATOM      4  C   UNL     1      34.223 -15.016 -23.617  0.00  0.00    +0.036 C 
ATOM      5  C   UNL     1      34.239 -12.541 -22.306  0.00  0.00    -0.005 C 
ATOM      6  C   UNL     1      34.583 -14.931 -22.269  0.00  0.00    +0.143 C 
ATOM      7  C   UNL     1      34.591 -13.697 -21.614  0.00  0.00    +0.037 C 
ATOM      8  C   UNL     1      34.229 -16.348 -24.262  0.00  0.00    +0.110 C 
ATOM      9  C   UNL     1      34.962 -17.264 -22.120  0.00  0.00    +0.160 C 
ATOM     10  C   UNL     1      34.632 -17.485 -23.402  0.00  0.00    +0.060 C 
ENDROOT
BRANCH   9  13
ATOM     11  S   UNL     1      33.931 -21.494 -19.149  0.00  0.00    -0.091 S 
ATOM     12  N   UNL     1      36.674 -18.427 -20.920  0.00  0.00    -0.266 NA
ATOM     13  C   UNL     1      35.362 -18.365 -21.219  0.00  0.00    +0.093 C 
ATOM     14  C   UNL     1      34.400 -19.240 -20.748  0.00  0.00    +0.081 C 
ATOM     15  C   UNL     1      34.863 -20.253 -19.900  0.00  0.00    +0.011 C 
ATOM     16  C   UNL     1      36.216 -20.356 -19.562  0.00  0.00    +0.005 C 
ATOM     17  C   UNL     1      37.105 -19.411 -20.100  0.00  0.00    +0.152 C 
ATOM     18  C   UNL     1      36.448 -21.466 -18.685  0.00  0.00    +0.005 C 
ATOM     19  C   UNL     1      35.301 -22.161 -18.384  0.00  0.00    +0.035 C 
ENDBRANCH   9  13
BRANCH   8  20
ATOM     20  N   UNL     1      33.911 -16.574 -25.496  0.00  0.00    -0.135 NA
BRANCH  20  21
ATOM     21  O   UNL     1      32.908 -17.544 -25.518  0.00  0.00    -0.265 OA
ATOM     22  H   UNL     1      33.074 -18.381 -25.902  0.00  0.00    +0.247 HD
ENDBRANCH  20  21
ENDBRANCH   8  20
BRANCH   2  23
ATOM     23  C   UNL     1      33.503 -11.379 -24.391  0.00  0.00    +0.020 C 
BRANCH  23  24
ATOM     24  C   UNL     1      33.964 -10.105 -23.666  0.00  0.00    -0.018 C 
BRANCH  24  25
ATOM     25  C   UNL     1      32.779  -9.298 -23.138  0.00  0.00    -0.077 C 
BRANCH  25  27
ATOM     26  O   UNL     1      32.081  -7.921 -19.235  0.00  0.00    -0.358 OA
ATOM     27  N   UNL     1      32.933  -9.046 -21.707  0.00  0.00    +0.390 N 
ATOM     28  C   UNL     1      33.044  -7.605 -21.439  0.00  0.00    -0.045 C 
ATOM     29  C   UNL     1      31.807  -9.613 -20.953  0.00  0.00    -0.045 C 
ATOM     30  C   UNL     1      31.983  -9.327 -19.465  0.00  0.00    +0.119 C 
ATOM     31  C   UNL     1      33.193  -7.368 -19.939  0.00  0.00    +0.119 C 
ATOM     32  H   UNL     1      33.793  -9.502 -21.401  0.00  0.00    -0.079 HD
ENDBRANCH  25  27
ENDBRANCH  24  25
ENDBRANCH  23  24
ENDBRANCH   2  23
TORSDOF 7
ENDMDL
MODEL 3
REMARK VINA RESULT:     -11.7      4.186     10.978
REMARK  Name = 135565465
REMARK  7 active torsions:
REMARK  status: ('A' for Active; 'I' for Inactive)
REMARK    1  A    between atoms: N_2  and  C_9
REMARK    2  A    between atoms: N_2  and  O_21
REMARK    3  A    between atoms: C_3  and  C_23
REMARK    4  A    between atoms: C_10  and  C_14
REMARK    5  A    between atoms: C_23  and  C_24
REMARK    6  A    between atoms: C_24  and  C_25
REMARK    7  A    between atoms: C_25  and  N_27
REMARK                            x       y       z     vdW  Elec       q    Type
REMARK                         _______ _______ _______ _____ _____    ______ ____
ROOT
ATOM      1  O   UNL     1      33.921 -18.231 -21.712  0.00  0.00    -0.453 OA
ATOM      2  C   UNL     1      34.634 -21.385 -19.104  0.00  0.00    -0.040 C 
ATOM      3  C   UNL     1      35.725 -20.661 -19.593  0.00  0.00    +0.053 C 
ATOM      4  C   UNL     1      35.519 -19.592 -20.473  0.00  0.00    +0.036 C 
ATOM      5  C   UNL     1      33.338 -21.049 -19.488  0.00  0.00    -0.005 C 
ATOM      6  C   UNL     1      34.215 -19.262 -20.854  0.00  0.00    +0.143 C 
ATOM      7  C   UNL     1      33.127 -19.987 -20.363  0.00  0.00    +0.037 C 
ATOM      8  C   UNL     1      36.635 -18.791 -21.020  0.00  0.00    +0.110 C 
ATOM      9  C   UNL     1      34.964 -17.488 -22.235  0.00  0.00    +0.160 C 
ATOM     10  C   UNL     1      36.257 -17.697 -21.945  0.00  0.00    +0.060 C 
ENDROOT
BRANCH   9  13
ATOM     11  S   UNL     1      34.018 -12.431 -23.375  0.00  0.00    -0.091 S 
ATOM     12  N   UNL     1      34.156 -16.793 -24.376  0.00  0.00    -0.266 NA
ATOM     13  C   UNL     1      34.535 -16.406 -23.143  0.00  0.00    +0.093 C 
ATOM     14  C   UNL     1      34.544 -15.098 -22.694  0.00  0.00    +0.081 C 
ATOM     15  C   UNL     1      34.123 -14.134 -23.617  0.00  0.00    +0.011 C 
ATOM     16  C   UNL     1      33.721 -14.491 -24.907  0.00  0.00    +0.005 C 
ATOM     17  C   UNL     1      33.752 -15.850 -25.257  0.00  0.00    +0.152 C 
ATOM     18  C   UNL     1      33.334 -13.338 -25.668  0.00  0.00    +0.005 C 
ATOM     19  C   UNL     1      33.447 -12.166 -24.959  0.00  0.00    +0.035 C 
ENDBRANCH   9  13
BRANCH   8  20
ATOM     20  N   UNL     1      37.886 -18.980 -20.746  0.00  0.00    -0.135 NA
BRANCH  20  21
ATOM     21  O   UNL     1      38.649 -18.299 -21.696  0.00  0.00    -0.265 OA
ATOM     22  H   UNL     1      38.276 -17.582 -22.169  0.00  0.00    +0.247 HD
ENDBRANCH  20  21
ENDBRANCH   8  20
BRANCH   2  23
ATOM     23  C   UNL     1      34.860 -22.523 -18.166  0.00  0.00    +0.020 C 
BRANCH  23  24
ATOM     24  C   UNL     1      33.552 -23.022 -17.531  0.00  0.00    -0.018 C 
BRANCH  24  25
ATOM     25  C   UNL     1      33.690 -23.193 -16.019  0.00  0.00    -0.077 C 
BRANCH  25  27
ATOM     26  O   UNL     1      29.953 -22.765 -14.157  0.00  0.00    -0.358 OA
ATOM     27  N   UNL     1      32.393 -23.505 -15.424  0.00  0.00    +0.390 N 
ATOM     28  C   UNL     1      32.352 -23.093 -14.013  0.00  0.00    -0.045 C 
ATOM     29  C   UNL     1      31.306 -22.854 -16.169  0.00  0.00    -0.045 C 
ATOM     30  C   UNL     1      29.964 -23.183 -15.522  0.00  0.00    +0.119 C 
ATOM     31  C   UNL     1      30.986 -23.418 -13.418  0.00  0.00    +0.119 C 
ATOM     32  H   UNL     1      32.261 -24.515 -15.472  0.00  0.00    -0.079 HD
ENDBRANCH  25  27
ENDBRANCH  24  25
ENDBRANCH  23  24
ENDBRANCH   2  23
TORSDOF 7
ENDMDL
MODEL 4
REMARK VINA RESULT:     -11.6      4.442     12.133
REMARK  Name = 135565465
REMARK  7 active torsions:
REMARK  status: ('A' for Active; 'I' for Inactive)
REMARK    1  A    between atoms: N_2  and  C_9
REMARK    2  A    between atoms: N_2  and  O_21
REMARK    3  A    between atoms: C_3  and  C_23
REMARK    4  A    between atoms: C_10  and  C_14
REMARK    5  A    between atoms: C_23  and  C_24
REMARK    6  A    between atoms: C_24  and  C_25
REMARK    7  A    between atoms: C_25  and  N_27
REMARK                            x       y       z     vdW  Elec       q    Type
REMARK                         _______ _______ _______ _____ _____    ______ ____
ROOT
ATOM      1  O   UNL     1      34.415 -13.911 -21.963  0.00  0.00    -0.453 OA
ATOM      2  C   UNL     1      35.322 -17.955 -21.673  0.00  0.00    -0.040 C 
ATOM      3  C   UNL     1      34.991 -17.431 -22.927  0.00  0.00    +0.053 C 
ATOM      4  C   UNL     1      34.681 -16.072 -23.058  0.00  0.00    +0.036 C 
ATOM      5  C   UNL     1      35.345 -17.131 -20.551  0.00  0.00    -0.005 C 
ATOM      6  C   UNL     1      34.706 -15.252 -21.926  0.00  0.00    +0.143 C 
ATOM      7  C   UNL     1      35.037 -15.779 -20.675  0.00  0.00    +0.037 C 
ATOM      8  C   UNL     1      34.326 -15.463 -24.358  0.00  0.00    +0.110 C 
ATOM      9  C   UNL     1      34.070 -13.342 -23.176  0.00  0.00    +0.160 C 
ATOM     10  C   UNL     1      34.016 -14.015 -24.335  0.00  0.00    +0.060 C 
ENDROOT
BRANCH   9  13
ATOM     11  S   UNL     1      31.436  -9.186 -21.287  0.00  0.00    -0.091 S 
ATOM     12  N   UNL     1      34.524 -11.109 -23.900  0.00  0.00    -0.266 NA
ATOM     13  C   UNL     1      33.779 -11.896 -23.100  0.00  0.00    +0.093 C 
ATOM     14  C   UNL     1      32.792 -11.445 -22.243  0.00  0.00    +0.081 C 
ATOM     15  C   UNL     1      32.580 -10.061 -22.233  0.00  0.00    +0.011 C 
ATOM     16  C   UNL     1      33.331  -9.206 -23.046  0.00  0.00    +0.005 C 
ATOM     17  C   UNL     1      34.308  -9.774 -23.878  0.00  0.00    +0.152 C 
ATOM     18  C   UNL     1      32.936  -7.840 -22.865  0.00  0.00    +0.005 C 
ATOM     19  C   UNL     1      31.925  -7.691 -21.945  0.00  0.00    +0.035 C 
ENDBRANCH   9  13
BRANCH   8  20
ATOM     20  N   UNL     1      34.274 -16.100 -25.484  0.00  0.00    -0.135 NA
BRANCH  20  21
ATOM     21  O   UNL     1      33.097 -16.851 -25.507  0.00  0.00    -0.265 OA
ATOM     22  H   UNL     1      32.504 -16.769 -26.227  0.00  0.00    +0.247 HD
ENDBRANCH  20  21
ENDBRANCH   8  20
BRANCH   2  23
ATOM     23  C   UNL     1      35.652 -19.404 -21.539  0.00  0.00    +0.020 C 
BRANCH  23  24
ATOM     24  C   UNL     1      35.084 -20.013 -20.248  0.00  0.00    -0.018 C 
BRANCH  24  25
ATOM     25  C   UNL     1      36.154 -20.772 -19.466  0.00  0.00    -0.077 C 
BRANCH  25  27
ATOM     26  O   UNL     1      35.070 -23.351 -16.336  0.00  0.00    -0.358 OA
ATOM     27  N   UNL     1      35.603 -21.274 -18.209  0.00  0.00    +0.390 N 
ATOM     28  C   UNL     1      34.570 -22.289 -18.459  0.00  0.00    -0.045 C 
ATOM     29  C   UNL     1      36.663 -21.834 -17.360  0.00  0.00    -0.045 C 
ATOM     30  C   UNL     1      36.063 -22.362 -16.061  0.00  0.00    +0.119 C 
ATOM     31  C   UNL     1      34.019 -22.805 -17.133  0.00  0.00    +0.119 C 
ATOM     32  H   UNL     1      35.175 -20.488 -17.719  0.00  0.00    -0.079 HD
ENDBRANCH  25  27
ENDBRANCH  24  25
ENDBRANCH  23  24
ENDBRANCH   2  23
TORSDOF 7
ENDMDL
MODEL 5
REMARK VINA RESULT:     -11.4      2.951      4.045
REMARK  Name = 135565465
REMARK  7 active torsions:
REMARK  status: ('A' for Active; 'I' for Inactive)
REMARK    1  A    between atoms: N_2  and  C_9
REMARK    2  A    between atoms: N_2  and  O_21
REMARK    3  A    between atoms: C_3  and  C_23
REMARK    4  A    between atoms: C_10  and  C_14
REMARK    5  A    between atoms: C_23  and  C_24
REMARK    6  A    between atoms: C_24  and  C_25
REMARK    7  A    between atoms: C_25  and  N_27
REMARK                            x       y       z     vdW  Elec       q    Type
REMARK                         _______ _______ _______ _____ _____    ______ ____
ROOT
ATOM      1  O   UNL     1      32.635 -21.452 -18.518  0.00  0.00    -0.453 OA
ATOM      2  C   UNL     1      35.008 -19.548 -21.348  0.00  0.00    -0.040 C 
ATOM      3  C   UNL     1      35.631 -20.294 -20.343  0.00  0.00    +0.053 C 
ATOM      4  C   UNL     1      34.860 -20.948 -19.375  0.00  0.00    +0.036 C 
ATOM      5  C   UNL     1      33.619 -19.451 -21.392  0.00  0.00    -0.005 C 
ATOM      6  C   UNL     1      33.467 -20.845 -19.426  0.00  0.00    +0.143 C 
ATOM      7  C   UNL     1      32.847 -20.099 -20.431  0.00  0.00    +0.037 C 
ATOM      8  C   UNL     1      35.466 -21.752 -18.292  0.00  0.00    +0.110 C 
ATOM      9  C   UNL     1      33.200 -22.193 -17.496  0.00  0.00    +0.160 C 
ATOM     10  C   UNL     1      34.519 -22.378 -17.339  0.00  0.00    +0.060 C 
ENDROOT
BRANCH   9  13
ATOM     11  S   UNL     1      31.873 -24.949 -13.204  0.00  0.00    -0.091 S 
ATOM     12  N   UNL     1      30.921 -22.630 -16.915  0.00  0.00    -0.266 NA
ATOM     13  C   UNL     1      32.214 -22.803 -16.580  0.00  0.00    +0.093 C 
ATOM     14  C   UNL     1      32.657 -23.494 -15.468  0.00  0.00    +0.081 C 
ATOM     15  C   UNL     1      31.659 -24.040 -14.652  0.00  0.00    +0.011 C 
ATOM     16  C   UNL     1      30.304 -23.885 -14.961  0.00  0.00    +0.005 C 
ATOM     17  C   UNL     1      29.968 -23.163 -16.117  0.00  0.00    +0.152 C 
ATOM     18  C   UNL     1      29.473 -24.528 -13.986  0.00  0.00    +0.005 C 
ATOM     19  C   UNL     1      30.193 -25.139 -12.987  0.00  0.00    +0.035 C 
ENDBRANCH   9  13
BRANCH   8  20
ATOM     20  N   UNL     1      36.737 -21.940 -18.130  0.00  0.00    -0.135 NA
BRANCH  20  21
ATOM     21  O   UNL     1      36.943 -22.456 -16.850  0.00  0.00    -0.265 OA
ATOM     22  H   UNL     1      37.094 -21.876 -16.130  0.00  0.00    +0.247 HD
ENDBRANCH  20  21
ENDBRANCH   8  20
BRANCH   2  23
ATOM     23  C   UNL     1      35.835 -18.853 -22.377  0.00  0.00    +0.020 C 
BRANCH  23  24
ATOM     24  C   UNL     1      35.090 -17.675 -23.023  0.00  0.00    -0.018 C 
BRANCH  24  25
ATOM     25  C   UNL     1      35.387 -16.359 -22.304  0.00  0.00    -0.077 C 
BRANCH  25  27
ATOM     26  O   UNL     1      33.068 -13.374 -24.129  0.00  0.00    -0.358 OA
ATOM     27  N   UNL     1      34.989 -15.226 -23.137  0.00  0.00    +0.390 N 
ATOM     28  C   UNL     1      33.966 -15.628 -24.112  0.00  0.00    -0.045 C 
ATOM     29  C   UNL     1      34.487 -14.121 -22.309  0.00  0.00    -0.045 C 
ATOM     30  C   UNL     1      34.067 -12.955 -23.198  0.00  0.00    +0.119 C 
ATOM     31  C   UNL     1      33.559 -14.427 -24.960  0.00  0.00    +0.119 C 
ATOM     32  H   UNL     1      35.814 -14.906 -23.643  0.00  0.00    -0.079 HD
ENDBRANCH  25  27
ENDBRANCH  24  25
ENDBRANCH  23  24
ENDBRANCH   2  23
TORSDOF 7
ENDMDL
MODEL 6
REMARK VINA RESULT:     -11.2      4.906     12.199
REMARK  Name = 135565465
REMARK  7 active torsions:
REMARK  status: ('A' for Active; 'I' for Inactive)
REMARK    1  A    between atoms: N_2  and  C_9
REMARK    2  A    between atoms: N_2  and  O_21
REMARK    3  A    between atoms: C_3  and  C_23
REMARK    4  A    between atoms: C_10  and  C_14
REMARK    5  A    between atoms: C_23  and  C_24
REMARK    6  A    between atoms: C_24  and  C_25
REMARK    7  A    between atoms: C_25  and  N_27
REMARK                            x       y       z     vdW  Elec       q    Type
REMARK                         _______ _______ _______ _____ _____    ______ ____
ROOT
ATOM      1  O   UNL     1      33.897 -13.622 -21.497  0.00  0.00    -0.453 OA
ATOM      2  C   UNL     1      35.493 -17.452 -21.713  0.00  0.00    -0.040 C 
ATOM      3  C   UNL     1      35.090 -16.826 -22.897  0.00  0.00    +0.053 C 
ATOM      4  C   UNL     1      34.550 -15.536 -22.858  0.00  0.00    +0.036 C 
ATOM      5  C   UNL     1      35.358 -16.797 -20.491  0.00  0.00    -0.005 C 
ATOM      6  C   UNL     1      34.417 -14.886 -21.628  0.00  0.00    +0.143 C 
ATOM      7  C   UNL     1      34.820 -15.514 -20.447  0.00  0.00    +0.037 C 
ATOM      8  C   UNL     1      34.110 -14.825 -24.079  0.00  0.00    +0.110 C 
ATOM      9  C   UNL     1      33.473 -12.961 -22.635  0.00  0.00    +0.160 C 
ATOM     10  C   UNL     1      33.551 -13.468 -23.875  0.00  0.00    +0.060 C 
ENDROOT
BRANCH   9  13
ATOM     11  S   UNL     1      33.389  -7.739 -23.347  0.00  0.00    -0.091 S 
ATOM     12  N   UNL     1      31.904 -11.546 -21.513  0.00  0.00    -0.266 NA
ATOM     13  C   UNL     1      32.934 -11.610 -22.380  0.00  0.00    +0.093 C 
ATOM     14  C   UNL     1      33.496 -10.521 -23.021  0.00  0.00    +0.081 C 
ATOM     15  C   UNL     1      32.926  -9.278 -22.723  0.00  0.00    +0.011 C 
ATOM     16  C   UNL     1      31.856  -9.165 -21.830  0.00  0.00    +0.005 C 
ATOM     17  C   UNL     1      31.364 -10.338 -21.236  0.00  0.00    +0.152 C 
ATOM     18  C   UNL     1      31.444  -7.799 -21.684  0.00  0.00    +0.005 C 
ATOM     19  C   UNL     1      32.188  -6.930 -22.446  0.00  0.00    +0.035 C 
ENDBRANCH   9  13
BRANCH   8  20
ATOM     20  N   UNL     1      34.182 -15.302 -25.280  0.00  0.00    -0.135 NA
BRANCH  20  21
ATOM     21  O   UNL     1      33.091 -16.148 -25.481  0.00  0.00    -0.265 OA
ATOM     22  H   UNL     1      32.584 -16.440 -24.750  0.00  0.00    +0.247 HD
ENDBRANCH  20  21
ENDBRANCH   8  20
BRANCH   2  23
ATOM     23  C   UNL     1      36.068 -18.827 -21.761  0.00  0.00    +0.020 C 
BRANCH  23  24
ATOM     24  C   UNL     1      35.386 -19.778 -20.766  0.00  0.00    -0.018 C 
BRANCH  24  25
ATOM     25  C   UNL     1      36.389 -20.379 -19.782  0.00  0.00    -0.077 C 
BRANCH  25  27
ATOM     26  O   UNL     1      34.890 -23.131 -16.990  0.00  0.00    -0.358 OA
ATOM     27  N   UNL     1      35.692 -20.947 -18.630  0.00  0.00    +0.390 N 
ATOM     28  C   UNL     1      34.653 -21.893 -19.062  0.00  0.00    -0.045 C 
ATOM     29  C   UNL     1      36.637 -21.616 -17.726  0.00  0.00    -0.045 C 
ATOM     30  C   UNL     1      35.886 -22.212 -16.539  0.00  0.00    +0.119 C 
ATOM     31  C   UNL     1      33.948 -22.480 -17.843  0.00  0.00    +0.119 C 
ATOM     32  H   UNL     1      35.246 -20.181 -18.126  0.00  0.00    -0.079 HD
ENDBRANCH  25  27
ENDBRANCH  24  25
ENDBRANCH  23  24
ENDBRANCH   2  23
TORSDOF 7
ENDMDL
MODEL 7
REMARK VINA RESULT:     -11.1      1.627      2.169
REMARK  Name = 135565465
REMARK  7 active torsions:
REMARK  status: ('A' for Active; 'I' for Inactive)
REMARK    1  A    between atoms: N_2  and  C_9
REMARK    2  A    between atoms: N_2  and  O_21
REMARK    3  A    between atoms: C_3  and  C_23
REMARK    4  A    between atoms: C_10  and  C_14
REMARK    5  A    between atoms: C_23  and  C_24
REMARK    6  A    between atoms: C_24  and  C_25
REMARK    7  A    between atoms: C_25  and  N_27
REMARK                            x       y       z     vdW  Elec       q    Type
REMARK                         _______ _______ _______ _____ _____    ______ ____
ROOT
ATOM      1  O   UNL     1      36.532 -21.007 -18.138  0.00  0.00    -0.453 OA
ATOM      2  C   UNL     1      35.624 -18.964 -21.640  0.00  0.00    -0.040 C 
ATOM      3  C   UNL     1      34.637 -19.763 -21.055  0.00  0.00    +0.053 C 
ATOM      4  C   UNL     1      34.911 -20.463 -19.875  0.00  0.00    +0.036 C 
ATOM      5  C   UNL     1      36.883 -18.860 -21.053  0.00  0.00    -0.005 C 
ATOM      6  C   UNL     1      36.177 -20.355 -19.293  0.00  0.00    +0.143 C 
ATOM      7  C   UNL     1      37.161 -19.556 -19.879  0.00  0.00    +0.037 C 
ATOM      8  C   UNL     1      33.904 -21.321 -19.212  0.00  0.00    +0.110 C 
ATOM      9  C   UNL     1      35.597 -21.820 -17.524  0.00  0.00    +0.160 C 
ATOM     10  C   UNL     1      34.346 -22.004 -17.974  0.00  0.00    +0.060 C 
ENDROOT
BRANCH   9  13
ATOM     11  S   UNL     1      34.857 -24.234 -12.897  0.00  0.00    -0.091 S 
ATOM     12  N   UNL     1      37.421 -22.548 -16.160  0.00  0.00    -0.266 NA
ATOM     13  C   UNL     1      36.083 -22.469 -16.290  0.00  0.00    +0.093 C 
ATOM     14  C   UNL     1      35.170 -22.945 -15.367  0.00  0.00    +0.081 C 
ATOM     15  C   UNL     1      35.714 -23.546 -14.225  0.00  0.00    +0.011 C 
ATOM     16  C   UNL     1      37.097 -23.650 -14.049  0.00  0.00    +0.005 C 
ATOM     17  C   UNL     1      37.932 -23.132 -15.052  0.00  0.00    +0.152 C 
ATOM     18  C   UNL     1      37.415 -24.299 -12.811  0.00  0.00    +0.005 C 
ATOM     19  C   UNL     1      36.299 -24.664 -12.095  0.00  0.00    +0.035 C 
ENDBRANCH   9  13
BRANCH   8  20
ATOM     20  N   UNL     1      32.695 -21.505 -19.635  0.00  0.00    -0.135 NA
BRANCH  20  21
ATOM     21  O   UNL     1      31.942 -20.376 -19.311  0.00  0.00    -0.265 OA
ATOM     22  H   UNL     1      32.306 -19.521 -19.429  0.00  0.00    +0.247 HD
ENDBRANCH  20  21
ENDBRANCH   8  20
BRANCH   2  23
ATOM     23  C   UNL     1      35.327 -18.219 -22.898  0.00  0.00    +0.020 C 
BRANCH  23  24
ATOM     24  C   UNL     1      35.783 -16.754 -22.828  0.00  0.00    -0.018 C 
BRANCH  24  25
ATOM     25  C   UNL     1      34.648 -15.831 -22.384  0.00  0.00    -0.077 C 
BRANCH  25  27
ATOM     26  O   UNL     1      33.163 -12.466 -24.406  0.00  0.00    -0.358 OA
ATOM     27  N   UNL     1      34.556 -14.676 -23.275  0.00  0.00    +0.390 N 
ATOM     28  C   UNL     1      33.489 -14.866 -24.268  0.00  0.00    -0.045 C 
ATOM     29  C   UNL     1      34.317 -13.445 -22.510  0.00  0.00    -0.045 C 
ATOM     30  C   UNL     1      34.211 -12.256 -23.460  0.00  0.00    +0.119 C 
ATOM     31  C   UNL     1      33.404 -13.644 -25.177  0.00  0.00    +0.119 C 
ATOM     32  H   UNL     1      35.445 -14.588 -23.765  0.00  0.00    -0.079 HD
ENDBRANCH  25  27
ENDBRANCH  24  25
ENDBRANCH  23  24
ENDBRANCH   2  23
TORSDOF 7
ENDMDL
MODEL 8
REMARK VINA RESULT:     -11.0      3.786     11.193
REMARK  Name = 135565465
REMARK  7 active torsions:
REMARK  status: ('A' for Active; 'I' for Inactive)
REMARK    1  A    between atoms: N_2  and  C_9
REMARK    2  A    between atoms: N_2  and  O_21
REMARK    3  A    between atoms: C_3  and  C_23
REMARK    4  A    between atoms: C_10  and  C_14
REMARK    5  A    between atoms: C_23  and  C_24
REMARK    6  A    between atoms: C_24  and  C_25
REMARK    7  A    between atoms: C_25  and  N_27
REMARK                            x       y       z     vdW  Elec       q    Type
REMARK                         _______ _______ _______ _____ _____    ______ ____
ROOT
ATOM      1  O   UNL     1      33.911 -18.304 -21.663  0.00  0.00    -0.453 OA
ATOM      2  C   UNL     1      34.606 -21.505 -19.107  0.00  0.00    -0.040 C 
ATOM      3  C   UNL     1      35.700 -20.768 -19.571  0.00  0.00    +0.053 C 
ATOM      4  C   UNL     1      35.499 -19.683 -20.433  0.00  0.00    +0.036 C 
ATOM      5  C   UNL     1      33.313 -21.165 -19.499  0.00  0.00    -0.005 C 
ATOM      6  C   UNL     1      34.199 -19.350 -20.822  0.00  0.00    +0.143 C 
ATOM      7  C   UNL     1      33.108 -20.087 -20.357  0.00  0.00    +0.037 C 
ATOM      8  C   UNL     1      36.619 -18.868 -20.953  0.00  0.00    +0.110 C 
ATOM      9  C   UNL     1      34.957 -17.549 -22.161  0.00  0.00    +0.160 C 
ATOM     10  C   UNL     1      36.248 -17.758 -21.861  0.00  0.00    +0.060 C 
ENDROOT
BRANCH   9  13
ATOM     11  S   UNL     1      34.048 -12.468 -23.230  0.00  0.00    -0.091 S 
ATOM     12  N   UNL     1      34.149 -16.818 -24.291  0.00  0.00    -0.266 NA
ATOM     13  C   UNL     1      34.534 -16.450 -23.054  0.00  0.00    +0.093 C 
ATOM     14  C   UNL     1      34.555 -15.149 -22.586  0.00  0.00    +0.081 C 
ATOM     15  C   UNL     1      34.139 -14.169 -23.495  0.00  0.00    +0.011 C 
ATOM     16  C   UNL     1      33.731 -14.506 -24.790  0.00  0.00    +0.005 C 
ATOM     17  C   UNL     1      33.750 -15.860 -25.157  0.00  0.00    +0.152 C 
ATOM     18  C   UNL     1      33.351 -13.340 -25.533  0.00  0.00    +0.005 C 
ATOM     19  C   UNL     1      33.475 -12.178 -24.809  0.00  0.00    +0.035 C 
ENDBRANCH   9  13
BRANCH   8  20
ATOM     20  N   UNL     1      37.868 -19.058 -20.669  0.00  0.00    -0.135 NA
BRANCH  20  21
ATOM     21  O   UNL     1      38.638 -18.344 -21.587  0.00  0.00    -0.265 OA
ATOM     22  H   UNL     1      39.537 -18.569 -21.719  0.00  0.00    +0.247 HD
ENDBRANCH  20  21
ENDBRANCH   8  20
BRANCH   2  23
ATOM     23  C   UNL     1      34.825 -22.659 -18.189  0.00  0.00    +0.020 C 
BRANCH  23  24
ATOM     24  C   UNL     1      35.214 -22.210 -16.772  0.00  0.00    -0.018 C 
BRANCH  24  25
ATOM     25  C   UNL     1      34.509 -23.045 -15.703  0.00  0.00    -0.077 C 
BRANCH  25  27
ATOM     26  O   UNL     1      36.734 -24.559 -12.482  0.00  0.00    -0.358 OA
ATOM     27  N   UNL     1      35.329 -23.119 -14.496  0.00  0.00    +0.390 N 
ATOM     28  C   UNL     1      34.620 -23.835 -13.426  0.00  0.00    -0.045 C 
ATOM     29  C   UNL     1      36.613 -23.775 -14.775  0.00  0.00    -0.045 C 
ATOM     30  C   UNL     1      37.445 -23.852 -13.498  0.00  0.00    +0.119 C 
ATOM     31  C   UNL     1      35.499 -23.909 -12.181  0.00  0.00    +0.119 C 
ATOM     32  H   UNL     1      35.511 -22.165 -14.183  0.00  0.00    -0.079 HD
ENDBRANCH  25  27
ENDBRANCH  24  25
ENDBRANCH  23  24
ENDBRANCH   2  23
TORSDOF 7
ENDMDL
MODEL 9
REMARK VINA RESULT:     -10.9      3.495      9.718
REMARK  Name = 135565465
REMARK  7 active torsions:
REMARK  status: ('A' for Active; 'I' for Inactive)
REMARK    1  A    between atoms: N_2  and  C_9
REMARK    2  A    between atoms: N_2  and  O_21
REMARK    3  A    between atoms: C_3  and  C_23
REMARK    4  A    between atoms: C_10  and  C_14
REMARK    5  A    between atoms: C_23  and  C_24
REMARK    6  A    between atoms: C_24  and  C_25
REMARK    7  A    between atoms: C_25  and  N_27
REMARK                            x       y       z     vdW  Elec       q    Type
REMARK                         _______ _______ _______ _____ _____    ______ ____
ROOT
ATOM      1  O   UNL     1      36.033 -20.421 -18.803  0.00  0.00    -0.453 OA
ATOM      2  C   UNL     1      36.262 -23.120 -15.654  0.00  0.00    -0.040 C 
ATOM      3  C   UNL     1      35.098 -23.091 -16.428  0.00  0.00    +0.053 C 
ATOM      4  C   UNL     1      34.990 -22.194 -17.497  0.00  0.00    +0.036 C 
ATOM      5  C   UNL     1      37.318 -22.259 -15.940  0.00  0.00    -0.005 C 
ATOM      6  C   UNL     1      36.054 -21.332 -17.777  0.00  0.00    +0.143 C 
ATOM      7  C   UNL     1      37.216 -21.364 -17.002  0.00  0.00    +0.037 C 
ATOM      8  C   UNL     1      33.784 -22.121 -18.350  0.00  0.00    +0.110 C 
ATOM      9  C   UNL     1      34.902 -20.342 -19.595  0.00  0.00    +0.160 C 
ATOM     10  C   UNL     1      33.817 -21.115 -19.437  0.00  0.00    +0.060 C 
ENDROOT
BRANCH   9  13
ATOM     11  S   UNL     1      33.765 -18.509 -24.403  0.00  0.00    -0.091 S 
ATOM     12  N   UNL     1      35.732 -18.244 -20.388  0.00  0.00    -0.266 NA
ATOM     13  C   UNL     1      34.988 -19.332 -20.668  0.00  0.00    +0.093 C 
ATOM     14  C   UNL     1      34.325 -19.550 -21.862  0.00  0.00    +0.081 C 
ATOM     15  C   UNL     1      34.459 -18.544 -22.826  0.00  0.00    +0.011 C 
ATOM     16  C   UNL     1      35.220 -17.398 -22.578  0.00  0.00    +0.005 C 
ATOM     17  C   UNL     1      35.851 -17.281 -21.329  0.00  0.00    +0.152 C 
ATOM     18  C   UNL     1      35.211 -16.514 -23.708  0.00  0.00    +0.005 C 
ATOM     19  C   UNL     1      34.464 -16.994 -24.757  0.00  0.00    +0.035 C 
ENDBRANCH   9  13
BRANCH   8  20
ATOM     20  N   UNL     1      32.732 -22.863 -18.210  0.00  0.00    -0.135 NA
BRANCH  20  21
ATOM     21  O   UNL     1      31.764 -22.125 -17.527  0.00  0.00    -0.265 OA
ATOM     22  H   UNL     1      31.354 -22.483 -16.765  0.00  0.00    +0.247 HD
ENDBRANCH  20  21
ENDBRANCH   8  20
BRANCH   2  23
ATOM     23  C   UNL     1      36.371 -24.079 -14.516  0.00  0.00    +0.020 C 
BRANCH  23  24
ATOM     24  C   UNL     1      35.000 -24.602 -14.062  0.00  0.00    -0.018 C 
BRANCH  24  25
ATOM     25  C   UNL     1      34.441 -23.783 -12.900  0.00  0.00    -0.077 C 
BRANCH  25  27
ATOM     26  O   UNL     1      30.511 -24.114 -14.337  0.00  0.00    -0.358 OA
ATOM     27  N   UNL     1      32.984 -23.710 -12.985  0.00  0.00    +0.390 N 
ATOM     28  C   UNL     1      32.568 -22.850 -14.102  0.00  0.00    -0.045 C 
ATOM     29  C   UNL     1      32.402 -25.050 -13.140  0.00  0.00    -0.045 C 
ATOM     30  C   UNL     1      30.883 -24.949 -13.240  0.00  0.00    +0.119 C 
ATOM     31  C   UNL     1      31.045 -22.799 -14.178  0.00  0.00    +0.119 C 
ATOM     32  H   UNL     1      32.640 -23.304 -12.115  0.00  0.00    -0.079 HD
ENDBRANCH  25  27
ENDBRANCH  24  25
ENDBRANCH  23  24
ENDBRANCH   2  23
TORSDOF 7
ENDMDL
