MODEL 1
REMARK VINA RESULT:     -12.2      0.000      0.000
REMARK  Name = 1712
REMARK  5 active torsions:
REMARK  status: ('A' for Active; 'I' for Inactive)
REMARK    1  A    between atoms: C_1  and  N_18
REMARK    2  A    between atoms: C_2  and  S_7
REMARK    3  A    between atoms: S_7  and  N_10
REMARK    4  A    between atoms: N_18  and  C_20
REMARK    5  A    between atoms: C_20  and  C_26
REMARK                            x       y       z     vdW  Elec       q    Type
REMARK                         _______ _______ _______ _____ _____    ______ ____
ROOT
ATOM      1  C   UNL     1      35.168 -18.754 -20.884  0.00  0.00    +0.045 C 
ATOM      2  C   UNL     1      34.533 -17.245 -23.172  0.00  0.00    +0.125 C 
ATOM      3  C   UNL     1      35.346 -17.358 -20.899  0.00  0.00    +0.016 C 
ATOM      4  C   UNL     1      34.666 -19.376 -22.041  0.00  0.00    +0.016 C 
ATOM      5  C   UNL     1      35.031 -16.610 -22.034  0.00  0.00    +0.021 C 
ATOM      6  C   UNL     1      34.351 -18.628 -23.175  0.00  0.00    +0.021 C 
ENDROOT
BRANCH   2   7
ATOM      7  S   UNL     1      34.140 -16.309 -24.592  0.00  0.00    +0.075 S 
ATOM      8  O   UNL     1      33.307 -17.139 -25.455  0.00  0.00    -0.150 OA
ATOM      9  O   UNL     1      35.369 -15.744 -25.134  0.00  0.00    -0.150 OA
BRANCH   7  10
ATOM     10  N   UNL     1      33.156 -15.045 -23.956  0.00  0.00    -0.199 N 
ATOM     11  H   UNL     1      32.393 -15.245 -23.367  0.00  0.00    +0.175 HD
ATOM     12  N   UNL     1      33.301 -13.364 -25.605  0.00  0.00    -0.228 NA
ATOM     13  C   UNL     1      33.483 -13.690 -24.310  0.00  0.00    +0.147 C 
ATOM     14  C   UNL     1      33.949 -12.827 -23.338  0.00  0.00    +0.036 C 
ATOM     15  C   UNL     1      34.253 -11.526 -23.726  0.00  0.00    +0.005 C 
ATOM     16  C   UNL     1      33.607 -12.092 -25.944  0.00  0.00    +0.100 C 
ATOM     17  C   UNL     1      34.081 -11.144 -25.052  0.00  0.00    +0.021 C 
ENDBRANCH   7  10
ENDBRANCH   2   7
BRANCH   1  18
ATOM     18  N   UNL     1      35.481 -19.497 -19.755  0.00  0.00    -0.328 N 
ATOM     19  H   UNL     1      35.630 -19.017 -18.909  0.00  0.00    +0.147 HD
BRANCH  18  20
ATOM     20  C   UNL     1      35.602 -20.934 -19.750  0.00  0.00    +0.127 C 
BRANCH  20  26
ATOM     21  S   UNL     1      37.328 -22.096 -16.803  0.00  0.00    -0.104 S 
ATOM     22  O   UNL     1      32.717 -21.088 -20.295  0.00  0.00    -0.210 OA
ATOM     23  N   UNL     1      32.401 -22.115 -18.229  0.00  0.00    -0.333 NA
ATOM     24  N   UNL     1      36.421 -23.245 -14.662  0.00  0.00    -0.262 NA
ATOM     25  C   UNL     1      34.642 -22.078 -17.639  0.00  0.00    +0.033 C 
ATOM     26  C   UNL     1      34.583 -21.513 -18.842  0.00  0.00    +0.092 C 
ATOM     27  C   UNL     1      33.252 -22.433 -17.309  0.00  0.00    +0.142 C 
ATOM     28  C   UNL     1      35.653 -22.376 -16.712  0.00  0.00    +0.114 C 
ATOM     29  C   UNL     1      33.141 -21.530 -19.236  0.00  0.00    +0.202 C 
ATOM     30  C   UNL     1      35.369 -22.993 -15.504  0.00  0.00    +0.069 C 
ATOM     31  C   UNL     1      32.989 -23.093 -16.002  0.00  0.00    +0.034 C 
ATOM     32  C   UNL     1      34.022 -23.343 -15.172  0.00  0.00    +0.018 C 
ATOM     33  C   UNL     1      37.517 -22.812 -15.248  0.00  0.00    +0.183 C 
ENDBRANCH  20  26
ENDBRANCH  18  20
ENDBRANCH   1  18
TORSDOF 5
ENDMDL
MODEL 2
REMARK VINA RESULT:     -12.0      2.444     10.372
REMARK  Name = 1712
REMARK  5 active torsions:
REMARK  status: ('A' for Active; 'I' for Inactive)
REMARK    1  A    between atoms: C_1  and  N_18
REMARK    2  A    between atoms: C_2  and  S_7
REMARK    3  A    between atoms: S_7  and  N_10
REMARK    4  A    between atoms: N_18  and  C_20
REMARK    5  A    between atoms: C_20  and  C_26
REMARK                            x       y       z     vdW  Elec       q    Type
REMARK                         _______ _______ _______ _____ _____    ______ ____
ROOT
ATOM      1  C   UNL     1      35.280 -19.953 -20.338  0.00  0.00    +0.045 C 
ATOM      2  C   UNL     1      34.308 -21.913 -18.569  0.00  0.00    +0.125 C 
ATOM      3  C   UNL     1      33.897 -20.162 -20.182  0.00  0.00    +0.016 C 
ATOM      4  C   UNL     1      36.164 -20.750 -19.589  0.00  0.00    +0.016 C 
ATOM      5  C   UNL     1      33.415 -21.133 -19.305  0.00  0.00    +0.021 C 
ATOM      6  C   UNL     1      35.682 -21.721 -18.711  0.00  0.00    +0.021 C 
ENDROOT
BRANCH   2   7
ATOM      7  S   UNL     1      33.705 -23.130 -17.472  0.00  0.00    +0.075 S 
ATOM      8  O   UNL     1      34.578 -23.149 -16.304  0.00  0.00    -0.150 OA
ATOM      9  O   UNL     1      33.498 -24.367 -18.215  0.00  0.00    -0.150 OA
BRANCH   7  10
ATOM     10  N   UNL     1      32.180 -22.487 -16.989  0.00  0.00    -0.199 N 
ATOM     11  H   UNL     1      31.740 -21.780 -17.514  0.00  0.00    +0.175 HD
ATOM     12  N   UNL     1      32.207 -22.734 -14.644  0.00  0.00    -0.228 NA
ATOM     13  C   UNL     1      31.571 -23.013 -15.798  0.00  0.00    +0.147 C 
ATOM     14  C   UNL     1      30.407 -23.751 -15.898  0.00  0.00    +0.036 C 
ATOM     15  C   UNL     1      29.853 -24.240 -14.721  0.00  0.00    +0.005 C 
ATOM     16  C   UNL     1      31.640 -23.227 -13.520  0.00  0.00    +0.100 C 
ATOM     17  C   UNL     1      30.475 -23.977 -13.505  0.00  0.00    +0.021 C 
ENDBRANCH   7  10
ENDBRANCH   2   7
BRANCH   1  18
ATOM     18  N   UNL     1      35.759 -18.987 -21.210  0.00  0.00    -0.328 N 
ATOM     19  H   UNL     1      36.470 -19.243 -21.842  0.00  0.00    +0.147 HD
BRANCH  18  20
ATOM     20  C   UNL     1      35.279 -17.628 -21.243  0.00  0.00    +0.127 C 
BRANCH  20  26
ATOM     21  S   UNL     1      34.573 -14.090 -21.321  0.00  0.00    -0.104 S 
ATOM     22  O   UNL     1      34.992 -19.545 -23.453  0.00  0.00    -0.210 OA
ATOM     23  N   UNL     1      34.254 -17.818 -24.830  0.00  0.00    -0.333 NA
ATOM     24  N   UNL     1      33.713 -12.586 -23.252  0.00  0.00    -0.262 NA
ATOM     25  C   UNL     1      34.419 -16.176 -23.203  0.00  0.00    +0.033 C 
ATOM     26  C   UNL     1      34.811 -17.302 -22.612  0.00  0.00    +0.092 C 
ATOM     27  C   UNL     1      34.085 -16.561 -24.584  0.00  0.00    +0.142 C 
ATOM     28  C   UNL     1      34.274 -14.834 -22.822  0.00  0.00    +0.114 C 
ATOM     29  C   UNL     1      34.709 -18.372 -23.651  0.00  0.00    +0.202 C 
ATOM     30  C   UNL     1      33.825 -13.872 -23.713  0.00  0.00    +0.069 C 
ATOM     31  C   UNL     1      33.607 -15.499 -25.510  0.00  0.00    +0.034 C 
ATOM     32  C   UNL     1      33.496 -14.233 -25.059  0.00  0.00    +0.018 C 
ATOM     33  C   UNL     1      34.085 -12.580 -21.989  0.00  0.00    +0.183 C 
ENDBRANCH  20  26
ENDBRANCH  18  20
ENDBRANCH   1  18
TORSDOF 5
ENDMDL
MODEL 3
REMARK VINA RESULT:     -11.9      3.342     10.770
REMARK  Name = 1712
REMARK  5 active torsions:
REMARK  status: ('A' for Active; 'I' for Inactive)
REMARK    1  A    between atoms: C_1  and  N_18
REMARK    2  A    between atoms: C_2  and  S_7
REMARK    3  A    between atoms: S_7  and  N_10
REMARK    4  A    between atoms: N_18  and  C_20
REMARK    5  A    between atoms: C_20  and  C_26
REMARK                            x       y       z     vdW  Elec       q    Type
REMARK                         _______ _______ _______ _____ _____    ______ ____
ROOT
ATOM      1  C   UNL     1      34.234 -14.502 -23.738  0.00  0.00    +0.045 C 
ATOM      2  C   UNL     1      35.099 -16.982 -22.730  0.00  0.00    +0.125 C 
ATOM      3  C   UNL     1      34.677 -14.625 -22.409  0.00  0.00    +0.016 C 
ATOM      4  C   UNL     1      34.233 -15.651 -24.551  0.00  0.00    +0.016 C 
ATOM      5  C   UNL     1      35.106 -15.855 -21.909  0.00  0.00    +0.021 C 
ATOM      6  C   UNL     1      34.662 -16.880 -24.051  0.00  0.00    +0.021 C 
ENDROOT
BRANCH   2   7
ATOM      7  S   UNL     1      35.635 -18.521 -22.104  0.00  0.00    +0.075 S 
ATOM      8  O   UNL     1      37.074 -18.436 -21.884  0.00  0.00    -0.150 OA
ATOM      9  O   UNL     1      35.117 -19.580 -22.962  0.00  0.00    -0.150 OA
BRANCH   7  10
ATOM     10  N   UNL     1      34.863 -18.597 -20.565  0.00  0.00    -0.199 N 
ATOM     11  H   UNL     1      34.551 -17.780 -20.115  0.00  0.00    +0.175 HD
ATOM     12  N   UNL     1      35.821 -20.512 -19.574  0.00  0.00    -0.228 NA
ATOM     13  C   UNL     1      34.690 -19.890 -19.959  0.00  0.00    +0.147 C 
ATOM     14  C   UNL     1      33.417 -20.406 -19.810  0.00  0.00    +0.036 C 
ATOM     15  C   UNL     1      33.296 -21.658 -19.219  0.00  0.00    +0.005 C 
ATOM     16  C   UNL     1      35.664 -21.728 -19.004  0.00  0.00    +0.100 C 
ATOM     17  C   UNL     1      34.437 -22.338 -18.805  0.00  0.00    +0.021 C 
ENDBRANCH   7  10
ENDBRANCH   2   7
BRANCH   1  18
ATOM     18  N   UNL     1      33.808 -13.280 -24.236  0.00  0.00    -0.328 N 
ATOM     19  H   UNL     1      34.229 -12.942 -25.059  0.00  0.00    +0.147 HD
BRANCH  18  20
ATOM     20  C   UNL     1      32.786 -12.474 -23.616  0.00  0.00    +0.127 C 
BRANCH  20  26
ATOM     21  S   UNL     1      31.334 -11.131 -20.599  0.00  0.00    -0.104 S 
ATOM     22  O   UNL     1      34.598 -11.099 -25.479  0.00  0.00    -0.210 OA
ATOM     23  N   UNL     1      34.502  -9.197 -24.138  0.00  0.00    -0.333 NA
ATOM     24  N   UNL     1      31.583  -8.792 -19.505  0.00  0.00    -0.262 NA
ATOM     25  C   UNL     1      33.070 -10.125 -22.571  0.00  0.00    +0.033 C 
ATOM     26  C   UNL     1      33.273 -11.080 -23.475  0.00  0.00    +0.092 C 
ATOM     27  C   UNL     1      33.861  -8.976 -23.038  0.00  0.00    +0.142 C 
ATOM     28  C   UNL     1      32.332  -9.999 -21.384  0.00  0.00    +0.114 C 
ATOM     29  C   UNL     1      34.196 -10.495 -24.495  0.00  0.00    +0.202 C 
ATOM     30  C   UNL     1      32.334  -8.824 -20.651  0.00  0.00    +0.069 C 
ATOM     31  C   UNL     1      33.838  -7.732 -22.222  0.00  0.00    +0.034 C 
ATOM     32  C   UNL     1      33.100  -7.698 -21.095  0.00  0.00    +0.018 C 
ATOM     33  C   UNL     1      31.003  -9.967 -19.374  0.00  0.00    +0.183 C 
ENDBRANCH  20  26
ENDBRANCH  18  20
ENDBRANCH   1  18
TORSDOF 5
ENDMDL
MODEL 4
REMARK VINA RESULT:     -11.6      2.612     10.457
REMARK  Name = 1712
REMARK  5 active torsions:
REMARK  status: ('A' for Active; 'I' for Inactive)
REMARK    1  A    between atoms: C_1  and  N_18
REMARK    2  A    between atoms: C_2  and  S_7
REMARK    3  A    between atoms: S_7  and  N_10
REMARK    4  A    between atoms: N_18  and  C_20
REMARK    5  A    between atoms: C_20  and  C_26
REMARK                            x       y       z     vdW  Elec       q    Type
REMARK                         _______ _______ _______ _____ _____    ______ ____
ROOT
ATOM      1  C   UNL     1      34.168 -19.742 -21.065  0.00  0.00    +0.045 C 
ATOM      2  C   UNL     1      34.024 -21.634 -18.988  0.00  0.00    +0.125 C 
ATOM      3  C   UNL     1      32.929 -20.109 -20.509  0.00  0.00    +0.016 C 
ATOM      4  C   UNL     1      35.333 -20.345 -20.558  0.00  0.00    +0.016 C 
ATOM      5  C   UNL     1      32.858 -21.047 -19.479  0.00  0.00    +0.021 C 
ATOM      6  C   UNL     1      35.262 -21.283 -19.528  0.00  0.00    +0.021 C 
ENDROOT
BRANCH   2   7
ATOM      7  S   UNL     1      33.935 -22.809 -17.700  0.00  0.00    +0.075 S 
ATOM      8  O   UNL     1      35.097 -22.616 -16.841  0.00  0.00    -0.150 OA
ATOM      9  O   UNL     1      33.702 -24.124 -18.284  0.00  0.00    -0.150 OA
BRANCH   7  10
ATOM     10  N   UNL     1      32.535 -22.311 -16.826  0.00  0.00    -0.199 N 
ATOM     11  H   UNL     1      32.054 -21.487 -17.067  0.00  0.00    +0.175 HD
ATOM     12  N   UNL     1      32.911 -23.178 -14.665  0.00  0.00    -0.228 NA
ATOM     13  C   UNL     1      32.092 -23.135 -15.734  0.00  0.00    +0.147 C 
ATOM     14  C   UNL     1      30.893 -23.812 -15.836  0.00  0.00    +0.036 C 
ATOM     15  C   UNL     1      30.503 -24.596 -14.756  0.00  0.00    +0.005 C 
ATOM     16  C   UNL     1      32.500 -23.951 -13.635  0.00  0.00    +0.100 C 
ATOM     17  C   UNL     1      31.316 -24.672 -13.631  0.00  0.00    +0.021 C 
ENDBRANCH   7  10
ENDBRANCH   2   7
BRANCH   1  18
ATOM     18  N   UNL     1      34.240 -18.808 -22.089  0.00  0.00    -0.328 N 
ATOM     19  H   UNL     1      33.475 -18.735 -22.705  0.00  0.00    +0.147 HD
BRANCH  18  20
ATOM     20  C   UNL     1      35.370 -17.939 -22.305  0.00  0.00    +0.127 C 
BRANCH  20  26
ATOM     21  S   UNL     1      34.174 -15.986 -25.092  0.00  0.00    -0.104 S 
ATOM     22  O   UNL     1      35.685 -17.052 -19.519  0.00  0.00    -0.210 OA
ATOM     23  N   UNL     1      34.899 -14.945 -20.123  0.00  0.00    -0.333 NA
ATOM     24  N   UNL     1      33.380 -13.519 -25.204  0.00  0.00    -0.262 NA
ATOM     25  C   UNL     1      34.591 -15.474 -22.357  0.00  0.00    +0.033 C 
ATOM     26  C   UNL     1      35.057 -16.584 -21.791  0.00  0.00    +0.092 C 
ATOM     27  C   UNL     1      34.514 -14.487 -21.268  0.00  0.00    +0.142 C 
ATOM     28  C   UNL     1      34.198 -15.088 -23.648  0.00  0.00    +0.114 C 
ATOM     29  C   UNL     1      35.261 -16.257 -20.346  0.00  0.00    +0.202 C 
ATOM     30  C   UNL     1      33.742 -13.806 -23.913  0.00  0.00    +0.069 C 
ATOM     31  C   UNL     1      34.019 -13.122 -21.594  0.00  0.00    +0.034 C 
ATOM     32  C   UNL     1      33.663 -12.837 -22.863  0.00  0.00    +0.018 C 
ATOM     33  C   UNL     1      33.568 -14.605 -25.923  0.00  0.00    +0.183 C 
ENDBRANCH  20  26
ENDBRANCH  18  20
ENDBRANCH   1  18
TORSDOF 5
ENDMDL
MODEL 5
REMARK VINA RESULT:     -11.5      3.849     10.853
REMARK  Name = 1712
REMARK  5 active torsions:
REMARK  status: ('A' for Active; 'I' for Inactive)
REMARK    1  A    between atoms: C_1  and  N_18
REMARK    2  A    between atoms: C_2  and  S_7
REMARK    3  A    between atoms: S_7  and  N_10
REMARK    4  A    between atoms: N_18  and  C_20
REMARK    5  A    between atoms: C_20  and  C_26
REMARK                            x       y       z     vdW  Elec       q    Type
REMARK                         _______ _______ _______ _____ _____    ______ ____
ROOT
ATOM      1  C   UNL     1      34.533 -13.778 -22.633  0.00  0.00    +0.045 C 
ATOM      2  C   UNL     1      35.112 -16.498 -22.205  0.00  0.00    +0.125 C 
ATOM      3  C   UNL     1      34.630 -14.673 -23.714  0.00  0.00    +0.016 C 
ATOM      4  C   UNL     1      34.733 -14.276 -21.333  0.00  0.00    +0.016 C 
ATOM      5  C   UNL     1      34.917 -16.021 -23.502  0.00  0.00    +0.021 C 
ATOM      6  C   UNL     1      35.020 -15.625 -21.121  0.00  0.00    +0.021 C 
ENDROOT
BRANCH   2   7
ATOM      7  S   UNL     1      35.473 -18.185 -21.940  0.00  0.00    +0.075 S 
ATOM      8  O   UNL     1      36.920 -18.318 -21.826  0.00  0.00    -0.150 OA
ATOM      9  O   UNL     1      34.771 -18.975 -22.944  0.00  0.00    -0.150 OA
BRANCH   7  10
ATOM     10  N   UNL     1      34.785 -18.483 -20.388  0.00  0.00    -0.199 N 
ATOM     11  H   UNL     1      34.445 -17.744 -19.835  0.00  0.00    +0.175 HD
ATOM     12  N   UNL     1      35.907 -20.427 -19.664  0.00  0.00    -0.228 NA
ATOM     13  C   UNL     1      34.722 -19.844 -19.927  0.00  0.00    +0.147 C 
ATOM     14  C   UNL     1      33.492 -20.457 -19.784  0.00  0.00    +0.036 C 
ATOM     15  C   UNL     1      33.478 -21.772 -19.334  0.00  0.00    +0.005 C 
ATOM     16  C   UNL     1      35.854 -21.707 -19.230  0.00  0.00    +0.100 C 
ATOM     17  C   UNL     1      34.678 -22.416 -19.050  0.00  0.00    +0.021 C 
ENDBRANCH   7  10
ENDBRANCH   2   7
BRANCH   1  18
ATOM     18  N   UNL     1      34.246 -12.437 -22.843  0.00  0.00    -0.328 N 
ATOM     19  H   UNL     1      34.996 -11.799 -22.860  0.00  0.00    +0.147 HD
BRANCH  18  20
ATOM     20  C   UNL     1      32.913 -11.923 -23.036  0.00  0.00    +0.127 C 
BRANCH  20  26
ATOM     21  S   UNL     1      33.594  -8.414 -23.526  0.00  0.00    -0.104 S 
ATOM     22  O   UNL     1      31.717 -13.186 -20.666  0.00  0.00    -0.210 OA
ATOM     23  N   UNL     1      31.554 -11.093 -19.657  0.00  0.00    -0.333 NA
ATOM     24  N   UNL     1      33.184  -6.384 -21.963  0.00  0.00    -0.262 NA
ATOM     25  C   UNL     1      32.482  -9.936 -21.437  0.00  0.00    +0.033 C 
ATOM     26  C   UNL     1      32.475 -11.214 -21.810  0.00  0.00    +0.092 C 
ATOM     27  C   UNL     1      31.896  -9.924 -20.087  0.00  0.00    +0.142 C 
ATOM     28  C   UNL     1      32.891  -8.721 -22.007  0.00  0.00    +0.114 C 
ATOM     29  C   UNL     1      31.878 -11.974 -20.669  0.00  0.00    +0.202 C 
ATOM     30  C   UNL     1      32.756  -7.521 -21.328  0.00  0.00    +0.069 C 
ATOM     31  C   UNL     1      31.767  -8.615 -19.392  0.00  0.00    +0.034 C 
ATOM     32  C   UNL     1      32.188  -7.495 -20.014  0.00  0.00    +0.018 C 
ATOM     33  C   UNL     1      33.651  -6.736 -23.142  0.00  0.00    +0.183 C 
ENDBRANCH  20  26
ENDBRANCH  18  20
ENDBRANCH   1  18
TORSDOF 5
ENDMDL
MODEL 6
REMARK VINA RESULT:     -11.5      2.931      4.261
REMARK  Name = 1712
REMARK  5 active torsions:
REMARK  status: ('A' for Active; 'I' for Inactive)
REMARK    1  A    between atoms: C_1  and  N_18
REMARK    2  A    between atoms: C_2  and  S_7
REMARK    3  A    between atoms: S_7  and  N_10
REMARK    4  A    between atoms: N_18  and  C_20
REMARK    5  A    between atoms: C_20  and  C_26
REMARK                            x       y       z     vdW  Elec       q    Type
REMARK                         _______ _______ _______ _____ _____    ______ ____
ROOT
ATOM      1  C   UNL     1      33.657 -21.594 -18.965  0.00  0.00    +0.045 C 
ATOM      2  C   UNL     1      35.247 -19.653 -20.239  0.00  0.00    +0.125 C 
ATOM      3  C   UNL     1      35.059 -21.618 -18.845  0.00  0.00    +0.016 C 
ATOM      4  C   UNL     1      33.071 -20.576 -19.739  0.00  0.00    +0.016 C 
ATOM      5  C   UNL     1      35.847 -20.655 -19.476  0.00  0.00    +0.021 C 
ATOM      6  C   UNL     1      33.859 -19.613 -20.370  0.00  0.00    +0.021 C 
ENDROOT
BRANCH   2   7
ATOM      7  S   UNL     1      36.233 -18.449 -21.029  0.00  0.00    +0.075 S 
ATOM      8  O   UNL     1      37.621 -18.694 -20.655  0.00  0.00    -0.150 OA
ATOM      9  O   UNL     1      35.659 -17.134 -20.773  0.00  0.00    -0.150 OA
BRANCH   7  10
ATOM     10  N   UNL     1      36.052 -18.842 -22.697  0.00  0.00    -0.199 N 
ATOM     11  H   UNL     1      36.558 -19.583 -23.100  0.00  0.00    +0.175 HD
ATOM     12  N   UNL     1      35.499 -16.772 -23.684  0.00  0.00    -0.228 NA
ATOM     13  C   UNL     1      35.140 -18.054 -23.482  0.00  0.00    +0.147 C 
ATOM     14  C   UNL     1      33.985 -18.635 -23.970  0.00  0.00    +0.036 C 
ATOM     15  C   UNL     1      33.133 -17.837 -24.724  0.00  0.00    +0.005 C 
ATOM     16  C   UNL     1      34.646 -16.026 -24.421  0.00  0.00    +0.100 C 
ATOM     17  C   UNL     1      33.463 -16.506 -24.958  0.00  0.00    +0.021 C 
ENDBRANCH   7  10
ENDBRANCH   2   7
BRANCH   1  18
ATOM     18  N   UNL     1      32.874 -22.550 -18.337  0.00  0.00    -0.328 N 
ATOM     19  H   UNL     1      31.907 -22.554 -18.525  0.00  0.00    +0.147 HD
BRANCH  18  20
ATOM     20  C   UNL     1      33.392 -23.538 -17.424  0.00  0.00    +0.127 C 
BRANCH  20  26
ATOM     21  S   UNL     1      35.859 -24.470 -14.962  0.00  0.00    -0.104 S 
ATOM     22  O   UNL     1      30.657 -22.580 -16.923  0.00  0.00    -0.210 OA
ATOM     23  N   UNL     1      31.034 -22.761 -14.632  0.00  0.00    -0.333 NA
ATOM     24  N   UNL     1      35.734 -24.480 -12.371  0.00  0.00    -0.262 NA
ATOM     25  C   UNL     1      33.210 -23.529 -14.844  0.00  0.00    +0.033 C 
ATOM     26  C   UNL     1      32.775 -23.348 -16.089  0.00  0.00    +0.092 C 
ATOM     27  C   UNL     1      32.081 -23.147 -13.981  0.00  0.00    +0.142 C 
ATOM     28  C   UNL     1      34.401 -23.966 -14.245  0.00  0.00    +0.114 C 
ATOM     29  C   UNL     1      31.370 -22.852 -15.968  0.00  0.00    +0.202 C 
ATOM     30  C   UNL     1      34.533 -24.042 -12.867  0.00  0.00    +0.069 C 
ATOM     31  C   UNL     1      32.263 -23.242 -12.507  0.00  0.00    +0.034 C 
ATOM     32  C   UNL     1      33.443 -23.673 -12.017  0.00  0.00    +0.018 C 
ATOM     33  C   UNL     1      36.520 -24.739 -13.395  0.00  0.00    +0.183 C 
ENDBRANCH  20  26
ENDBRANCH  18  20
ENDBRANCH   1  18
TORSDOF 5
ENDMDL
MODEL 7
REMARK VINA RESULT:     -11.5      4.843      8.274
REMARK  Name = 1712
REMARK  5 active torsions:
REMARK  status: ('A' for Active; 'I' for Inactive)
REMARK    1  A    between atoms: C_1  and  N_18
REMARK    2  A    between atoms: C_2  and  S_7
REMARK    3  A    between atoms: S_7  and  N_10
REMARK    4  A    between atoms: N_18  and  C_20
REMARK    5  A    between atoms: C_20  and  C_26
REMARK                            x       y       z     vdW  Elec       q    Type
REMARK                         _______ _______ _______ _____ _____    ______ ____
ROOT
ATOM      1  C   UNL     1      32.904 -12.197 -22.138  0.00  0.00    +0.045 C 
ATOM      2  C   UNL     1      32.174  -9.484 -21.984  0.00  0.00    +0.125 C 
ATOM      3  C   UNL     1      31.994 -11.749 -21.163  0.00  0.00    +0.016 C 
ATOM      4  C   UNL     1      33.440 -11.254 -23.034  0.00  0.00    +0.016 C 
ATOM      5  C   UNL     1      31.632 -10.404 -21.086  0.00  0.00    +0.021 C 
ATOM      6  C   UNL     1      33.078  -9.909 -22.958  0.00  0.00    +0.021 C 
ENDROOT
BRANCH   2   7
ATOM      7  S   UNL     1      31.722  -7.801 -21.888  0.00  0.00    +0.075 S 
ATOM      8  O   UNL     1      31.355  -7.516 -20.505  0.00  0.00    -0.150 OA
ATOM      9  O   UNL     1      30.758  -7.515 -22.944  0.00  0.00    -0.150 OA
BRANCH   7  10
ATOM     10  N   UNL     1      33.204  -6.987 -22.225  0.00  0.00    -0.199 N 
ATOM     11  H   UNL     1      34.043  -7.263 -21.790  0.00  0.00    +0.175 HD
ATOM     12  N   UNL     1      32.509  -4.797 -22.758  0.00  0.00    -0.228 NA
ATOM     13  C   UNL     1      33.178  -5.895 -23.160  0.00  0.00    +0.147 C 
ATOM     14  C   UNL     1      33.818  -6.027 -24.377  0.00  0.00    +0.036 C 
ATOM     15  C   UNL     1      33.767  -4.945 -25.250  0.00  0.00    +0.005 C 
ATOM     16  C   UNL     1      32.481  -3.766 -23.633  0.00  0.00    +0.100 C 
ATOM     17  C   UNL     1      33.088  -3.790 -24.878  0.00  0.00    +0.021 C 
ENDBRANCH   7  10
ENDBRANCH   2   7
BRANCH   1  18
ATOM     18  N   UNL     1      33.263 -13.534 -22.215  0.00  0.00    -0.328 N 
ATOM     19  H   UNL     1      32.627 -14.206 -21.877  0.00  0.00    +0.147 HD
BRANCH  18  20
ATOM     20  C   UNL     1      34.515 -13.998 -22.758  0.00  0.00    +0.127 C 
BRANCH  20  26
ATOM     21  S   UNL     1      35.479 -16.893 -20.832  0.00  0.00    -0.104 S 
ATOM     22  O   UNL     1      33.450 -13.963 -25.498  0.00  0.00    -0.210 OA
ATOM     23  N   UNL     1      33.594 -16.286 -25.563  0.00  0.00    -0.333 NA
ATOM     24  N   UNL     1      35.427 -19.415 -21.439  0.00  0.00    -0.262 NA
ATOM     25  C   UNL     1      34.443 -16.498 -23.418  0.00  0.00    +0.033 C 
ATOM     26  C   UNL     1      34.274 -15.191 -23.605  0.00  0.00    +0.092 C 
ATOM     27  C   UNL     1      34.002 -17.128 -24.673  0.00  0.00    +0.142 C 
ATOM     28  C   UNL     1      34.908 -17.317 -22.377  0.00  0.00    +0.114 C 
ATOM     29  C   UNL     1      33.727 -15.039 -24.988  0.00  0.00    +0.202 C 
ATOM     30  C   UNL     1      34.958 -18.695 -22.508  0.00  0.00    +0.069 C 
ATOM     31  C   UNL     1      34.072 -18.611 -24.773  0.00  0.00    +0.034 C 
ATOM     32  C   UNL     1      34.532 -19.321 -23.723  0.00  0.00    +0.018 C 
ATOM     33  C   UNL     1      35.736 -18.560 -20.486  0.00  0.00    +0.183 C 
ENDBRANCH  20  26
ENDBRANCH  18  20
ENDBRANCH   1  18
TORSDOF 5
ENDMDL
MODEL 8
REMARK VINA RESULT:     -11.4      3.259      5.084
REMARK  Name = 1712
REMARK  5 active torsions:
REMARK  status: ('A' for Active; 'I' for Inactive)
REMARK    1  A    between atoms: C_1  and  N_18
REMARK    2  A    between atoms: C_2  and  S_7
REMARK    3  A    between atoms: S_7  and  N_10
REMARK    4  A    between atoms: N_18  and  C_20
REMARK    5  A    between atoms: C_20  and  C_26
REMARK                            x       y       z     vdW  Elec       q    Type
REMARK                         _______ _______ _______ _____ _____    ______ ____
ROOT
ATOM      1  C   UNL     1      34.381 -21.604 -18.981  0.00  0.00    +0.045 C 
ATOM      2  C   UNL     1      35.651 -19.557 -20.435  0.00  0.00    +0.125 C 
ATOM      3  C   UNL     1      35.780 -21.462 -18.955  0.00  0.00    +0.016 C 
ATOM      4  C   UNL     1      33.632 -20.697 -19.754  0.00  0.00    +0.016 C 
ATOM      5  C   UNL     1      36.410 -20.447 -19.675  0.00  0.00    +0.021 C 
ATOM      6  C   UNL     1      34.262 -19.682 -20.474  0.00  0.00    +0.021 C 
ENDROOT
BRANCH   2   7
ATOM      7  S   UNL     1      36.439 -18.288 -21.337  0.00  0.00    +0.075 S 
ATOM      8  O   UNL     1      37.876 -18.414 -21.123  0.00  0.00    -0.150 OA
ATOM      9  O   UNL     1      35.791 -17.020 -21.023  0.00  0.00    -0.150 OA
BRANCH   7  10
ATOM     10  N   UNL     1      36.103 -18.716 -22.973  0.00  0.00    -0.199 N 
ATOM     11  H   UNL     1      36.575 -19.463 -23.407  0.00  0.00    +0.175 HD
ATOM     12  N   UNL     1      35.440 -16.671 -23.943  0.00  0.00    -0.228 NA
ATOM     13  C   UNL     1      35.113 -17.952 -23.683  0.00  0.00    +0.147 C 
ATOM     14  C   UNL     1      33.923 -18.552 -24.046  0.00  0.00    +0.036 C 
ATOM     15  C   UNL     1      32.996 -17.775 -24.732  0.00  0.00    +0.005 C 
ATOM     16  C   UNL     1      34.513 -15.947 -24.610  0.00  0.00    +0.100 C 
ATOM     17  C   UNL     1      33.289 -16.447 -25.023  0.00  0.00    +0.021 C 
ENDBRANCH   7  10
ENDBRANCH   2   7
BRANCH   1  18
ATOM     18  N   UNL     1      33.754 -22.612 -18.264  0.00  0.00    -0.328 N 
ATOM     19  H   UNL     1      34.114 -23.526 -18.337  0.00  0.00    +0.147 HD
BRANCH  18  20
ATOM     20  C   UNL     1      32.605 -22.401 -17.419  0.00  0.00    +0.127 C 
BRANCH  20  26
ATOM     21  S   UNL     1      29.323 -23.321 -16.237  0.00  0.00    -0.104 S 
ATOM     22  O   UNL     1      35.184 -22.978 -16.130  0.00  0.00    -0.210 OA
ATOM     23  N   UNL     1      34.057 -24.070 -14.410  0.00  0.00    -0.333 NA
ATOM     24  N   UNL     1      28.601 -24.622 -14.112  0.00  0.00    -0.262 NA
ATOM     25  C   UNL     1      31.943 -23.702 -15.285  0.00  0.00    +0.033 C 
ATOM     26  C   UNL     1      32.787 -23.137 -16.145  0.00  0.00    +0.092 C 
ATOM     27  C   UNL     1      32.793 -24.267 -14.224  0.00  0.00    +0.142 C 
ATOM     28  C   UNL     1      30.552 -23.855 -15.188  0.00  0.00    +0.114 C 
ATOM     29  C   UNL     1      34.157 -23.367 -15.593  0.00  0.00    +0.202 C 
ATOM     30  C   UNL     1      29.968 -24.522 -14.123  0.00  0.00    +0.069 C 
ATOM     31  C   UNL     1      32.128 -24.976 -13.098  0.00  0.00    +0.034 C 
ATOM     32  C   UNL     1      30.784 -25.076 -13.085  0.00  0.00    +0.018 C 
ATOM     33  C   UNL     1      28.147 -24.018 -15.190  0.00  0.00    +0.183 C 
ENDBRANCH  20  26
ENDBRANCH  18  20
ENDBRANCH   1  18
TORSDOF 5
ENDMDL
MODEL 9
REMARK VINA RESULT:     -11.3      2.578     10.833
REMARK  Name = 1712
REMARK  5 active torsions:
REMARK  status: ('A' for Active; 'I' for Inactive)
REMARK    1  A    between atoms: C_1  and  N_18
REMARK    2  A    between atoms: C_2  and  S_7
REMARK    3  A    between atoms: S_7  and  N_10
REMARK    4  A    between atoms: N_18  and  C_20
REMARK    5  A    between atoms: C_20  and  C_26
REMARK                            x       y       z     vdW  Elec       q    Type
REMARK                         _______ _______ _______ _____ _____    ______ ____
ROOT
ATOM      1  C   UNL     1      34.672 -20.762 -19.825  0.00  0.00    +0.045 C 
ATOM      2  C   UNL     1      34.770 -22.241 -17.433  0.00  0.00    +0.125 C 
ATOM      3  C   UNL     1      33.499 -21.289 -19.255  0.00  0.00    +0.016 C 
ATOM      4  C   UNL     1      35.895 -20.994 -19.170  0.00  0.00    +0.016 C 
ATOM      5  C   UNL     1      33.547 -22.022 -18.069  0.00  0.00    +0.021 C 
ATOM      6  C   UNL     1      35.944 -21.726 -17.984  0.00  0.00    +0.021 C 
ENDROOT
BRANCH   2   7
ATOM      7  S   UNL     1      34.830 -23.159 -15.950  0.00  0.00    +0.075 S 
ATOM      8  O   UNL     1      34.278 -24.481 -16.222  0.00  0.00    -0.150 OA
ATOM      9  O   UNL     1      34.244 -22.359 -14.882  0.00  0.00    -0.150 OA
BRANCH   7  10
ATOM     10  N   UNL     1      36.523 -23.332 -15.677  0.00  0.00    -0.199 N 
ATOM     11  H   UNL     1      37.177 -22.849 -16.231  0.00  0.00    +0.175 HD
ATOM     12  N   UNL     1      36.709 -25.516 -14.804  0.00  0.00    -0.228 NA
ATOM     13  C   UNL     1      36.951 -24.204 -14.616  0.00  0.00    +0.147 C 
ATOM     14  C   UNL     1      37.565 -23.667 -13.502  0.00  0.00    +0.036 C 
ATOM     15  C   UNL     1      37.963 -24.547 -12.501  0.00  0.00    +0.005 C 
ATOM     16  C   UNL     1      37.109 -26.340 -13.810  0.00  0.00    +0.100 C 
ATOM     17  C   UNL     1      37.734 -25.910 -12.651  0.00  0.00    +0.021 C 
ENDBRANCH   7  10
ENDBRANCH   2   7
BRANCH   1  18
ATOM     18  N   UNL     1      34.625 -20.032 -21.003  0.00  0.00    -0.328 N 
ATOM     19  H   UNL     1      34.031 -20.350 -21.723  0.00  0.00    +0.147 HD
BRANCH  18  20
ATOM     20  C   UNL     1      35.395 -18.836 -21.238  0.00  0.00    +0.127 C 
BRANCH  20  26
ATOM     21  S   UNL     1      34.929 -15.324 -20.554  0.00  0.00    -0.104 S 
ATOM     22  O   UNL     1      34.971 -20.218 -23.798  0.00  0.00    -0.210 OA
ATOM     23  N   UNL     1      34.346 -18.193 -24.765  0.00  0.00    -0.333 NA
ATOM     24  N   UNL     1      34.165 -13.392 -22.107  0.00  0.00    -0.262 NA
ATOM     25  C   UNL     1      34.628 -16.949 -22.832  0.00  0.00    +0.033 C 
ATOM     26  C   UNL     1      34.945 -18.198 -22.498  0.00  0.00    +0.092 C 
ATOM     27  C   UNL     1      34.263 -17.009 -24.256  0.00  0.00    +0.142 C 
ATOM     28  C   UNL     1      34.574 -15.711 -22.172  0.00  0.00    +0.114 C 
ATOM     29  C   UNL     1      34.767 -19.014 -23.738  0.00  0.00    +0.202 C 
ATOM     30  C   UNL     1      34.188 -14.555 -22.832  0.00  0.00    +0.069 C 
ATOM     31  C   UNL     1      33.855 -15.746 -24.928  0.00  0.00    +0.034 C 
ATOM     32  C   UNL     1      33.831 -14.600 -24.217  0.00  0.00    +0.018 C 
ATOM     33  C   UNL     1      34.540 -13.678 -20.878  0.00  0.00    +0.183 C 
ENDBRANCH  20  26
ENDBRANCH  18  20
ENDBRANCH   1  18
TORSDOF 5
ENDMDL
