MODEL 1
REMARK VINA RESULT:     -11.4      0.000      0.000
REMARK  Name = 445018
REMARK  7 active torsions:
REMARK  status: ('A' for Active; 'I' for Inactive)
REMARK    1  A    between atoms: N_2  and  S_14
REMARK    2  A    between atoms: N_3  and  C_25
REMARK    3  A    between atoms: C_4  and  C_10
REMARK    4  A    between atoms: N_9  and  O_12
REMARK    5  A    between atoms: S_14  and  C_17
REMARK    6  A    between atoms: C_22  and  O_23
REMARK    7  A    between atoms: C_25  and  C_26
REMARK                            x       y       z     vdW  Elec       q    Type
REMARK                         _______ _______ _______ _____ _____    ______ ____
ROOT
ATOM      1  O   UNL     1      36.369 -22.660 -16.733  0.00  0.00    -0.275 OA
ATOM      2  N   UNL     1      33.275 -23.791 -14.309  0.00  0.00    -0.128 NA
ATOM      3  N   UNL     1      34.098 -23.124 -16.501  0.00  0.00    -0.260 N 
ATOM      4  C   UNL     1      34.576 -23.407 -13.703  0.00  0.00    +0.168 C 
ATOM      5  C   UNL     1      32.964 -23.110 -15.589  0.00  0.00    +0.192 C 
ATOM      6  C   UNL     1      35.389 -22.441 -14.557  0.00  0.00    +0.112 C 
ATOM      7  C   UNL     1      35.359 -22.763 -16.040  0.00  0.00    +0.229 C 
ENDROOT
BRANCH   4  10
ATOM      8  O   UNL     1      35.474 -25.483 -14.439  0.00  0.00    -0.272 OA
ATOM      9  N   UNL     1      35.744 -24.878 -12.225  0.00  0.00    -0.196 N 
ATOM     10  C   UNL     1      35.304 -24.697 -13.509  0.00  0.00    +0.261 C 
ATOM     11  H   UNL     1      35.579 -24.215 -11.517  0.00  0.00    +0.182 HD
BRANCH   9  12
ATOM     12  O   UNL     1      36.446 -26.067 -11.982  0.00  0.00    -0.295 OA
ATOM     13  H   UNL     1      35.870 -26.825 -12.162  0.00  0.00    +0.241 HD
ENDBRANCH   9  12
ENDBRANCH   4  10
BRANCH   2  14
ATOM     14  S   UNL     1      31.962 -24.031 -13.243  0.00  0.00    +0.065 S 
ATOM     15  O   UNL     1      31.898 -22.926 -12.310  0.00  0.00    -0.153 OA
ATOM     16  O   UNL     1      31.976 -25.401 -12.772  0.00  0.00    -0.153 OA
BRANCH  14  17
ATOM     17  C   UNL     1      30.611 -23.861 -14.369  0.00  0.00    +0.122 C 
ATOM     18  C   UNL     1      30.077 -24.992 -14.963  0.00  0.00    +0.023 C 
ATOM     19  C   UNL     1      30.108 -22.599 -14.637  0.00  0.00    +0.023 C 
ATOM     20  C   UNL     1      29.011 -24.858 -15.852  0.00  0.00    +0.038 C 
ATOM     21  C   UNL     1      29.041 -22.464 -15.527  0.00  0.00    +0.038 C 
ATOM     22  C   UNL     1      28.493 -23.594 -16.134  0.00  0.00    +0.139 C 
BRANCH  22  23
ATOM     23  O   UNL     1      27.452 -23.463 -17.001  0.00  0.00    -0.471 OA
ATOM     24  C   UNL     1      26.796 -22.197 -17.041  0.00  0.00    +0.252 C 
ENDBRANCH  22  23
ENDBRANCH  14  17
ENDBRANCH   2  14
BRANCH   3  25
ATOM     25  C   UNL     1      33.845 -23.386 -17.908  0.00  0.00    +0.121 C 
BRANCH  25  26
ATOM     26  C   UNL     1      33.913 -22.133 -18.734  0.00  0.00    -0.002 C 
ATOM     27  C   UNL     1      32.752 -21.412 -18.987  0.00  0.00    -0.003 C 
ATOM     28  C   UNL     1      35.136 -21.706 -19.238  0.00  0.00    -0.003 C 
ATOM     29  C   UNL     1      32.814 -20.249 -19.754  0.00  0.00    -0.000 C 
ATOM     30  C   UNL     1      35.199 -20.543 -20.005  0.00  0.00    -0.000 C 
ATOM     31  C   UNL     1      34.038 -19.815 -20.263  0.00  0.00    -0.000 C 
ENDBRANCH  25  26
ENDBRANCH   3  25
TORSDOF 7
ENDMDL
MODEL 2
REMARK VINA RESULT:      -9.1      2.123      3.222
REMARK  Name = 445018
REMARK  7 active torsions:
REMARK  status: ('A' for Active; 'I' for Inactive)
REMARK    1  A    between atoms: N_2  and  S_14
REMARK    2  A    between atoms: N_3  and  C_25
REMARK    3  A    between atoms: C_4  and  C_10
REMARK    4  A    between atoms: N_9  and  O_12
REMARK    5  A    between atoms: S_14  and  C_17
REMARK    6  A    between atoms: C_22  and  O_23
REMARK    7  A    between atoms: C_25  and  C_26
REMARK                            x       y       z     vdW  Elec       q    Type
REMARK                         _______ _______ _______ _____ _____    ______ ____
ROOT
ATOM      1  O   UNL     1      39.089 -23.550 -15.869  0.00  0.00    -0.275 OA
ATOM      2  N   UNL     1      35.817 -23.993 -13.455  0.00  0.00    -0.128 NA
ATOM      3  N   UNL     1      37.264 -22.572 -14.802  0.00  0.00    -0.260 N 
ATOM      4  C   UNL     1      36.808 -25.096 -13.553  0.00  0.00    +0.168 C 
ATOM      5  C   UNL     1      36.382 -22.636 -13.646  0.00  0.00    +0.192 C 
ATOM      6  C   UNL     1      38.212 -24.628 -13.916  0.00  0.00    +0.112 C 
ATOM      7  C   UNL     1      38.240 -23.546 -14.981  0.00  0.00    +0.229 C 
ENDROOT
BRANCH   4  10
ATOM      8  O   UNL     1      35.094 -25.925 -14.979  0.00  0.00    -0.272 OA
ATOM      9  N   UNL     1      37.183 -26.910 -15.065  0.00  0.00    -0.196 N 
ATOM     10  C   UNL     1      36.259 -26.011 -14.599  0.00  0.00    +0.261 C 
ATOM     11  H   UNL     1      38.106 -26.935 -14.724  0.00  0.00    +0.182 HD
BRANCH   9  12
ATOM     12  O   UNL     1      36.732 -27.789 -16.058  0.00  0.00    -0.295 OA
ATOM     13  H   UNL     1      37.231 -27.639 -16.875  0.00  0.00    +0.241 HD
ENDBRANCH   9  12
ENDBRANCH   4  10
BRANCH   2  14
ATOM     14  S   UNL     1      34.602 -24.145 -12.264  0.00  0.00    +0.065 S 
ATOM     15  O   UNL     1      34.582 -22.948 -11.450  0.00  0.00    -0.153 OA
ATOM     16  O   UNL     1      34.693 -25.456 -11.656  0.00  0.00    -0.153 OA
BRANCH  14  17
ATOM     17  C   UNL     1      33.160 -24.123 -13.285  0.00  0.00    +0.122 C 
ATOM     18  C   UNL     1      33.053 -23.172 -14.286  0.00  0.00    +0.023 C 
ATOM     19  C   UNL     1      32.161 -25.057 -13.066  0.00  0.00    +0.023 C 
ATOM     20  C   UNL     1      31.915 -23.154 -15.092  0.00  0.00    +0.038 C 
ATOM     21  C   UNL     1      31.022 -25.040 -13.873  0.00  0.00    +0.038 C 
ATOM     22  C   UNL     1      30.899 -24.088 -14.885  0.00  0.00    +0.139 C 
BRANCH  22  23
ATOM     23  O   UNL     1      29.789 -24.071 -15.673  0.00  0.00    -0.471 OA
ATOM     24  C   UNL     1      29.114 -22.823 -15.815  0.00  0.00    +0.252 C 
ENDBRANCH  22  23
ENDBRANCH  14  17
ENDBRANCH   2  14
BRANCH   3  25
ATOM     25  C   UNL     1      37.181 -21.406 -15.667  0.00  0.00    +0.121 C 
BRANCH  25  26
ATOM     26  C   UNL     1      36.336 -21.667 -16.880  0.00  0.00    -0.002 C 
ATOM     27  C   UNL     1      36.735 -21.170 -18.116  0.00  0.00    -0.003 C 
ATOM     28  C   UNL     1      35.162 -22.400 -16.757  0.00  0.00    -0.003 C 
ATOM     29  C   UNL     1      35.950 -21.412 -19.243  0.00  0.00    -0.000 C 
ATOM     30  C   UNL     1      34.377 -22.642 -17.884  0.00  0.00    -0.000 C 
ATOM     31  C   UNL     1      34.771 -22.147 -19.127  0.00  0.00    -0.000 C 
ENDBRANCH  25  26
ENDBRANCH   3  25
TORSDOF 7
ENDMDL
