MODEL 1
REMARK VINA RESULT:     -12.8      0.000      0.000
REMARK  Name = 10156987
REMARK  5 active torsions:
REMARK  status: ('A' for Active; 'I' for Inactive)
REMARK    1  A    between atoms: C_2  and  C_23
REMARK    2  A    between atoms: C_9  and  C_13
REMARK    3  A    between atoms: C_23  and  N_24
REMARK    4  A    between atoms: C_25  and  C_31
REMARK    5  A    between atoms: C_31  and  N_32
REMARK                            x       y       z     vdW  Elec       q    Type
REMARK                         _______ _______ _______ _____ _____    ______ ____
ROOT
ATOM      1  N   UNL     1      36.192 -20.483 -19.124  0.00  0.00    -0.312 N 
ATOM      2  C   UNL     1      35.290 -18.400 -22.554  0.00  0.00    -0.043 C 
ATOM      3  C   UNL     1      34.365 -19.215 -21.901  0.00  0.00    -0.005 C 
ATOM      4  C   UNL     1      36.584 -18.244 -22.073  0.00  0.00    -0.005 C 
ATOM      5  C   UNL     1      34.761 -19.892 -20.730  0.00  0.00    +0.014 C 
ATOM      6  C   UNL     1      36.067 -19.722 -20.266  0.00  0.00    +0.048 C 
ATOM      7  C   UNL     1      36.999 -18.907 -20.915  0.00  0.00    +0.014 C 
ATOM      8  C   UNL     1      34.109 -20.780 -19.829  0.00  0.00    +0.016 C 
ATOM      9  C   UNL     1      35.015 -21.125 -18.853  0.00  0.00    +0.053 C 
ATOM     10  H   UNL     1      37.011 -20.554 -18.582  0.00  0.00    +0.152 HD
ENDROOT
BRANCH   9  13
ATOM     11  O   UNL     1      32.691 -22.601 -18.088  0.00  0.00    -0.270 OA
ATOM     12  N   UNL     1      33.718 -23.518 -16.256  0.00  0.00    -0.280 N 
ATOM     13  C   UNL     1      34.955 -21.967 -17.699  0.00  0.00    +0.067 C 
ATOM     14  C   UNL     1      36.034 -22.090 -16.907  0.00  0.00    +0.007 C 
ATOM     15  C   UNL     1      33.691 -22.714 -17.380  0.00  0.00    +0.251 C 
ATOM     16  C   UNL     1      36.010 -22.948 -15.725  0.00  0.00    +0.014 C 
ATOM     17  C   UNL     1      34.841 -23.654 -15.423  0.00  0.00    +0.051 C 
ATOM     18  C   UNL     1      37.126 -23.083 -14.894  0.00  0.00    +0.001 C 
ATOM     19  C   UNL     1      34.780 -24.486 -14.303  0.00  0.00    +0.015 C 
ATOM     20  C   UNL     1      37.067 -23.915 -13.774  0.00  0.00    +0.000 C 
ATOM     21  C   UNL     1      35.897 -24.614 -13.479  0.00  0.00    +0.001 C 
ATOM     22  H   UNL     1      32.905 -24.024 -16.027  0.00  0.00    +0.155 HD
ENDBRANCH   9  13
BRANCH   2  23
ATOM     23  C   UNL     1      34.875 -17.677 -23.802  0.00  0.00    -0.050 C 
BRANCH  23  24
ATOM     24  N   UNL     1      34.311 -16.359 -23.509  0.00  0.00    +0.390 N 
ATOM     25  C   UNL     1      34.298 -13.426 -23.487  0.00  0.00    -0.026 C 
ATOM     26  C   UNL     1      34.583 -14.257 -22.232  0.00  0.00    -0.025 C 
ATOM     27  C   UNL     1      33.453 -14.246 -24.468  0.00  0.00    -0.025 C 
ATOM     28  C   UNL     1      35.185 -15.617 -22.590  0.00  0.00    -0.077 C 
ATOM     29  C   UNL     1      34.092 -15.607 -24.753  0.00  0.00    -0.077 C 
ATOM     30  H   UNL     1      33.408 -16.483 -23.054  0.00  0.00    -0.079 HD
BRANCH  25  31
ATOM     31  C   UNL     1      33.606 -12.113 -23.131  0.00  0.00    -0.086 C 
BRANCH  31  32
ATOM     32  N   UNL     1      34.406 -10.974 -23.552  0.00  0.00    +0.380 N 
ATOM     33  H   UNL     1      33.829 -10.337 -24.099  0.00  0.00    -0.089 HD
ATOM     34  H   UNL     1      35.187 -11.300 -24.122  0.00  0.00    -0.089 HD
ATOM     35  H   UNL     1      34.765 -10.488 -22.730  0.00  0.00    -0.089 HD
ENDBRANCH  31  32
ENDBRANCH  25  31
ENDBRANCH  23  24
ENDBRANCH   2  23
TORSDOF 5
ENDMDL
MODEL 2
REMARK VINA RESULT:     -12.6      2.111      2.948
REMARK  Name = 10156987
REMARK  5 active torsions:
REMARK  status: ('A' for Active; 'I' for Inactive)
REMARK    1  A    between atoms: C_2  and  C_23
REMARK    2  A    between atoms: C_9  and  C_13
REMARK    3  A    between atoms: C_23  and  N_24
REMARK    4  A    between atoms: C_25  and  C_31
REMARK    5  A    between atoms: C_31  and  N_32
REMARK                            x       y       z     vdW  Elec       q    Type
REMARK                         _______ _______ _______ _____ _____    ______ ____
ROOT
ATOM      1  N   UNL     1      35.050 -21.593 -18.099  0.00  0.00    -0.312 N 
ATOM      2  C   UNL     1      35.339 -19.373 -21.550  0.00  0.00    -0.043 C 
ATOM      3  C   UNL     1      34.125 -19.868 -21.070  0.00  0.00    -0.005 C 
ATOM      4  C   UNL     1      36.532 -19.606 -20.877  0.00  0.00    -0.005 C 
ATOM      5  C   UNL     1      34.120 -20.620 -19.878  0.00  0.00    +0.014 C 
ATOM      6  C   UNL     1      35.331 -20.843 -19.219  0.00  0.00    +0.048 C 
ATOM      7  C   UNL     1      36.551 -20.349 -19.694  0.00  0.00    +0.014 C 
ATOM      8  C   UNL     1      33.105 -21.263 -19.115  0.00  0.00    +0.016 C 
ATOM      9  C   UNL     1      33.708 -21.852 -18.028  0.00  0.00    +0.053 C 
ATOM     10  H   UNL     1      35.719 -21.900 -17.445  0.00  0.00    +0.152 HD
ENDROOT
BRANCH   9  13
ATOM     11  O   UNL     1      35.413 -23.151 -16.139  0.00  0.00    -0.270 OA
ATOM     12  N   UNL     1      33.654 -23.982 -14.928  0.00  0.00    -0.280 N 
ATOM     13  C   UNL     1      33.226 -22.625 -16.926  0.00  0.00    +0.067 C 
ATOM     14  C   UNL     1      31.902 -22.770 -16.743  0.00  0.00    +0.007 C 
ATOM     15  C   UNL     1      34.199 -23.264 -15.976  0.00  0.00    +0.251 C 
ATOM     16  C   UNL     1      31.376 -23.546 -15.622  0.00  0.00    +0.014 C 
ATOM     17  C   UNL     1      32.273 -24.139 -14.728  0.00  0.00    +0.051 C 
ATOM     18  C   UNL     1      30.002 -23.705 -15.422  0.00  0.00    +0.001 C 
ATOM     19  C   UNL     1      31.808 -24.886 -13.643  0.00  0.00    +0.015 C 
ATOM     20  C   UNL     1      29.535 -24.451 -14.337  0.00  0.00    +0.000 C 
ATOM     21  C   UNL     1      30.435 -25.040 -13.451  0.00  0.00    +0.001 C 
ATOM     22  H   UNL     1      34.268 -24.407 -14.287  0.00  0.00    +0.155 HD
ENDBRANCH   9  13
BRANCH   2  23
ATOM     23  C   UNL     1      35.351 -18.573 -22.819  0.00  0.00    -0.050 C 
BRANCH  23  24
ATOM     24  N   UNL     1      34.717 -17.266 -22.649  0.00  0.00    +0.390 N 
ATOM     25  C   UNL     1      34.612 -14.337 -22.744  0.00  0.00    -0.026 C 
ATOM     26  C   UNL     1      34.768 -15.112 -21.431  0.00  0.00    -0.025 C 
ATOM     27  C   UNL     1      33.918 -15.219 -23.787  0.00  0.00    -0.025 C 
ATOM     28  C   UNL     1      35.450 -16.462 -21.660  0.00  0.00    -0.077 C 
ATOM     29  C   UNL     1      34.628 -16.566 -23.938  0.00  0.00    -0.077 C 
ATOM     30  H   UNL     1      33.769 -17.405 -22.301  0.00  0.00    -0.079 HD
BRANCH  25  31
ATOM     31  C   UNL     1      33.843 -13.037 -22.526  0.00  0.00    -0.086 C 
BRANCH  31  32
ATOM     32  N   UNL     1      34.445 -11.945 -23.276  0.00  0.00    +0.380 N 
ATOM     33  H   UNL     1      35.324 -11.676 -22.837  0.00  0.00    -0.089 HD
ATOM     34  H   UNL     1      33.810 -11.147 -23.282  0.00  0.00    -0.089 HD
ATOM     35  H   UNL     1      34.621 -12.247 -24.235  0.00  0.00    -0.089 HD
ENDBRANCH  31  32
ENDBRANCH  25  31
ENDBRANCH  23  24
ENDBRANCH   2  23
TORSDOF 5
ENDMDL
MODEL 3
REMARK VINA RESULT:     -12.6      2.949     10.792
REMARK  Name = 10156987
REMARK  5 active torsions:
REMARK  status: ('A' for Active; 'I' for Inactive)
REMARK    1  A    between atoms: C_2  and  C_23
REMARK    2  A    between atoms: C_9  and  C_13
REMARK    3  A    between atoms: C_23  and  N_24
REMARK    4  A    between atoms: C_25  and  C_31
REMARK    5  A    between atoms: C_31  and  N_32
REMARK                            x       y       z     vdW  Elec       q    Type
REMARK                         _______ _______ _______ _____ _____    ______ ____
ROOT
ATOM      1  N   UNL     1      34.019 -14.559 -22.817  0.00  0.00    -0.312 N 
ATOM      2  C   UNL     1      35.910 -17.941 -21.437  0.00  0.00    -0.043 C 
ATOM      3  C   UNL     1      35.564 -16.877 -20.604  0.00  0.00    -0.005 C 
ATOM      4  C   UNL     1      35.629 -17.916 -22.797  0.00  0.00    -0.005 C 
ATOM      5  C   UNL     1      34.917 -15.756 -21.162  0.00  0.00    +0.014 C 
ATOM      6  C   UNL     1      34.646 -15.752 -22.532  0.00  0.00    +0.048 C 
ATOM      7  C   UNL     1      34.989 -16.815 -23.374  0.00  0.00    +0.014 C 
ATOM      8  C   UNL     1      34.433 -14.526 -20.637  0.00  0.00    +0.016 C 
ATOM      9  C   UNL     1      33.886 -13.812 -21.678  0.00  0.00    +0.053 C 
ATOM     10  H   UNL     1      33.712 -14.283 -23.711  0.00  0.00    +0.152 HD
ENDROOT
BRANCH   9  13
ATOM     11  O   UNL     1      31.496 -13.110 -20.278  0.00  0.00    -0.270 OA
ATOM     12  N   UNL     1      31.465 -10.985 -21.136  0.00  0.00    -0.280 N 
ATOM     13  C   UNL     1      33.256 -12.533 -21.778  0.00  0.00    +0.067 C 
ATOM     14  C   UNL     1      33.791 -11.587 -22.569  0.00  0.00    +0.007 C 
ATOM     15  C   UNL     1      32.005 -12.249 -20.996  0.00  0.00    +0.251 C 
ATOM     16  C   UNL     1      33.177 -10.266 -22.688  0.00  0.00    +0.014 C 
ATOM     17  C   UNL     1      32.017  -9.990 -21.959  0.00  0.00    +0.051 C 
ATOM     18  C   UNL     1      33.724  -9.276 -23.509  0.00  0.00    +0.001 C 
ATOM     19  C   UNL     1      31.402  -8.738 -22.045  0.00  0.00    +0.015 C 
ATOM     20  C   UNL     1      33.112  -8.023 -23.596  0.00  0.00    +0.000 C 
ATOM     21  C   UNL     1      31.954  -7.755 -22.866  0.00  0.00    +0.001 C 
ATOM     22  H   UNL     1      30.648 -10.770 -20.630  0.00  0.00    +0.155 HD
ENDBRANCH   9  13
BRANCH   2  23
ATOM     23  C   UNL     1      36.600 -19.137 -20.848  0.00  0.00    -0.050 C 
BRANCH  23  24
ATOM     24  N   UNL     1      35.762 -19.824 -19.866  0.00  0.00    +0.390 N 
ATOM     25  C   UNL     1      34.285 -22.112 -18.779  0.00  0.00    -0.026 C 
ATOM     26  C   UNL     1      33.585 -20.925 -19.450  0.00  0.00    -0.025 C 
ATOM     27  C   UNL     1      35.638 -21.665 -18.217  0.00  0.00    -0.025 C 
ATOM     28  C   UNL     1      34.496 -20.252 -20.478  0.00  0.00    -0.077 C 
ATOM     29  C   UNL     1      36.482 -20.966 -19.286  0.00  0.00    -0.077 C 
ATOM     30  H   UNL     1      35.543 -19.175 -19.111  0.00  0.00    -0.079 HD
BRANCH  25  31
ATOM     31  C   UNL     1      33.410 -22.718 -17.684  0.00  0.00    -0.086 C 
BRANCH  31  32
ATOM     32  N   UNL     1      32.071 -22.150 -17.717  0.00  0.00    +0.380 N 
ATOM     33  H   UNL     1      31.851 -21.853 -18.667  0.00  0.00    -0.089 HD
ATOM     34  H   UNL     1      32.027 -21.347 -17.090  0.00  0.00    -0.089 HD
ATOM     35  H   UNL     1      31.395 -22.854 -17.416  0.00  0.00    -0.089 HD
ENDBRANCH  31  32
ENDBRANCH  25  31
ENDBRANCH  23  24
ENDBRANCH   2  23
TORSDOF 5
ENDMDL
MODEL 4
REMARK VINA RESULT:     -12.4      1.185      1.982
REMARK  Name = 10156987
REMARK  5 active torsions:
REMARK  status: ('A' for Active; 'I' for Inactive)
REMARK    1  A    between atoms: C_2  and  C_23
REMARK    2  A    between atoms: C_9  and  C_13
REMARK    3  A    between atoms: C_23  and  N_24
REMARK    4  A    between atoms: C_25  and  C_31
REMARK    5  A    between atoms: C_31  and  N_32
REMARK                            x       y       z     vdW  Elec       q    Type
REMARK                         _______ _______ _______ _____ _____    ______ ____
ROOT
ATOM      1  N   UNL     1      34.292 -21.761 -18.070  0.00  0.00    -0.312 N 
ATOM      2  C   UNL     1      35.219 -19.392 -21.302  0.00  0.00    -0.043 C 
ATOM      3  C   UNL     1      36.181 -19.847 -20.399  0.00  0.00    -0.005 C 
ATOM      4  C   UNL     1      33.877 -19.721 -21.156  0.00  0.00    -0.005 C 
ATOM      5  C   UNL     1      35.773 -20.656 -19.319  0.00  0.00    +0.014 C 
ATOM      6  C   UNL     1      34.419 -20.972 -19.192  0.00  0.00    +0.048 C 
ATOM      7  C   UNL     1      33.449 -20.520 -20.093  0.00  0.00    +0.014 C 
ATOM      8  C   UNL     1      36.452 -21.281 -18.237  0.00  0.00    +0.016 C 
ATOM      9  C   UNL     1      35.515 -21.952 -17.486  0.00  0.00    +0.053 C 
ATOM     10  H   UNL     1      33.444 -22.133 -17.736  0.00  0.00    +0.152 HD
ENDROOT
BRANCH   9  13
ATOM     11  O   UNL     1      33.244 -23.213 -16.297  0.00  0.00    -0.270 OA
ATOM     12  N   UNL     1      34.485 -24.152 -14.614  0.00  0.00    -0.280 N 
ATOM     13  C   UNL     1      35.582 -22.750 -16.301  0.00  0.00    +0.067 C 
ATOM     14  C   UNL     1      36.763 -22.934 -15.688  0.00  0.00    +0.007 C 
ATOM     15  C   UNL     1      34.335 -23.383 -15.753  0.00  0.00    +0.251 C 
ATOM     16  C   UNL     1      36.868 -23.751 -14.481  0.00  0.00    +0.014 C 
ATOM     17  C   UNL     1      35.714 -24.350 -13.966  0.00  0.00    +0.051 C 
ATOM     18  C   UNL     1      38.091 -23.948 -13.833  0.00  0.00    +0.001 C 
ATOM     19  C   UNL     1      35.775 -25.140 -12.815  0.00  0.00    +0.015 C 
ATOM     20  C   UNL     1      38.153 -24.737 -12.682  0.00  0.00    +0.000 C 
ATOM     21  C   UNL     1      36.998 -25.331 -12.174  0.00  0.00    +0.001 C 
ATOM     22  H   UNL     1      33.684 -24.583 -14.236  0.00  0.00    +0.155 HD
ENDBRANCH   9  13
BRANCH   2  23
ATOM     23  C   UNL     1      35.646 -18.530 -22.454  0.00  0.00    -0.050 C 
BRANCH  23  24
ATOM     24  N   UNL     1      34.901 -17.272 -22.502  0.00  0.00    +0.390 N 
ATOM     25  C   UNL     1      34.607 -14.377 -22.863  0.00  0.00    -0.026 C 
ATOM     26  C   UNL     1      34.591 -15.040 -21.481  0.00  0.00    -0.025 C 
ATOM     27  C   UNL     1      34.165 -15.387 -23.926  0.00  0.00    -0.025 C 
ATOM     28  C   UNL     1      35.396 -16.341 -21.479  0.00  0.00    -0.077 C 
ATOM     29  C   UNL     1      34.984 -16.678 -23.843  0.00  0.00    -0.077 C 
ATOM     30  H   UNL     1      33.919 -17.465 -22.304  0.00  0.00    -0.079 HD
BRANCH  25  31
ATOM     31  C   UNL     1      33.722 -13.134 -22.886  0.00  0.00    -0.086 C 
BRANCH  31  32
ATOM     32  N   UNL     1      34.475 -11.968 -23.320  0.00  0.00    +0.380 N 
ATOM     33  H   UNL     1      34.002 -11.121 -23.006  0.00  0.00    -0.089 HD
ATOM     34  H   UNL     1      34.538 -11.964 -24.338  0.00  0.00    -0.089 HD
ATOM     35  H   UNL     1      35.414 -12.001 -22.922  0.00  0.00    -0.089 HD
ENDBRANCH  31  32
ENDBRANCH  25  31
ENDBRANCH  23  24
ENDBRANCH   2  23
TORSDOF 5
ENDMDL
MODEL 5
REMARK VINA RESULT:     -12.3      3.031     10.493
REMARK  Name = 10156987
REMARK  5 active torsions:
REMARK  status: ('A' for Active; 'I' for Inactive)
REMARK    1  A    between atoms: C_2  and  C_23
REMARK    2  A    between atoms: C_9  and  C_13
REMARK    3  A    between atoms: C_23  and  N_24
REMARK    4  A    between atoms: C_25  and  C_31
REMARK    5  A    between atoms: C_31  and  N_32
REMARK                            x       y       z     vdW  Elec       q    Type
REMARK                         _______ _______ _______ _____ _____    ______ ____
ROOT
ATOM      1  N   UNL     1      34.381 -15.036 -22.640  0.00  0.00    -0.312 N 
ATOM      2  C   UNL     1      35.994 -18.489 -21.092  0.00  0.00    -0.043 C 
ATOM      3  C   UNL     1      35.624 -17.405 -20.295  0.00  0.00    -0.005 C 
ATOM      4  C   UNL     1      35.834 -18.460 -22.472  0.00  0.00    -0.005 C 
ATOM      5  C   UNL     1      35.078 -16.261 -20.910  0.00  0.00    +0.014 C 
ATOM      6  C   UNL     1      34.928 -16.254 -22.299  0.00  0.00    +0.048 C 
ATOM      7  C   UNL     1      35.296 -17.336 -23.104  0.00  0.00    +0.014 C 
ATOM      8  C   UNL     1      34.604 -15.008 -20.432  0.00  0.00    +0.016 C 
ATOM      9  C   UNL     1      34.182 -14.277 -21.519  0.00  0.00    +0.053 C 
ATOM     10  H   UNL     1      34.165 -14.753 -23.558  0.00  0.00    +0.152 HD
ENDROOT
BRANCH   9  13
ATOM     11  O   UNL     1      34.302 -12.785 -23.953  0.00  0.00    -0.270 OA
ATOM     12  N   UNL     1      33.140 -11.015 -23.076  0.00  0.00    -0.280 N 
ATOM     13  C   UNL     1      33.619 -12.972 -21.677  0.00  0.00    +0.067 C 
ATOM     14  C   UNL     1      32.994 -12.386 -20.641  0.00  0.00    +0.007 C 
ATOM     15  C   UNL     1      33.722 -12.267 -22.999  0.00  0.00    +0.251 C 
ATOM     16  C   UNL     1      32.401 -11.058 -20.771  0.00  0.00    +0.014 C 
ATOM     17  C   UNL     1      32.485 -10.395 -22.000  0.00  0.00    +0.051 C 
ATOM     18  C   UNL     1      31.750 -10.438 -19.701  0.00  0.00    +0.001 C 
ATOM     19  C   UNL     1      31.927  -9.124 -22.164  0.00  0.00    +0.015 C 
ATOM     20  C   UNL     1      31.191  -9.168 -19.863  0.00  0.00    +0.000 C 
ATOM     21  C   UNL     1      31.280  -8.513 -21.091  0.00  0.00    +0.001 C 
ATOM     22  H   UNL     1      33.187 -10.532 -23.933  0.00  0.00    +0.155 HD
ENDBRANCH   9  13
BRANCH   2  23
ATOM     23  C   UNL     1      36.577 -19.709 -20.442  0.00  0.00    -0.050 C 
BRANCH  23  24
ATOM     24  N   UNL     1      35.666 -20.294 -19.458  0.00  0.00    +0.390 N 
ATOM     25  C   UNL     1      34.028 -22.435 -18.304  0.00  0.00    -0.026 C 
ATOM     26  C   UNL     1      33.419 -21.255 -19.070  0.00  0.00    -0.025 C 
ATOM     27  C   UNL     1      35.381 -22.025 -17.713  0.00  0.00    -0.025 C 
ATOM     28  C   UNL     1      34.403 -20.691 -20.096  0.00  0.00    -0.077 C 
ATOM     29  C   UNL     1      36.301 -21.435 -18.784  0.00  0.00    -0.077 C 
ATOM     30  H   UNL     1      35.453 -19.590 -18.751  0.00  0.00    -0.079 HD
BRANCH  25  31
ATOM     31  C   UNL     1      33.080 -22.929 -17.214  0.00  0.00    -0.086 C 
BRANCH  31  32
ATOM     32  N   UNL     1      31.754 -22.355 -17.380  0.00  0.00    +0.380 N 
ATOM     33  H   UNL     1      31.608 -21.629 -16.679  0.00  0.00    -0.089 HD
ATOM     34  H   UNL     1      31.051 -23.085 -17.264  0.00  0.00    -0.089 HD
ATOM     35  H   UNL     1      31.672 -21.950 -18.313  0.00  0.00    -0.089 HD
ENDBRANCH  31  32
ENDBRANCH  25  31
ENDBRANCH  23  24
ENDBRANCH   2  23
TORSDOF 5
ENDMDL
MODEL 6
REMARK VINA RESULT:     -12.2      2.963      5.831
REMARK  Name = 10156987
REMARK  5 active torsions:
REMARK  status: ('A' for Active; 'I' for Inactive)
REMARK    1  A    between atoms: C_2  and  C_23
REMARK    2  A    between atoms: C_9  and  C_13
REMARK    3  A    between atoms: C_23  and  N_24
REMARK    4  A    between atoms: C_25  and  C_31
REMARK    5  A    between atoms: C_31  and  N_32
REMARK                            x       y       z     vdW  Elec       q    Type
REMARK                         _______ _______ _______ _____ _____    ______ ____
ROOT
ATOM      1  N   UNL     1      34.484 -16.901 -23.141  0.00  0.00    -0.312 N 
ATOM      2  C   UNL     1      34.039 -12.914 -24.048  0.00  0.00    -0.043 C 
ATOM      3  C   UNL     1      34.450 -13.361 -22.792  0.00  0.00    -0.005 C 
ATOM      4  C   UNL     1      33.755 -13.805 -25.076  0.00  0.00    -0.005 C 
ATOM      5  C   UNL     1      34.576 -14.747 -22.569  0.00  0.00    +0.014 C 
ATOM      6  C   UNL     1      34.284 -15.624 -23.616  0.00  0.00    +0.048 C 
ATOM      7  C   UNL     1      33.872 -15.184 -24.878  0.00  0.00    +0.014 C 
ATOM      8  C   UNL     1      34.956 -15.542 -21.452  0.00  0.00    +0.016 C 
ATOM      9  C   UNL     1      34.890 -16.861 -21.835  0.00  0.00    +0.053 C 
ATOM     10  H   UNL     1      34.353 -17.724 -23.666  0.00  0.00    +0.152 HD
ENDROOT
BRANCH   9  13
ATOM     11  O   UNL     1      37.509 -17.931 -21.434  0.00  0.00    -0.270 OA
ATOM     12  N   UNL     1      36.725 -19.779 -20.327  0.00  0.00    -0.280 N 
ATOM     13  C   UNL     1      35.147 -18.100 -21.169  0.00  0.00    +0.067 C 
ATOM     14  C   UNL     1      34.119 -18.827 -20.695  0.00  0.00    +0.007 C 
ATOM     15  C   UNL     1      36.560 -18.580 -20.995  0.00  0.00    +0.251 C 
ATOM     16  C   UNL     1      34.347 -20.093 -20.002  0.00  0.00    +0.014 C 
ATOM     17  C   UNL     1      35.659 -20.545 -19.829  0.00  0.00    +0.051 C 
ATOM     18  C   UNL     1      33.287 -20.858 -19.507  0.00  0.00    +0.001 C 
ATOM     19  C   UNL     1      35.916 -21.749 -19.169  0.00  0.00    +0.015 C 
ATOM     20  C   UNL     1      33.542 -22.062 -18.847  0.00  0.00    +0.000 C 
ATOM     21  C   UNL     1      34.853 -22.506 -18.679  0.00  0.00    +0.001 C 
ATOM     22  H   UNL     1      37.641 -20.114 -20.194  0.00  0.00    +0.155 HD
ENDBRANCH   9  13
BRANCH   2  23
ATOM     23  C   UNL     1      33.902 -11.440 -24.291  0.00  0.00    -0.050 C 
BRANCH  23  24
ATOM     24  N   UNL     1      33.626 -10.705 -23.057  0.00  0.00    +0.390 N 
ATOM     25  C   UNL     1      32.090  -8.893 -21.337  0.00  0.00    -0.026 C 
ATOM     26  C   UNL     1      33.398  -8.471 -22.016  0.00  0.00    -0.025 C 
ATOM     27  C   UNL     1      32.068 -10.414 -21.157  0.00  0.00    -0.025 C 
ATOM     28  C   UNL     1      33.632  -9.256 -23.308  0.00  0.00    -0.077 C 
ATOM     29  C   UNL     1      32.346 -11.136 -22.477  0.00  0.00    -0.077 C 
ATOM     30  H   UNL     1      34.362 -10.910 -22.382  0.00  0.00    -0.079 HD
BRANCH  25  31
ATOM     31  C   UNL     1      31.911  -8.179 -19.999  0.00  0.00    -0.086 C 
BRANCH  31  32
ATOM     32  N   UNL     1      33.193  -7.740 -19.470  0.00  0.00    +0.380 N 
ATOM     33  H   UNL     1      33.129  -6.760 -19.197  0.00  0.00    -0.089 HD
ATOM     34  H   UNL     1      33.911  -7.848 -20.186  0.00  0.00    -0.089 HD
ATOM     35  H   UNL     1      33.437  -8.305 -18.656  0.00  0.00    -0.089 HD
ENDBRANCH  31  32
ENDBRANCH  25  31
ENDBRANCH  23  24
ENDBRANCH   2  23
TORSDOF 5
ENDMDL
MODEL 7
REMARK VINA RESULT:     -12.1      3.344     11.317
REMARK  Name = 10156987
REMARK  5 active torsions:
REMARK  status: ('A' for Active; 'I' for Inactive)
REMARK    1  A    between atoms: C_2  and  C_23
REMARK    2  A    between atoms: C_9  and  C_13
REMARK    3  A    between atoms: C_23  and  N_24
REMARK    4  A    between atoms: C_25  and  C_31
REMARK    5  A    between atoms: C_31  and  N_32
REMARK                            x       y       z     vdW  Elec       q    Type
REMARK                         _______ _______ _______ _____ _____    ______ ____
ROOT
ATOM      1  N   UNL     1      33.313 -13.352 -23.496  0.00  0.00    -0.312 N 
ATOM      2  C   UNL     1      35.279 -16.890 -22.768  0.00  0.00    -0.043 C 
ATOM      3  C   UNL     1      35.199 -15.864 -21.826  0.00  0.00    -0.005 C 
ATOM      4  C   UNL     1      34.689 -16.771 -24.020  0.00  0.00    -0.005 C 
ATOM      5  C   UNL     1      34.504 -14.684 -22.161  0.00  0.00    +0.014 C 
ATOM      6  C   UNL     1      33.920 -14.586 -23.426  0.00  0.00    +0.048 C 
ATOM      7  C   UNL     1      33.995 -15.611 -24.375  0.00  0.00    +0.014 C 
ATOM      8  C   UNL     1      34.227 -13.468 -21.478  0.00  0.00    +0.016 C 
ATOM      9  C   UNL     1      33.493 -12.669 -22.323  0.00  0.00    +0.053 C 
ATOM     10  H   UNL     1      32.820 -13.010 -24.277  0.00  0.00    +0.152 HD
ENDROOT
BRANCH   9  13
ATOM     11  O   UNL     1      31.203 -12.062 -20.726  0.00  0.00    -0.270 OA
ATOM     12  N   UNL     1      31.255  -9.836 -21.269  0.00  0.00    -0.280 N 
ATOM     13  C   UNL     1      32.930 -11.360 -22.210  0.00  0.00    +0.067 C 
ATOM     14  C   UNL     1      33.485 -10.336 -22.883  0.00  0.00    +0.007 C 
ATOM     15  C   UNL     1      31.729 -11.132 -21.337  0.00  0.00    +0.251 C 
ATOM     16  C   UNL     1      32.941  -8.984 -22.783  0.00  0.00    +0.014 C 
ATOM     17  C   UNL     1      31.827  -8.760 -21.967  0.00  0.00    +0.051 C 
ATOM     18  C   UNL     1      33.508  -7.913 -23.478  0.00  0.00    +0.001 C 
ATOM     19  C   UNL     1      31.279  -7.481 -21.844  0.00  0.00    +0.015 C 
ATOM     20  C   UNL     1      32.962  -6.632 -23.356  0.00  0.00    +0.000 C 
ATOM     21  C   UNL     1      31.851  -6.417 -22.542  0.00  0.00    +0.001 C 
ATOM     22  H   UNL     1      30.472  -9.657 -20.699  0.00  0.00    +0.155 HD
ENDBRANCH   9  13
BRANCH   2  23
ATOM     23  C   UNL     1      36.018 -18.148 -22.417  0.00  0.00    -0.050 C 
BRANCH  23  24
ATOM     24  N   UNL     1      35.455 -18.804 -21.238  0.00  0.00    +0.390 N 
ATOM     25  C   UNL     1      34.535 -21.104 -19.669  0.00  0.00    -0.026 C 
ATOM     26  C   UNL     1      33.565 -20.127 -20.341  0.00  0.00    -0.025 C 
ATOM     27  C   UNL     1      35.869 -20.404 -19.396  0.00  0.00    -0.025 C 
ATOM     28  C   UNL     1      34.195 -19.480 -21.577  0.00  0.00    -0.077 C 
ATOM     29  C   UNL     1      36.424 -19.748 -20.663  0.00  0.00    -0.077 C 
ATOM     30  H   UNL     1      35.252 -18.094 -20.534  0.00  0.00    -0.079 HD
BRANCH  25  31
ATOM     31  C   UNL     1      33.939 -21.670 -18.382  0.00  0.00    -0.086 C 
BRANCH  31  32
ATOM     32  N   UNL     1      32.530 -21.987 -18.558  0.00  0.00    +0.380 N 
ATOM     33  H   UNL     1      32.411 -22.999 -18.588  0.00  0.00    -0.089 HD
ATOM     34  H   UNL     1      32.197 -21.579 -19.432  0.00  0.00    -0.089 HD
ATOM     35  H   UNL     1      31.995 -21.605 -17.778  0.00  0.00    -0.089 HD
ENDBRANCH  31  32
ENDBRANCH  25  31
ENDBRANCH  23  24
ENDBRANCH   2  23
TORSDOF 5
ENDMDL
MODEL 8
REMARK VINA RESULT:     -12.1      3.673     11.589
REMARK  Name = 10156987
REMARK  5 active torsions:
REMARK  status: ('A' for Active; 'I' for Inactive)
REMARK    1  A    between atoms: C_2  and  C_23
REMARK    2  A    between atoms: C_9  and  C_13
REMARK    3  A    between atoms: C_23  and  N_24
REMARK    4  A    between atoms: C_25  and  C_31
REMARK    5  A    between atoms: C_31  and  N_32
REMARK                            x       y       z     vdW  Elec       q    Type
REMARK                         _______ _______ _______ _____ _____    ______ ____
ROOT
ATOM      1  N   UNL     1      32.921 -12.320 -23.894  0.00  0.00    -0.312 N 
ATOM      2  C   UNL     1      34.585 -16.081 -23.958  0.00  0.00    -0.043 C 
ATOM      3  C   UNL     1      34.662 -15.241 -22.847  0.00  0.00    -0.005 C 
ATOM      4  C   UNL     1      33.932 -15.687 -25.120  0.00  0.00    -0.005 C 
ATOM      5  C   UNL     1      34.062 -13.967 -22.913  0.00  0.00    +0.014 C 
ATOM      6  C   UNL     1      33.412 -13.592 -24.090  0.00  0.00    +0.048 C 
ATOM      7  C   UNL     1      33.331 -14.429 -25.208  0.00  0.00    +0.014 C 
ATOM      8  C   UNL     1      33.944 -12.878 -22.006  0.00  0.00    +0.016 C 
ATOM      9  C   UNL     1      33.238 -11.881 -22.637  0.00  0.00    +0.053 C 
ATOM     10  H   UNL     1      32.416 -11.802 -24.561  0.00  0.00    +0.152 HD
ENDROOT
BRANCH   9  13
ATOM     11  O   UNL     1      31.171 -11.391 -20.726  0.00  0.00    -0.270 OA
ATOM     12  N   UNL     1      31.375  -9.114 -20.898  0.00  0.00    -0.280 N 
ATOM     13  C   UNL     1      32.810 -10.573 -22.250  0.00  0.00    +0.067 C 
ATOM     14  C   UNL     1      33.391  -9.492 -22.801  0.00  0.00    +0.007 C 
ATOM     15  C   UNL     1      31.721 -10.411 -21.228  0.00  0.00    +0.251 C 
ATOM     16  C   UNL     1      32.984  -8.141 -22.422  0.00  0.00    +0.014 C 
ATOM     17  C   UNL     1      31.976  -7.980 -21.467  0.00  0.00    +0.051 C 
ATOM     18  C   UNL     1      33.580  -7.011 -22.988  0.00  0.00    +0.001 C 
ATOM     19  C   UNL     1      31.561  -6.704 -21.077  0.00  0.00    +0.015 C 
ATOM     20  C   UNL     1      33.167  -5.734 -22.600  0.00  0.00    +0.000 C 
ATOM     21  C   UNL     1      32.160  -5.581 -21.647  0.00  0.00    +0.001 C 
ATOM     22  H   UNL     1      30.668  -8.979 -20.226  0.00  0.00    +0.155 HD
ENDBRANCH   9  13
BRANCH   2  23
ATOM     23  C   UNL     1      35.222 -17.438 -23.895  0.00  0.00    -0.050 C 
BRANCH  23  24
ATOM     24  N   UNL     1      35.116 -18.032 -22.562  0.00  0.00    +0.390 N 
ATOM     25  C   UNL     1      35.369 -20.189 -20.592  0.00  0.00    -0.026 C 
ATOM     26  C   UNL     1      34.018 -19.765 -21.178  0.00  0.00    -0.025 C 
ATOM     27  C   UNL     1      36.353 -19.017 -20.659  0.00  0.00    -0.025 C 
ATOM     28  C   UNL     1      34.182 -19.166 -22.576  0.00  0.00    -0.077 C 
ATOM     29  C   UNL     1      36.440 -18.442 -22.075  0.00  0.00    -0.077 C 
ATOM     30  H   UNL     1      34.748 -17.330 -21.920  0.00  0.00    -0.079 HD
BRANCH  25  31
ATOM     31  C   UNL     1      35.213 -20.692 -19.159  0.00  0.00    -0.086 C 
BRANCH  31  32
ATOM     32  N   UNL     1      36.511 -20.886 -18.533  0.00  0.00    +0.380 N 
ATOM     33  H   UNL     1      37.237 -20.881 -19.248  0.00  0.00    -0.089 HD
ATOM     34  H   UNL     1      36.522 -21.782 -18.043  0.00  0.00    -0.089 HD
ATOM     35  H   UNL     1      36.683 -20.133 -17.867  0.00  0.00    -0.089 HD
ENDBRANCH  31  32
ENDBRANCH  25  31
ENDBRANCH  23  24
ENDBRANCH   2  23
TORSDOF 5
ENDMDL
MODEL 9
REMARK VINA RESULT:     -11.9      1.401      2.269
REMARK  Name = 10156987
REMARK  5 active torsions:
REMARK  status: ('A' for Active; 'I' for Inactive)
REMARK    1  A    between atoms: C_2  and  C_23
REMARK    2  A    between atoms: C_9  and  C_13
REMARK    3  A    between atoms: C_23  and  N_24
REMARK    4  A    between atoms: C_25  and  C_31
REMARK    5  A    between atoms: C_31  and  N_32
REMARK                            x       y       z     vdW  Elec       q    Type
REMARK                         _______ _______ _______ _____ _____    ______ ____
ROOT
ATOM      1  N   UNL     1      35.733 -20.295 -19.417  0.00  0.00    -0.312 N 
ATOM      2  C   UNL     1      35.110 -18.250 -22.931  0.00  0.00    -0.043 C 
ATOM      3  C   UNL     1      34.120 -19.023 -22.322  0.00  0.00    -0.005 C 
ATOM      4  C   UNL     1      36.376 -18.127 -22.374  0.00  0.00    -0.005 C 
ATOM      5  C   UNL     1      34.422 -19.691 -21.118  0.00  0.00    +0.014 C 
ATOM      6  C   UNL     1      35.702 -19.553 -20.577  0.00  0.00    +0.048 C 
ATOM      7  C   UNL     1      36.699 -18.780 -21.182  0.00  0.00    +0.014 C 
ATOM      8  C   UNL     1      33.688 -20.539 -20.243  0.00  0.00    +0.016 C 
ATOM      9  C   UNL     1      34.521 -20.895 -19.208  0.00  0.00    +0.053 C 
ATOM     10  H   UNL     1      36.515 -20.382 -18.825  0.00  0.00    +0.152 HD
ENDROOT
BRANCH   9  13
ATOM     11  O   UNL     1      36.704 -21.815 -17.610  0.00  0.00    -0.270 OA
ATOM     12  N   UNL     1      35.333 -22.916 -16.141  0.00  0.00    -0.280 N 
ATOM     13  C   UNL     1      34.363 -21.712 -18.045  0.00  0.00    +0.067 C 
ATOM     14  C   UNL     1      33.132 -22.088 -17.657  0.00  0.00    +0.007 C 
ATOM     15  C   UNL     1      35.570 -22.140 -17.260  0.00  0.00    +0.251 C 
ATOM     16  C   UNL     1      32.935 -22.915 -16.469  0.00  0.00    +0.014 C 
ATOM     17  C   UNL     1      34.051 -23.314 -15.728  0.00  0.00    +0.051 C 
ATOM     18  C   UNL     1      31.660 -23.314 -16.058  0.00  0.00    +0.001 C 
ATOM     19  C   UNL     1      33.902 -24.103 -14.584  0.00  0.00    +0.015 C 
ATOM     20  C   UNL     1      31.509 -24.102 -14.915  0.00  0.00    +0.000 C 
ATOM     21  C   UNL     1      32.627 -24.497 -14.181  0.00  0.00    +0.001 C 
ATOM     22  H   UNL     1      36.106 -23.206 -15.604  0.00  0.00    +0.155 HD
ENDBRANCH   9  13
BRANCH   2  23
ATOM     23  C   UNL     1      34.795 -17.539 -24.214  0.00  0.00    -0.050 C 
BRANCH  23  24
ATOM     24  N   UNL     1      34.702 -16.091 -24.029  0.00  0.00    +0.390 N 
ATOM     25  C   UNL     1      33.435 -13.611 -23.107  0.00  0.00    -0.026 C 
ATOM     26  C   UNL     1      33.437 -14.036 -24.580  0.00  0.00    -0.025 C 
ATOM     27  C   UNL     1      34.630 -14.242 -22.386  0.00  0.00    -0.025 C 
ATOM     28  C   UNL     1      33.519 -15.558 -24.720  0.00  0.00    -0.077 C 
ATOM     29  C   UNL     1      34.674 -15.757 -22.598  0.00  0.00    -0.077 C 
ATOM     30  H   UNL     1      35.528 -15.655 -24.437  0.00  0.00    -0.079 HD
BRANCH  25  31
ATOM     31  C   UNL     1      33.453 -12.091 -22.975  0.00  0.00    -0.086 C 
BRANCH  31  32
ATOM     32  N   UNL     1      34.545 -11.516 -23.745  0.00  0.00    +0.380 N 
ATOM     33  H   UNL     1      35.155 -12.262 -24.079  0.00  0.00    -0.089 HD
ATOM     34  H   UNL     1      35.080 -10.880 -23.153  0.00  0.00    -0.089 HD
ATOM     35  H   UNL     1      34.167 -11.003 -24.541  0.00  0.00    -0.089 HD
ENDBRANCH  31  32
ENDBRANCH  25  31
ENDBRANCH  23  24
ENDBRANCH   2  23
TORSDOF 5
ENDMDL
