MODEL 1
REMARK VINA RESULT:     -11.4      0.000      0.000
REMARK  Name = 656948
REMARK  8 active torsions:
REMARK  status: ('A' for Active; 'I' for Inactive)
REMARK    1  A    between atoms: N_1  and  C_3
REMARK    2  A    between atoms: N_1  and  C_18
REMARK    3  A    between atoms: C_6  and  C_10
REMARK    4  A    between atoms: C_10  and  O_11
REMARK    5  A    between atoms: O_11  and  P_12
REMARK    6  A    between atoms: P_12  and  O_14
REMARK    7  A    between atoms: P_12  and  O_16
REMARK    8  A    between atoms: C_18  and  C_25
REMARK                            x       y       z     vdW  Elec       q    Type
REMARK                         _______ _______ _______ _____ _____    ______ ____
ROOT
ATOM      1  N   UNL     1      34.261 -19.289 -21.615  0.00  0.00    -0.327 N 
ATOM      2  H   UNL     1      33.369 -19.140 -22.003  0.00  0.00    +0.147 HD
ENDROOT
BRANCH   1   3
ATOM      3  C   UNL     1      34.368 -20.137 -20.527  0.00  0.00    +0.045 C 
ATOM      4  C   UNL     1      35.628 -20.506 -20.016  0.00  0.00    +0.015 C 
ATOM      5  C   UNL     1      33.219 -20.656 -19.898  0.00  0.00    +0.015 C 
ATOM      6  C   UNL     1      34.584 -21.864 -18.312  0.00  0.00    +0.076 C 
ATOM      7  C   UNL     1      35.735 -21.360 -18.920  0.00  0.00    +0.008 C 
ATOM      8  C   UNL     1      33.327 -21.512 -18.801  0.00  0.00    +0.008 C 
BRANCH   6  10
ATOM      9  O   UNL     1      33.828 -23.558 -16.807  0.00  0.00    -0.245 OA
ATOM     10  C   UNL     1      34.696 -22.754 -17.168  0.00  0.00    +0.348 C 
BRANCH  10  11
ATOM     11  O   UNL     1      35.886 -22.605 -16.521  0.00  0.00    -0.368 OA
BRANCH  11  12
ATOM     12  P   UNL     1      36.205 -23.082 -15.009  0.00  0.00    +0.530 P 
ATOM     13  O   UNL     1      37.541 -22.647 -14.479  0.00  0.00    -0.216 OA
BRANCH  12  14
ATOM     14  O   UNL     1      35.965 -24.680 -15.054  0.00  0.00    -0.293 OA
ATOM     15  H   UNL     1      35.238 -24.915 -14.457  0.00  0.00    +0.223 HD
ENDBRANCH  12  14
BRANCH  12  16
ATOM     16  O   UNL     1      34.930 -22.535 -14.179  0.00  0.00    -0.293 OA
ATOM     17  H   UNL     1      34.131 -23.001 -14.471  0.00  0.00    +0.223 HD
ENDBRANCH  12  16
ENDBRANCH  11  12
ENDBRANCH  10  11
ENDBRANCH   6  10
ENDBRANCH   1   3
BRANCH   1  18
ATOM     18  C   UNL     1      35.391 -18.608 -22.213  0.00  0.00    +0.145 C 
BRANCH  18  25
ATOM     19  O   UNL     1      33.564 -15.892 -25.908  0.00  0.00    -0.206 OA
ATOM     20  N   UNL     1      34.584 -16.797 -23.611  0.00  0.00    -0.391 NA
ATOM     21  N   UNL     1      34.269 -13.206 -23.033  0.00  0.00    -0.259 N 
ATOM     22  N   UNL     1      35.086 -14.931 -21.575  0.00  0.00    -0.246 NA
ATOM     23  N   UNL     1      33.497 -13.696 -25.232  0.00  0.00    -0.300 NA
ATOM     24  N   UNL     1      33.500 -11.512 -24.378  0.00  0.00    -0.320 N 
ATOM     25  C   UNL     1      35.094 -17.164 -22.421  0.00  0.00    +0.132 C 
ATOM     26  C   UNL     1      34.332 -15.480 -23.753  0.00  0.00    +0.255 C 
ATOM     27  C   UNL     1      34.573 -14.543 -22.762  0.00  0.00    +0.173 C 
ATOM     28  C   UNL     1      35.342 -16.247 -21.422  0.00  0.00    +0.183 C 
ATOM     29  C   UNL     1      33.769 -15.040 -25.049  0.00  0.00    +0.240 C 
ATOM     30  C   UNL     1      33.747 -12.857 -24.259  0.00  0.00    +0.249 C 
ATOM     31  H   UNL     1      34.429 -12.515 -22.349  0.00  0.00    +0.157 HD
ATOM     32  H   UNL     1      33.700 -10.907 -23.627  0.00  0.00    +0.146 HD
ATOM     33  H   UNL     1      33.126 -11.152 -25.214  0.00  0.00    +0.146 HD
ENDBRANCH  18  25
ENDBRANCH   1  18
TORSDOF 8
ENDMDL
MODEL 2
REMARK VINA RESULT:     -11.3      1.426      2.251
REMARK  Name = 656948
REMARK  8 active torsions:
REMARK  status: ('A' for Active; 'I' for Inactive)
REMARK    1  A    between atoms: N_1  and  C_3
REMARK    2  A    between atoms: N_1  and  C_18
REMARK    3  A    between atoms: C_6  and  C_10
REMARK    4  A    between atoms: C_10  and  O_11
REMARK    5  A    between atoms: O_11  and  P_12
REMARK    6  A    between atoms: P_12  and  O_14
REMARK    7  A    between atoms: P_12  and  O_16
REMARK    8  A    between atoms: C_18  and  C_25
REMARK                            x       y       z     vdW  Elec       q    Type
REMARK                         _______ _______ _______ _____ _____    ______ ____
ROOT
ATOM      1  N   UNL     1      34.950 -18.594 -21.390  0.00  0.00    -0.327 N 
ATOM      2  H   UNL     1      35.077 -17.694 -21.011  0.00  0.00    +0.147 HD
ENDROOT
BRANCH   1   3
ATOM      3  C   UNL     1      34.762 -19.650 -20.517  0.00  0.00    +0.045 C 
ATOM      4  C   UNL     1      33.466 -20.089 -20.179  0.00  0.00    +0.015 C 
ATOM      5  C   UNL     1      35.860 -20.318 -19.940  0.00  0.00    +0.015 C 
ATOM      6  C   UNL     1      34.378 -21.801 -18.738  0.00  0.00    +0.076 C 
ATOM      7  C   UNL     1      33.277 -21.154 -19.299  0.00  0.00    +0.008 C 
ATOM      8  C   UNL     1      35.669 -21.383 -19.059  0.00  0.00    +0.008 C 
BRANCH   6  10
ATOM      9  O   UNL     1      33.434 -23.876 -18.025  0.00  0.00    -0.245 OA
ATOM     10  C   UNL     1      34.180 -22.911 -17.821  0.00  0.00    +0.348 C 
BRANCH  10  11
ATOM     11  O   UNL     1      34.920 -22.772 -16.685  0.00  0.00    -0.368 OA
BRANCH  11  12
ATOM     12  P   UNL     1      34.622 -23.494 -15.269  0.00  0.00    +0.530 P 
ATOM     13  O   UNL     1      35.300 -24.821 -15.083  0.00  0.00    -0.216 OA
BRANCH  12  14
ATOM     14  O   UNL     1      33.008 -23.524 -15.188  0.00  0.00    -0.293 OA
ATOM     15  H   UNL     1      32.638 -23.509 -16.085  0.00  0.00    +0.223 HD
ENDBRANCH  12  14
BRANCH  12  16
ATOM     16  O   UNL     1      35.030 -22.361 -14.190  0.00  0.00    -0.293 OA
ATOM     17  H   UNL     1      34.370 -21.650 -14.204  0.00  0.00    +0.223 HD
ENDBRANCH  12  16
ENDBRANCH  11  12
ENDBRANCH  10  11
ENDBRANCH   6  10
ENDBRANCH   1   3
BRANCH   1  18
ATOM     18  C   UNL     1      34.972 -18.740 -22.831  0.00  0.00    +0.145 C 
BRANCH  18  25
ATOM     19  O   UNL     1      35.035 -13.944 -21.667  0.00  0.00    -0.206 OA
ATOM     20  N   UNL     1      34.735 -16.326 -22.837  0.00  0.00    -0.391 NA
ATOM     21  N   UNL     1      33.393 -14.001 -25.312  0.00  0.00    -0.259 N 
ATOM     22  N   UNL     1      33.587 -16.394 -25.398  0.00  0.00    -0.246 NA
ATOM     23  N   UNL     1      34.128 -12.759 -23.416  0.00  0.00    -0.300 NA
ATOM     24  N   UNL     1      33.180 -11.716 -25.290  0.00  0.00    -0.320 N 
ATOM     25  C   UNL     1      34.548 -17.482 -23.502  0.00  0.00    +0.132 C 
ATOM     26  C   UNL     1      34.336 -15.213 -23.485  0.00  0.00    +0.255 C 
ATOM     27  C   UNL     1      33.766 -15.224 -24.747  0.00  0.00    +0.173 C 
ATOM     28  C   UNL     1      33.983 -17.514 -24.759  0.00  0.00    +0.183 C 
ATOM     29  C   UNL     1      34.526 -13.924 -22.784  0.00  0.00    +0.240 C 
ATOM     30  C   UNL     1      33.596 -12.833 -24.610  0.00  0.00    +0.249 C 
ATOM     31  H   UNL     1      32.985 -13.975 -26.208  0.00  0.00    +0.157 HD
ATOM     32  H   UNL     1      32.782 -11.804 -26.186  0.00  0.00    +0.146 HD
ATOM     33  H   UNL     1      33.278 -10.825 -24.881  0.00  0.00    +0.146 HD
ENDBRANCH  18  25
ENDBRANCH   1  18
TORSDOF 8
ENDMDL
MODEL 3
REMARK VINA RESULT:     -11.0      6.273     10.833
REMARK  Name = 656948
REMARK  8 active torsions:
REMARK  status: ('A' for Active; 'I' for Inactive)
REMARK    1  A    between atoms: N_1  and  C_3
REMARK    2  A    between atoms: N_1  and  C_18
REMARK    3  A    between atoms: C_6  and  C_10
REMARK    4  A    between atoms: C_10  and  O_11
REMARK    5  A    between atoms: O_11  and  P_12
REMARK    6  A    between atoms: P_12  and  O_14
REMARK    7  A    between atoms: P_12  and  O_16
REMARK    8  A    between atoms: C_18  and  C_25
REMARK                            x       y       z     vdW  Elec       q    Type
REMARK                         _______ _______ _______ _____ _____    ______ ____
ROOT
ATOM      1  N   UNL     1      33.790 -23.199 -16.962  0.00  0.00    -0.327 N 
ATOM      2  H   UNL     1      33.448 -24.093 -17.193  0.00  0.00    +0.147 HD
ENDROOT
BRANCH   1   3
ATOM      3  C   UNL     1      34.024 -22.303 -17.990  0.00  0.00    +0.045 C 
ATOM      4  C   UNL     1      35.335 -22.012 -18.413  0.00  0.00    +0.015 C 
ATOM      5  C   UNL     1      32.957 -21.656 -18.643  0.00  0.00    +0.015 C 
ATOM      6  C   UNL     1      34.499 -20.479 -20.083  0.00  0.00    +0.076 C 
ATOM      7  C   UNL     1      35.571 -21.110 -19.450  0.00  0.00    +0.008 C 
ATOM      8  C   UNL     1      33.193 -20.752 -19.680  0.00  0.00    +0.008 C 
BRANCH   6  10
ATOM      9  O   UNL     1      34.954 -19.849 -22.343  0.00  0.00    -0.245 OA
ATOM     10  C   UNL     1      34.745 -19.538 -21.164  0.00  0.00    +0.348 C 
BRANCH  10  11
ATOM     11  O   UNL     1      34.721 -18.246 -20.730  0.00  0.00    -0.368 OA
BRANCH  11  12
ATOM     12  P   UNL     1      35.312 -16.970 -21.529  0.00  0.00    +0.530 P 
ATOM     13  O   UNL     1      35.238 -15.669 -20.782  0.00  0.00    -0.216 OA
BRANCH  12  14
ATOM     14  O   UNL     1      34.523 -17.005 -22.939  0.00  0.00    -0.293 OA
ATOM     15  H   UNL     1      34.784 -17.796 -23.437  0.00  0.00    +0.223 HD
ENDBRANCH  12  14
BRANCH  12  16
ATOM     16  O   UNL     1      36.805 -17.449 -21.923  0.00  0.00    -0.293 OA
ATOM     17  H   UNL     1      37.398 -17.308 -21.169  0.00  0.00    +0.223 HD
ENDBRANCH  12  16
ENDBRANCH  11  12
ENDBRANCH  10  11
ENDBRANCH   6  10
ENDBRANCH   1   3
BRANCH   1  18
ATOM     18  C   UNL     1      34.022 -22.894 -15.565  0.00  0.00    +0.145 C 
BRANCH  18  25
ATOM     19  O   UNL     1      36.218 -27.274 -14.967  0.00  0.00    -0.206 OA
ATOM     20  N   UNL     1      35.595 -24.679 -15.097  0.00  0.00    -0.391 NA
ATOM     21  N   UNL     1      39.064 -24.654 -13.955  0.00  0.00    -0.259 N 
ATOM     22  N   UNL     1      37.577 -22.819 -14.394  0.00  0.00    -0.246 NA
ATOM     23  N   UNL     1      38.371 -26.915 -14.247  0.00  0.00    -0.300 NA
ATOM     24  N   UNL     1      40.532 -26.364 -13.519  0.00  0.00    -0.320 N 
ATOM     25  C   UNL     1      35.370 -23.353 -15.135  0.00  0.00    +0.132 C 
ATOM     26  C   UNL     1      36.831 -25.047 -14.702  0.00  0.00    +0.255 C 
ATOM     27  C   UNL     1      37.822 -24.146 -14.350  0.00  0.00    +0.173 C 
ATOM     28  C   UNL     1      36.344 -22.440 -14.789  0.00  0.00    +0.183 C 
ATOM     29  C   UNL     1      37.114 -26.499 -14.648  0.00  0.00    +0.240 C 
ATOM     30  C   UNL     1      39.267 -26.016 -13.926  0.00  0.00    +0.249 C 
ATOM     31  H   UNL     1      39.789 -24.040 -13.699  0.00  0.00    +0.157 HD
ATOM     32  H   UNL     1      41.183 -25.664 -13.283  0.00  0.00    +0.146 HD
ATOM     33  H   UNL     1      40.786 -27.313 -13.461  0.00  0.00    +0.146 HD
ENDBRANCH  18  25
ENDBRANCH   1  18
TORSDOF 8
ENDMDL
MODEL 4
REMARK VINA RESULT:     -10.8      4.847     10.223
REMARK  Name = 656948
REMARK  8 active torsions:
REMARK  status: ('A' for Active; 'I' for Inactive)
REMARK    1  A    between atoms: N_1  and  C_3
REMARK    2  A    between atoms: N_1  and  C_18
REMARK    3  A    between atoms: C_6  and  C_10
REMARK    4  A    between atoms: C_10  and  O_11
REMARK    5  A    between atoms: O_11  and  P_12
REMARK    6  A    between atoms: P_12  and  O_14
REMARK    7  A    between atoms: P_12  and  O_16
REMARK    8  A    between atoms: C_18  and  C_25
REMARK                            x       y       z     vdW  Elec       q    Type
REMARK                         _______ _______ _______ _____ _____    ______ ____
ROOT
ATOM      1  N   UNL     1      34.714 -20.267 -20.206  0.00  0.00    -0.327 N 
ATOM      2  H   UNL     1      35.542 -20.571 -19.767  0.00  0.00    +0.147 HD
ENDROOT
BRANCH   1   3
ATOM      3  C   UNL     1      34.796 -19.206 -21.090  0.00  0.00    +0.045 C 
ATOM      4  C   UNL     1      34.380 -19.345 -22.429  0.00  0.00    +0.015 C 
ATOM      5  C   UNL     1      35.298 -17.956 -20.677  0.00  0.00    +0.015 C 
ATOM      6  C   UNL     1      34.962 -17.046 -22.890  0.00  0.00    +0.076 C 
ATOM      7  C   UNL     1      34.462 -18.275 -23.319  0.00  0.00    +0.008 C 
ATOM      8  C   UNL     1      35.380 -16.887 -21.569  0.00  0.00    +0.008 C 
BRANCH   6  10
ATOM      9  O   UNL     1      35.059 -16.033 -25.052  0.00  0.00    -0.245 OA
ATOM     10  C   UNL     1      35.048 -15.931 -23.819  0.00  0.00    +0.348 C 
BRANCH  10  11
ATOM     11  O   UNL     1      35.116 -14.733 -23.172  0.00  0.00    -0.368 OA
BRANCH  11  12
ATOM     12  P   UNL     1      33.878 -13.724 -22.919  0.00  0.00    +0.530 P 
ATOM     13  O   UNL     1      33.282 -13.792 -21.542  0.00  0.00    -0.216 OA
BRANCH  12  14
ATOM     14  O   UNL     1      32.862 -14.055 -24.131  0.00  0.00    -0.293 OA
ATOM     15  H   UNL     1      32.150 -13.395 -24.146  0.00  0.00    +0.223 HD
ENDBRANCH  12  14
BRANCH  12  16
ATOM     16  O   UNL     1      34.493 -12.286 -23.327  0.00  0.00    -0.293 OA
ATOM     17  H   UNL     1      35.388 -12.202 -22.964  0.00  0.00    +0.223 HD
ENDBRANCH  12  16
ENDBRANCH  11  12
ENDBRANCH  10  11
ENDBRANCH   6  10
ENDBRANCH   1   3
BRANCH   1  18
ATOM     18  C   UNL     1      33.479 -20.954 -19.891  0.00  0.00    +0.145 C 
BRANCH  18  25
ATOM     19  O   UNL     1      30.327 -22.674 -16.503  0.00  0.00    -0.206 OA
ATOM     20  N   UNL     1      32.469 -22.009 -17.954  0.00  0.00    -0.391 NA
ATOM     21  N   UNL     1      33.900 -23.818 -15.123  0.00  0.00    -0.259 N 
ATOM     22  N   UNL     1      34.990 -22.802 -17.007  0.00  0.00    -0.246 NA
ATOM     23  N   UNL     1      31.533 -23.751 -14.869  0.00  0.00    -0.300 NA
ATOM     24  N   UNL     1      32.918 -24.807 -13.299  0.00  0.00    -0.320 N 
ATOM     25  C   UNL     1      33.602 -21.719 -18.620  0.00  0.00    +0.132 C 
ATOM     26  C   UNL     1      32.631 -22.703 -16.809  0.00  0.00    +0.255 C 
ATOM     27  C   UNL     1      33.865 -23.103 -16.324  0.00  0.00    +0.173 C 
ATOM     28  C   UNL     1      34.840 -22.108 -18.154  0.00  0.00    +0.183 C 
ATOM     29  C   UNL     1      31.407 -23.039 -16.049  0.00  0.00    +0.240 C 
ATOM     30  C   UNL     1      32.726 -24.101 -14.461  0.00  0.00    +0.249 C 
ATOM     31  H   UNL     1      34.762 -24.117 -14.751  0.00  0.00    +0.157 HD
ATOM     32  H   UNL     1      33.829 -25.055 -13.019  0.00  0.00    +0.146 HD
ATOM     33  H   UNL     1      32.146 -25.063 -12.746  0.00  0.00    +0.146 HD
ENDBRANCH  18  25
ENDBRANCH   1  18
TORSDOF 8
ENDMDL
MODEL 5
REMARK VINA RESULT:     -10.7      1.802      2.571
REMARK  Name = 656948
REMARK  8 active torsions:
REMARK  status: ('A' for Active; 'I' for Inactive)
REMARK    1  A    between atoms: N_1  and  C_3
REMARK    2  A    between atoms: N_1  and  C_18
REMARK    3  A    between atoms: C_6  and  C_10
REMARK    4  A    between atoms: C_10  and  O_11
REMARK    5  A    between atoms: O_11  and  P_12
REMARK    6  A    between atoms: P_12  and  O_14
REMARK    7  A    between atoms: P_12  and  O_16
REMARK    8  A    between atoms: C_18  and  C_25
REMARK                            x       y       z     vdW  Elec       q    Type
REMARK                         _______ _______ _______ _____ _____    ______ ____
ROOT
ATOM      1  N   UNL     1      35.734 -19.442 -21.076  0.00  0.00    -0.327 N 
ATOM      2  H   UNL     1      36.614 -19.076 -20.829  0.00  0.00    +0.147 HD
ENDROOT
BRANCH   1   3
ATOM      3  C   UNL     1      35.098 -20.277 -20.175  0.00  0.00    +0.045 C 
ATOM      4  C   UNL     1      33.694 -20.281 -20.057  0.00  0.00    +0.015 C 
ATOM      5  C   UNL     1      35.835 -21.148 -19.349  0.00  0.00    +0.015 C 
ATOM      6  C   UNL     1      33.803 -21.977 -18.340  0.00  0.00    +0.076 C 
ATOM      7  C   UNL     1      33.053 -21.122 -19.148  0.00  0.00    +0.008 C 
ATOM      8  C   UNL     1      35.193 -21.990 -18.440  0.00  0.00    +0.008 C 
BRANCH   6  10
ATOM      9  O   UNL     1      33.670 -23.797 -16.798  0.00  0.00    -0.245 OA
ATOM     10  C   UNL     1      33.134 -22.855 -17.393  0.00  0.00    +0.348 C 
BRANCH  10  11
ATOM     11  O   UNL     1      31.822 -22.522 -17.228  0.00  0.00    -0.368 OA
BRANCH  11  12
ATOM     12  P   UNL     1      30.898 -22.922 -15.963  0.00  0.00    +0.530 P 
ATOM     13  O   UNL     1      31.339 -22.339 -14.651  0.00  0.00    -0.216 OA
BRANCH  12  14
ATOM     14  O   UNL     1      30.847 -24.536 -16.022  0.00  0.00    -0.293 OA
ATOM     15  H   UNL     1      29.948 -24.840 -15.821  0.00  0.00    +0.223 HD
ENDBRANCH  12  14
BRANCH  12  16
ATOM     16  O   UNL     1      29.417 -22.483 -16.442  0.00  0.00    -0.293 OA
ATOM     17  H   UNL     1      29.365 -21.516 -16.483  0.00  0.00    +0.223 HD
ENDBRANCH  12  16
ENDBRANCH  11  12
ENDBRANCH  10  11
ENDBRANCH   6  10
ENDBRANCH   1   3
BRANCH   1  18
ATOM     18  C   UNL     1      35.176 -19.079 -22.362  0.00  0.00    +0.145 C 
BRANCH  18  25
ATOM     19  O   UNL     1      33.575 -15.972 -25.848  0.00  0.00    -0.206 OA
ATOM     20  N   UNL     1      34.492 -17.119 -23.617  0.00  0.00    -0.391 NA
ATOM     21  N   UNL     1      34.335 -13.577 -22.738  0.00  0.00    -0.259 N 
ATOM     22  N   UNL     1      35.032 -15.459 -21.418  0.00  0.00    -0.246 NA
ATOM     23  N   UNL     1      33.596 -13.841 -24.988  0.00  0.00    -0.300 NA
ATOM     24  N   UNL     1      33.683 -11.740 -23.949  0.00  0.00    -0.320 N 
ATOM     25  C   UNL     1      34.955 -17.610 -22.452  0.00  0.00    +0.132 C 
ATOM     26  C   UNL     1      34.307 -15.783 -23.650  0.00  0.00    +0.255 C 
ATOM     27  C   UNL     1      34.568 -14.947 -22.577  0.00  0.00    +0.173 C 
ATOM     28  C   UNL     1      35.220 -16.794 -21.373  0.00  0.00    +0.183 C 
ATOM     29  C   UNL     1      33.799 -15.208 -24.915  0.00  0.00    +0.240 C 
ATOM     30  C   UNL     1      33.861 -13.101 -23.941  0.00  0.00    +0.249 C 
ATOM     31  H   UNL     1      34.511 -12.956 -21.995  0.00  0.00    +0.157 HD
ATOM     32  H   UNL     1      33.892 -11.211 -23.145  0.00  0.00    +0.146 HD
ATOM     33  H   UNL     1      33.347 -11.292 -24.759  0.00  0.00    +0.146 HD
ENDBRANCH  18  25
ENDBRANCH   1  18
TORSDOF 8
ENDMDL
MODEL 6
REMARK VINA RESULT:     -10.4      4.427     10.190
REMARK  Name = 656948
REMARK  8 active torsions:
REMARK  status: ('A' for Active; 'I' for Inactive)
REMARK    1  A    between atoms: N_1  and  C_3
REMARK    2  A    between atoms: N_1  and  C_18
REMARK    3  A    between atoms: C_6  and  C_10
REMARK    4  A    between atoms: C_10  and  O_11
REMARK    5  A    between atoms: O_11  and  P_12
REMARK    6  A    between atoms: P_12  and  O_14
REMARK    7  A    between atoms: P_12  and  O_16
REMARK    8  A    between atoms: C_18  and  C_25
REMARK                            x       y       z     vdW  Elec       q    Type
REMARK                         _______ _______ _______ _____ _____    ______ ____
ROOT
ATOM      1  N   UNL     1      35.855 -17.779 -21.264  0.00  0.00    -0.327 N 
ATOM      2  H   UNL     1      36.598 -17.816 -20.619  0.00  0.00    +0.147 HD
ENDROOT
BRANCH   1   3
ATOM      3  C   UNL     1      35.308 -16.543 -21.561  0.00  0.00    +0.045 C 
ATOM      4  C   UNL     1      34.897 -15.668 -20.536  0.00  0.00    +0.015 C 
ATOM      5  C   UNL     1      35.146 -16.125 -22.896  0.00  0.00    +0.015 C 
ATOM      6  C   UNL     1      34.195 -14.027 -22.165  0.00  0.00    +0.076 C 
ATOM      7  C   UNL     1      34.346 -14.422 -20.836  0.00  0.00    +0.008 C 
ATOM      8  C   UNL     1      34.595 -14.878 -23.195  0.00  0.00    +0.008 C 
BRANCH   6  10
ATOM      9  O   UNL     1      32.468 -12.377 -22.201  0.00  0.00    -0.245 OA
ATOM     10  C   UNL     1      33.621 -12.728 -22.477  0.00  0.00    +0.348 C 
BRANCH  10  11
ATOM     11  O   UNL     1      34.509 -11.921 -23.123  0.00  0.00    -0.368 OA
BRANCH  11  12
ATOM     12  P   UNL     1      34.146 -10.855 -24.284  0.00  0.00    +0.530 P 
ATOM     13  O   UNL     1      35.329 -10.159 -24.893  0.00  0.00    -0.216 OA
BRANCH  12  14
ATOM     14  O   UNL     1      33.056  -9.887 -23.586  0.00  0.00    -0.293 OA
ATOM     15  H   UNL     1      32.168 -10.260 -23.704  0.00  0.00    +0.223 HD
ENDBRANCH  12  14
BRANCH  12  16
ATOM     16  O   UNL     1      33.262 -11.731 -25.316  0.00  0.00    -0.293 OA
ATOM     17  H   UNL     1      33.278 -11.312 -26.191  0.00  0.00    +0.223 HD
ENDBRANCH  12  16
ENDBRANCH  11  12
ENDBRANCH  10  11
ENDBRANCH   6  10
ENDBRANCH   1   3
BRANCH   1  18
ATOM     18  C   UNL     1      35.392 -19.021 -21.849  0.00  0.00    +0.145 C 
BRANCH  18  25
ATOM     19  O   UNL     1      36.589 -21.969 -18.075  0.00  0.00    -0.206 OA
ATOM     20  N   UNL     1      35.345 -20.527 -19.948  0.00  0.00    -0.391 NA
ATOM     21  N   UNL     1      32.592 -22.068 -18.109  0.00  0.00    -0.259 N 
ATOM     22  N   UNL     1      32.539 -20.578 -19.993  0.00  0.00    -0.246 NA
ATOM     23  N   UNL     1      34.650 -22.773 -17.138  0.00  0.00    -0.300 NA
ATOM     24  N   UNL     1      32.577 -23.494 -16.310  0.00  0.00    -0.320 N 
ATOM     25  C   UNL     1      34.636 -19.830 -20.855  0.00  0.00    +0.132 C 
ATOM     26  C   UNL     1      34.616 -21.245 -19.069  0.00  0.00    +0.255 C 
ATOM     27  C   UNL     1      33.232 -21.284 -19.074  0.00  0.00    +0.173 C 
ATOM     28  C   UNL     1      33.258 -19.856 -20.877  0.00  0.00    +0.183 C 
ATOM     29  C   UNL     1      35.363 -22.024 -18.057  0.00  0.00    +0.240 C 
ATOM     30  C   UNL     1      33.342 -22.772 -17.193  0.00  0.00    +0.249 C 
ATOM     31  H   UNL     1      31.609 -22.117 -18.086  0.00  0.00    +0.157 HD
ATOM     32  H   UNL     1      31.595 -23.472 -16.379  0.00  0.00    +0.146 HD
ATOM     33  H   UNL     1      33.011 -24.034 -15.611  0.00  0.00    +0.146 HD
ENDBRANCH  18  25
ENDBRANCH   1  18
TORSDOF 8
ENDMDL
MODEL 7
REMARK VINA RESULT:     -10.4      1.990      3.081
REMARK  Name = 656948
REMARK  8 active torsions:
REMARK  status: ('A' for Active; 'I' for Inactive)
REMARK    1  A    between atoms: N_1  and  C_3
REMARK    2  A    between atoms: N_1  and  C_18
REMARK    3  A    between atoms: C_6  and  C_10
REMARK    4  A    between atoms: C_10  and  O_11
REMARK    5  A    between atoms: O_11  and  P_12
REMARK    6  A    between atoms: P_12  and  O_14
REMARK    7  A    between atoms: P_12  and  O_16
REMARK    8  A    between atoms: C_18  and  C_25
REMARK                            x       y       z     vdW  Elec       q    Type
REMARK                         _______ _______ _______ _____ _____    ______ ____
ROOT
ATOM      1  N   UNL     1      35.693 -17.313 -23.266  0.00  0.00    -0.327 N 
ATOM      2  H   UNL     1      36.544 -17.003 -23.652  0.00  0.00    +0.147 HD
ENDROOT
BRANCH   1   3
ATOM      3  C   UNL     1      35.741 -18.237 -22.238  0.00  0.00    +0.045 C 
ATOM      4  C   UNL     1      36.873 -18.337 -21.405  0.00  0.00    +0.015 C 
ATOM      5  C   UNL     1      34.659 -19.106 -21.994  0.00  0.00    +0.015 C 
ATOM      6  C   UNL     1      35.838 -20.119 -20.144  0.00  0.00    +0.076 C 
ATOM      7  C   UNL     1      36.920 -19.268 -20.368  0.00  0.00    +0.008 C 
ATOM      8  C   UNL     1      34.708 -20.038 -20.956  0.00  0.00    +0.008 C 
BRANCH   6  10
ATOM      9  O   UNL     1      36.559 -20.970 -18.031  0.00  0.00    -0.245 OA
ATOM     10  C   UNL     1      35.888 -21.090 -19.063  0.00  0.00    +0.348 C 
BRANCH  10  11
ATOM     11  O   UNL     1      35.099 -22.173 -19.313  0.00  0.00    -0.368 OA
BRANCH  11  12
ATOM     12  P   UNL     1      33.916 -22.722 -18.356  0.00  0.00    +0.530 P 
ATOM     13  O   UNL     1      32.654 -21.909 -18.383  0.00  0.00    -0.216 OA
BRANCH  12  14
ATOM     14  O   UNL     1      34.626 -22.853 -16.910  0.00  0.00    -0.293 OA
ATOM     15  H   UNL     1      35.444 -22.331 -16.902  0.00  0.00    +0.223 HD
ENDBRANCH  12  14
BRANCH  12  16
ATOM     16  O   UNL     1      33.749 -24.259 -18.832  0.00  0.00    -0.293 OA
ATOM     17  H   UNL     1      34.606 -24.709 -18.775  0.00  0.00    +0.223 HD
ENDBRANCH  12  16
ENDBRANCH  11  12
ENDBRANCH  10  11
ENDBRANCH   6  10
ENDBRANCH   1   3
BRANCH   1  18
ATOM     18  C   UNL     1      34.460 -16.778 -23.806  0.00  0.00    +0.145 C 
BRANCH  18  25
ATOM     19  O   UNL     1      33.262 -12.738 -26.376  0.00  0.00    -0.206 OA
ATOM     20  N   UNL     1      33.969 -14.508 -24.505  0.00  0.00    -0.391 NA
ATOM     21  N   UNL     1      33.958 -11.335 -22.698  0.00  0.00    -0.259 N 
ATOM     22  N   UNL     1      34.461 -13.548 -21.913  0.00  0.00    -0.246 NA
ATOM     23  N   UNL     1      33.350 -10.926 -24.964  0.00  0.00    -0.300 NA
ATOM     24  N   UNL     1      33.489  -9.196 -23.387  0.00  0.00    -0.320 N 
ATOM     25  C   UNL     1      34.329 -15.328 -23.499  0.00  0.00    +0.132 C 
ATOM     26  C   UNL     1      33.863 -13.204 -24.179  0.00  0.00    +0.255 C 
ATOM     27  C   UNL     1      34.102 -12.710 -22.908  0.00  0.00    +0.173 C 
ATOM     28  C   UNL     1      34.571 -14.856 -22.227  0.00  0.00    +0.183 C 
ATOM     29  C   UNL     1      33.469 -12.272 -25.260  0.00  0.00    +0.240 C 
ATOM     30  C   UNL     1      33.589 -10.518 -23.744  0.00  0.00    +0.249 C 
ATOM     31  H   UNL     1      34.121 -10.952 -21.805  0.00  0.00    +0.157 HD
ATOM     32  H   UNL     1      33.676  -8.921 -22.460  0.00  0.00    +0.146 HD
ATOM     33  H   UNL     1      33.231  -8.523 -24.058  0.00  0.00    +0.146 HD
ENDBRANCH  18  25
ENDBRANCH   1  18
TORSDOF 8
ENDMDL
MODEL 8
REMARK VINA RESULT:     -10.2      4.681      9.739
REMARK  Name = 656948
REMARK  8 active torsions:
REMARK  status: ('A' for Active; 'I' for Inactive)
REMARK    1  A    between atoms: N_1  and  C_3
REMARK    2  A    between atoms: N_1  and  C_18
REMARK    3  A    between atoms: C_6  and  C_10
REMARK    4  A    between atoms: C_10  and  O_11
REMARK    5  A    between atoms: O_11  and  P_12
REMARK    6  A    between atoms: P_12  and  O_14
REMARK    7  A    between atoms: P_12  and  O_16
REMARK    8  A    between atoms: C_18  and  C_25
REMARK                            x       y       z     vdW  Elec       q    Type
REMARK                         _______ _______ _______ _____ _____    ______ ____
ROOT
ATOM      1  N   UNL     1      35.998 -17.642 -21.143  0.00  0.00    -0.327 N 
ATOM      2  H   UNL     1      36.802 -17.626 -20.575  0.00  0.00    +0.147 HD
ENDROOT
BRANCH   1   3
ATOM      3  C   UNL     1      35.296 -16.463 -21.315  0.00  0.00    +0.045 C 
ATOM      4  C   UNL     1      34.873 -15.703 -20.207  0.00  0.00    +0.015 C 
ATOM      5  C   UNL     1      34.983 -15.987 -22.604  0.00  0.00    +0.015 C 
ATOM      6  C   UNL     1      33.865 -14.062 -21.665  0.00  0.00    +0.076 C 
ATOM      7  C   UNL     1      34.165 -14.514 -20.380  0.00  0.00    +0.008 C 
ATOM      8  C   UNL     1      34.274 -14.798 -22.776  0.00  0.00    +0.008 C 
BRANCH   6  10
ATOM      9  O   UNL     1      33.163 -12.115 -22.860  0.00  0.00    -0.245 OA
ATOM     10  C   UNL     1      33.127 -12.822 -21.846  0.00  0.00    +0.348 C 
BRANCH  10  11
ATOM     11  O   UNL     1      32.375 -12.513 -20.752  0.00  0.00    -0.368 OA
BRANCH  11  12
ATOM     12  P   UNL     1      31.719 -11.069 -20.433  0.00  0.00    +0.530 P 
ATOM     13  O   UNL     1      31.839 -10.624 -19.004  0.00  0.00    -0.216 OA
BRANCH  12  14
ATOM     14  O   UNL     1      30.209 -11.204 -20.992  0.00  0.00    -0.293 OA
ATOM     15  H   UNL     1      30.114 -10.677 -21.802  0.00  0.00    +0.223 HD
ENDBRANCH  12  14
BRANCH  12  16
ATOM     16  O   UNL     1      32.433 -10.101 -21.513  0.00  0.00    -0.293 OA
ATOM     17  H   UNL     1      31.946  -9.264 -21.567  0.00  0.00    +0.223 HD
ENDBRANCH  12  16
ENDBRANCH  11  12
ENDBRANCH  10  11
ENDBRANCH   6  10
ENDBRANCH   1   3
BRANCH   1  18
ATOM     18  C   UNL     1      35.616 -18.898 -21.754  0.00  0.00    +0.145 C 
BRANCH  18  25
ATOM     19  O   UNL     1      36.610 -21.953 -18.006  0.00  0.00    -0.206 OA
ATOM     20  N   UNL     1      35.467 -20.451 -19.896  0.00  0.00    -0.391 NA
ATOM     21  N   UNL     1      32.618 -22.005 -18.221  0.00  0.00    -0.259 N 
ATOM     22  N   UNL     1      32.665 -20.468 -20.067  0.00  0.00    -0.246 NA
ATOM     23  N   UNL     1      34.623 -22.757 -17.177  0.00  0.00    -0.300 NA
ATOM     24  N   UNL     1      32.507 -23.474 -16.462  0.00  0.00    -0.320 N 
ATOM     25  C   UNL     1      34.807 -19.723 -20.816  0.00  0.00    +0.132 C 
ATOM     26  C   UNL     1      34.692 -21.181 -19.069  0.00  0.00    +0.255 C 
ATOM     27  C   UNL     1      33.309 -21.205 -19.137  0.00  0.00    +0.173 C 
ATOM     28  C   UNL     1      33.431 -19.733 -20.900  0.00  0.00    +0.183 C 
ATOM     29  C   UNL     1      35.384 -21.994 -18.044  0.00  0.00    +0.240 C 
ATOM     30  C   UNL     1      33.319 -22.739 -17.290  0.00  0.00    +0.249 C 
ATOM     31  H   UNL     1      31.635 -22.043 -18.243  0.00  0.00    +0.157 HD
ATOM     32  H   UNL     1      31.530 -23.440 -16.573  0.00  0.00    +0.146 HD
ATOM     33  H   UNL     1      32.903 -24.037 -15.758  0.00  0.00    +0.146 HD
ENDBRANCH  18  25
ENDBRANCH   1  18
TORSDOF 8
ENDMDL
MODEL 9
REMARK VINA RESULT:     -10.2      2.211      3.690
REMARK  Name = 656948
REMARK  8 active torsions:
REMARK  status: ('A' for Active; 'I' for Inactive)
REMARK    1  A    between atoms: N_1  and  C_3
REMARK    2  A    between atoms: N_1  and  C_18
REMARK    3  A    between atoms: C_6  and  C_10
REMARK    4  A    between atoms: C_10  and  O_11
REMARK    5  A    between atoms: O_11  and  P_12
REMARK    6  A    between atoms: P_12  and  O_14
REMARK    7  A    between atoms: P_12  and  O_16
REMARK    8  A    between atoms: C_18  and  C_25
REMARK                            x       y       z     vdW  Elec       q    Type
REMARK                         _______ _______ _______ _____ _____    ______ ____
ROOT
ATOM      1  N   UNL     1      35.465 -17.119 -23.575  0.00  0.00    -0.327 N 
ATOM      2  H   UNL     1      36.300 -16.635 -23.768  0.00  0.00    +0.147 HD
ENDROOT
BRANCH   1   3
ATOM      3  C   UNL     1      35.467 -18.038 -22.541  0.00  0.00    +0.045 C 
ATOM      4  C   UNL     1      34.347 -18.857 -22.297  0.00  0.00    +0.015 C 
ATOM      5  C   UNL     1      36.588 -18.180 -21.700  0.00  0.00    +0.015 C 
ATOM      6  C   UNL     1      35.470 -19.908 -20.434  0.00  0.00    +0.076 C 
ATOM      7  C   UNL     1      34.349 -19.783 -21.255  0.00  0.00    +0.008 C 
ATOM      8  C   UNL     1      36.589 -19.106 -20.657  0.00  0.00    +0.008 C 
BRANCH   6  10
ATOM      9  O   UNL     1      36.482 -21.283 -18.762  0.00  0.00    -0.245 OA
ATOM     10  C   UNL     1      35.472 -20.874 -19.347  0.00  0.00    +0.348 C 
BRANCH  10  11
ATOM     11  O   UNL     1      34.213 -21.292 -19.035  0.00  0.00    -0.368 OA
BRANCH  11  12
ATOM     12  P   UNL     1      33.834 -22.680 -18.296  0.00  0.00    +0.530 P 
ATOM     13  O   UNL     1      33.941 -23.904 -19.160  0.00  0.00    -0.216 OA
BRANCH  12  14
ATOM     14  O   UNL     1      32.369 -22.395 -17.677  0.00  0.00    -0.293 OA
ATOM     15  H   UNL     1      32.456 -22.132 -16.747  0.00  0.00    +0.223 HD
ENDBRANCH  12  14
BRANCH  12  16
ATOM     16  O   UNL     1      34.798 -22.674 -16.998  0.00  0.00    -0.293 OA
ATOM     17  H   UNL     1      34.318 -23.039 -16.238  0.00  0.00    +0.223 HD
ENDBRANCH  12  16
ENDBRANCH  11  12
ENDBRANCH  10  11
ENDBRANCH   6  10
ENDBRANCH   1   3
BRANCH   1  18
ATOM     18  C   UNL     1      34.302 -16.832 -24.389  0.00  0.00    +0.145 C 
BRANCH  18  25
ATOM     19  O   UNL     1      33.286 -13.403 -20.986  0.00  0.00    -0.206 OA
ATOM     20  N   UNL     1      33.775 -14.767 -23.230  0.00  0.00    -0.391 NA
ATOM     21  N   UNL     1      33.208 -11.362 -24.423  0.00  0.00    -0.259 N 
ATOM     22  N   UNL     1      33.729 -13.357 -25.657  0.00  0.00    -0.246 NA
ATOM     23  N   UNL     1      32.984 -11.388 -22.052  0.00  0.00    -0.300 NA
ATOM     24  N   UNL     1      32.710  -9.423 -23.302  0.00  0.00    -0.320 N 
ATOM     25  C   UNL     1      34.012 -15.372 -24.409  0.00  0.00    +0.132 C 
ATOM     26  C   UNL     1      33.518 -13.444 -23.299  0.00  0.00    +0.255 C 
ATOM     27  C   UNL     1      33.489 -12.731 -24.485  0.00  0.00    +0.173 C 
ATOM     28  C   UNL     1      33.988 -14.679 -25.600  0.00  0.00    +0.183 C 
ATOM     29  C   UNL     1      33.253 -12.745 -22.022  0.00  0.00    +0.240 C 
ATOM     30  C   UNL     1      32.970 -10.767 -23.204  0.00  0.00    +0.249 C 
ATOM     31  H   UNL     1      33.181 -10.826 -25.249  0.00  0.00    +0.157 HD
ATOM     32  H   UNL     1      32.706  -8.985 -24.184  0.00  0.00    +0.146 HD
ATOM     33  H   UNL     1      32.525  -8.897 -22.490  0.00  0.00    +0.146 HD
ENDBRANCH  18  25
ENDBRANCH   1  18
TORSDOF 8
ENDMDL
