MODEL 1
REMARK VINA RESULT:     -11.9      0.000      0.000
REMARK  Name = 24941254
REMARK  6 active torsions:
REMARK  status: ('A' for Active; 'I' for Inactive)
REMARK    1  A    between atoms: C_1  and  S_21
REMARK    2  A    between atoms: C_4  and  C_9
REMARK    3  A    between atoms: N_8  and  C_11
REMARK    4  A    between atoms: C_12  and  C_18
REMARK    5  A    between atoms: C_18  and  O_19
REMARK    6  A    between atoms: S_21  and  N_24
REMARK                            x       y       z     vdW  Elec       q    Type
REMARK                         _______ _______ _______ _____ _____    ______ ____
ROOT
ATOM      1  C   UNL     1      35.019 -19.567 -20.624  0.00  0.00    +0.122 C 
ATOM      2  C   UNL     1      35.204 -20.617 -19.724  0.00  0.00    +0.024 C 
ATOM      3  C   UNL     1      33.731 -19.218 -21.032  0.00  0.00    +0.020 C 
ATOM      4  C   UNL     1      34.103 -21.317 -19.234  0.00  0.00    +0.055 C 
ATOM      5  C   UNL     1      32.630 -19.919 -20.542  0.00  0.00    +0.002 C 
ATOM      6  C   UNL     1      32.816 -20.969 -19.642  0.00  0.00    +0.005 C 
ENDROOT
BRANCH   4   9
ATOM      7  O   UNL     1      34.145 -23.579 -18.690  0.00  0.00    -0.270 OA
ATOM      8  N   UNL     1      34.671 -22.044 -16.995  0.00  0.00    -0.280 N 
ATOM      9  C   UNL     1      34.296 -22.412 -18.295  0.00  0.00    +0.250 C 
ATOM     10  H   UNL     1      34.751 -21.077 -16.831  0.00  0.00    +0.155 HD
BRANCH   8  11
ATOM     11  C   UNL     1      34.950 -22.882 -15.888  0.00  0.00    +0.057 C 
ATOM     12  C   UNL     1      36.245 -22.996 -15.382  0.00  0.00    +0.089 C 
ATOM     13  C   UNL     1      33.907 -23.598 -15.301  0.00  0.00    +0.015 C 
ATOM     14  C   UNL     1      36.496 -23.828 -14.290  0.00  0.00    +0.008 C 
ATOM     15  C   UNL     1      34.158 -24.430 -14.210  0.00  0.00    +0.001 C 
ATOM     16  C   UNL     1      35.453 -24.545 -13.705  0.00  0.00    +0.000 C 
BRANCH  12  18
ATOM     17  O   UNL     1      37.273 -21.164 -16.524  0.00  0.00    -0.245 OA
ATOM     18  C   UNL     1      37.359 -22.262 -15.971  0.00  0.00    +0.339 C 
BRANCH  18  19
ATOM     19  O   UNL     1      38.539 -22.926 -15.846  0.00  0.00    -0.477 OA
ATOM     20  H   UNL     1      38.548 -23.813 -15.546  0.00  0.00    +0.295 HD
ENDBRANCH  18  19
ENDBRANCH  12  18
ENDBRANCH   8  11
ENDBRANCH   4   9
BRANCH   1  21
ATOM     21  S   UNL     1      36.413 -18.680 -21.248  0.00  0.00    +0.064 S 
ATOM     22  O   UNL     1      37.451 -18.723 -20.240  0.00  0.00    -0.153 OA
ATOM     23  O   UNL     1      36.666 -19.141 -22.597  0.00  0.00    -0.153 OA
BRANCH  21  24
ATOM     24  N   UNL     1      35.758 -17.100 -21.312  0.00  0.00    -0.151 NA
ATOM     25  C   UNL     1      34.942 -16.687 -20.139  0.00  0.00    +0.101 C 
ATOM     26  C   UNL     1      35.107 -16.728 -22.604  0.00  0.00    +0.122 C 
ATOM     27  C   UNL     1      34.854 -15.164 -20.115  0.00  0.00    +0.045 C 
ATOM     28  C   UNL     1      34.530 -15.332 -22.620  0.00  0.00    -0.008 C 
ATOM     29  C   UNL     1      34.378 -14.600 -21.430  0.00  0.00    -0.023 C 
ATOM     30  C   UNL     1      34.101 -14.776 -23.833  0.00  0.00    -0.003 C 
ATOM     31  C   UNL     1      33.833 -13.310 -21.478  0.00  0.00    -0.004 C 
ATOM     32  C   UNL     1      33.549 -13.496 -23.868  0.00  0.00    -0.000 C 
ATOM     33  C   UNL     1      33.417 -12.763 -22.691  0.00  0.00    -0.000 C 
ENDBRANCH  21  24
ENDBRANCH   1  21
TORSDOF 6
ENDMDL
MODEL 2
REMARK VINA RESULT:     -11.8      5.533      9.251
REMARK  Name = 24941254
REMARK  6 active torsions:
REMARK  status: ('A' for Active; 'I' for Inactive)
REMARK    1  A    between atoms: C_1  and  S_21
REMARK    2  A    between atoms: C_4  and  C_9
REMARK    3  A    between atoms: N_8  and  C_11
REMARK    4  A    between atoms: C_12  and  C_18
REMARK    5  A    between atoms: C_18  and  O_19
REMARK    6  A    between atoms: S_21  and  N_24
REMARK                            x       y       z     vdW  Elec       q    Type
REMARK                         _______ _______ _______ _____ _____    ______ ____
ROOT
ATOM      1  C   UNL     1      32.714 -11.419 -22.283  0.00  0.00    +0.122 C 
ATOM      2  C   UNL     1      32.766 -12.776 -22.603  0.00  0.00    +0.024 C 
ATOM      3  C   UNL     1      33.365 -10.487 -23.094  0.00  0.00    +0.020 C 
ATOM      4  C   UNL     1      33.467 -13.201 -23.731  0.00  0.00    +0.055 C 
ATOM      5  C   UNL     1      34.066 -10.912 -24.222  0.00  0.00    +0.002 C 
ATOM      6  C   UNL     1      34.117 -12.270 -24.540  0.00  0.00    +0.005 C 
ENDROOT
BRANCH   4   9
ATOM      7  O   UNL     1      32.987 -15.008 -25.114  0.00  0.00    -0.270 OA
ATOM      8  N   UNL     1      34.209 -15.433 -23.158  0.00  0.00    -0.280 N 
ATOM      9  C   UNL     1      33.520 -14.616 -24.065  0.00  0.00    +0.250 C 
ATOM     10  H   UNL     1      34.580 -14.977 -22.368  0.00  0.00    +0.155 HD
BRANCH   8  11
ATOM     11  C   UNL     1      34.445 -16.827 -23.230  0.00  0.00    +0.057 C 
ATOM     12  C   UNL     1      34.980 -17.523 -22.145  0.00  0.00    +0.089 C 
ATOM     13  C   UNL     1      34.133 -17.505 -24.409  0.00  0.00    +0.015 C 
ATOM     14  C   UNL     1      35.202 -18.897 -22.240  0.00  0.00    +0.008 C 
ATOM     15  C   UNL     1      34.358 -18.879 -24.503  0.00  0.00    +0.001 C 
ATOM     16  C   UNL     1      34.892 -19.574 -23.419  0.00  0.00    +0.000 C 
BRANCH  12  18
ATOM     17  O   UNL     1      34.972 -15.701 -20.596  0.00  0.00    -0.245 OA
ATOM     18  C   UNL     1      35.316 -16.846 -20.899  0.00  0.00    +0.339 C 
BRANCH  18  19
ATOM     19  O   UNL     1      36.070 -17.623 -20.076  0.00  0.00    -0.477 OA
ATOM     20  H   UNL     1      36.757 -18.151 -20.431  0.00  0.00    +0.295 HD
ENDBRANCH  18  19
ENDBRANCH  12  18
ENDBRANCH   8  11
ENDBRANCH   4   9
BRANCH   1  21
ATOM     21  S   UNL     1      31.829 -10.880 -20.855  0.00  0.00    +0.064 S 
ATOM     22  O   UNL     1      30.423 -11.144 -21.079  0.00  0.00    -0.153 OA
ATOM     23  O   UNL     1      32.508 -11.403 -19.687  0.00  0.00    -0.153 OA
BRANCH  21  24
ATOM     24  N   UNL     1      32.105  -9.193 -20.949  0.00  0.00    -0.151 NA
ATOM     25  C   UNL     1      32.367  -8.504 -19.657  0.00  0.00    +0.101 C 
ATOM     26  C   UNL     1      31.142  -8.432 -21.802  0.00  0.00    +0.122 C 
ATOM     27  C   UNL     1      33.054  -7.172 -19.942  0.00  0.00    +0.045 C 
ATOM     28  C   UNL     1      31.407  -6.947 -21.851  0.00  0.00    -0.008 C 
ATOM     29  C   UNL     1      32.293  -6.341 -20.943  0.00  0.00    -0.023 C 
ATOM     30  C   UNL     1      30.730  -6.155 -22.789  0.00  0.00    -0.003 C 
ATOM     31  C   UNL     1      32.513  -4.958 -21.012  0.00  0.00    -0.004 C 
ATOM     32  C   UNL     1      30.947  -4.778 -22.840  0.00  0.00    -0.000 C 
ATOM     33  C   UNL     1      31.840  -4.181 -21.953  0.00  0.00    -0.000 C 
ENDBRANCH  21  24
ENDBRANCH   1  21
TORSDOF 6
ENDMDL
MODEL 3
REMARK VINA RESULT:     -11.7      5.666      9.325
REMARK  Name = 24941254
REMARK  6 active torsions:
REMARK  status: ('A' for Active; 'I' for Inactive)
REMARK    1  A    between atoms: C_1  and  S_21
REMARK    2  A    between atoms: C_4  and  C_9
REMARK    3  A    between atoms: N_8  and  C_11
REMARK    4  A    between atoms: C_12  and  C_18
REMARK    5  A    between atoms: C_18  and  O_19
REMARK    6  A    between atoms: S_21  and  N_24
REMARK                            x       y       z     vdW  Elec       q    Type
REMARK                         _______ _______ _______ _____ _____    ______ ____
ROOT
ATOM      1  C   UNL     1      32.574 -11.355 -21.580  0.00  0.00    +0.122 C 
ATOM      2  C   UNL     1      32.989 -12.625 -21.179  0.00  0.00    +0.024 C 
ATOM      3  C   UNL     1      33.049 -10.812 -22.774  0.00  0.00    +0.020 C 
ATOM      4  C   UNL     1      33.877 -13.351 -21.972  0.00  0.00    +0.055 C 
ATOM      5  C   UNL     1      33.937 -11.538 -23.567  0.00  0.00    +0.002 C 
ATOM      6  C   UNL     1      34.351 -12.808 -23.165  0.00  0.00    +0.005 C 
ENDROOT
BRANCH   4   9
ATOM      7  O   UNL     1      34.494 -14.898 -20.347  0.00  0.00    -0.270 OA
ATOM      8  N   UNL     1      34.461 -15.622 -22.579  0.00  0.00    -0.280 N 
ATOM      9  C   UNL     1      34.309 -14.676 -21.555  0.00  0.00    +0.250 C 
ATOM     10  H   UNL     1      34.279 -15.298 -23.490  0.00  0.00    +0.155 HD
BRANCH   8  11
ATOM     11  C   UNL     1      34.840 -16.982 -22.474  0.00  0.00    +0.057 C 
ATOM     12  C   UNL     1      34.549 -17.890 -23.493  0.00  0.00    +0.089 C 
ATOM     13  C   UNL     1      35.515 -17.410 -21.330  0.00  0.00    +0.015 C 
ATOM     14  C   UNL     1      34.933 -19.225 -23.367  0.00  0.00    +0.008 C 
ATOM     15  C   UNL     1      35.897 -18.745 -21.204  0.00  0.00    +0.001 C 
ATOM     16  C   UNL     1      35.606 -19.652 -22.223  0.00  0.00    +0.000 C 
BRANCH  12  18
ATOM     17  O   UNL     1      32.788 -17.959 -25.109  0.00  0.00    -0.245 OA
ATOM     18  C   UNL     1      33.846 -17.476 -24.701  0.00  0.00    +0.339 C 
BRANCH  18  19
ATOM     19  O   UNL     1      34.491 -16.474 -25.356  0.00  0.00    -0.477 OA
ATOM     20  H   UNL     1      34.158 -15.599 -25.318  0.00  0.00    +0.295 HD
ENDBRANCH  18  19
ENDBRANCH  12  18
ENDBRANCH   8  11
ENDBRANCH   4   9
BRANCH   1  21
ATOM     21  S   UNL     1      31.451 -10.434 -20.576  0.00  0.00    +0.064 S 
ATOM     22  O   UNL     1      30.109 -10.718 -21.039  0.00  0.00    -0.153 OA
ATOM     23  O   UNL     1      31.820 -10.640 -19.191  0.00  0.00    -0.153 OA
BRANCH  21  24
ATOM     24  N   UNL     1      31.877  -8.841 -21.034  0.00  0.00    -0.151 NA
ATOM     25  C   UNL     1      32.074  -7.876 -19.919  0.00  0.00    +0.101 C 
ATOM     26  C   UNL     1      31.066  -8.254 -22.144  0.00  0.00    +0.122 C 
ATOM     27  C   UNL     1      32.896  -6.696 -20.432  0.00  0.00    +0.045 C 
ATOM     28  C   UNL     1      31.460  -6.844 -22.512  0.00  0.00    -0.008 C 
ATOM     29  C   UNL     1      32.305  -6.089 -21.679  0.00  0.00    -0.023 C 
ATOM     30  C   UNL     1      30.944  -6.265 -23.678  0.00  0.00    -0.003 C 
ATOM     31  C   UNL     1      32.647  -4.780 -22.046  0.00  0.00    -0.004 C 
ATOM     32  C   UNL     1      31.280  -4.957 -24.028  0.00  0.00    -0.000 C 
ATOM     33  C   UNL     1      32.134  -4.217 -23.213  0.00  0.00    -0.000 C 
ENDBRANCH  21  24
ENDBRANCH   1  21
TORSDOF 6
ENDMDL
MODEL 4
REMARK VINA RESULT:     -11.6      2.359      9.314
REMARK  Name = 24941254
REMARK  6 active torsions:
REMARK  status: ('A' for Active; 'I' for Inactive)
REMARK    1  A    between atoms: C_1  and  S_21
REMARK    2  A    between atoms: C_4  and  C_9
REMARK    3  A    between atoms: N_8  and  C_11
REMARK    4  A    between atoms: C_12  and  C_18
REMARK    5  A    between atoms: C_18  and  O_19
REMARK    6  A    between atoms: S_21  and  N_24
REMARK                            x       y       z     vdW  Elec       q    Type
REMARK                         _______ _______ _______ _____ _____    ______ ____
ROOT
ATOM      1  C   UNL     1      35.012 -21.602 -18.947  0.00  0.00    +0.122 C 
ATOM      2  C   UNL     1      35.108 -20.596 -19.908  0.00  0.00    +0.024 C 
ATOM      3  C   UNL     1      36.029 -21.765 -18.006  0.00  0.00    +0.020 C 
ATOM      4  C   UNL     1      36.220 -19.754 -19.929  0.00  0.00    +0.055 C 
ATOM      5  C   UNL     1      37.141 -20.924 -18.027  0.00  0.00    +0.002 C 
ATOM      6  C   UNL     1      37.236 -19.918 -18.989  0.00  0.00    +0.005 C 
ENDROOT
BRANCH   4   9
ATOM      7  O   UNL     1      37.439 -18.392 -21.368  0.00  0.00    -0.270 OA
ATOM      8  N   UNL     1      35.107 -18.137 -21.346  0.00  0.00    -0.280 N 
ATOM      9  C   UNL     1      36.320 -18.705 -20.931  0.00  0.00    +0.250 C 
ATOM     10  H   UNL     1      34.298 -18.489 -20.908  0.00  0.00    +0.155 HD
BRANCH   8  11
ATOM     11  C   UNL     1      34.891 -17.127 -22.314  0.00  0.00    +0.057 C 
ATOM     12  C   UNL     1      34.429 -17.442 -23.592  0.00  0.00    +0.089 C 
ATOM     13  C   UNL     1      35.149 -15.799 -21.974  0.00  0.00    +0.015 C 
ATOM     14  C   UNL     1      34.224 -16.429 -24.529  0.00  0.00    +0.008 C 
ATOM     15  C   UNL     1      34.945 -14.786 -22.912  0.00  0.00    +0.001 C 
ATOM     16  C   UNL     1      34.483 -15.102 -24.189  0.00  0.00    +0.000 C 
BRANCH  12  18
ATOM     17  O   UNL     1      34.888 -19.783 -23.769  0.00  0.00    -0.245 OA
ATOM     18  C   UNL     1      34.149 -18.819 -23.980  0.00  0.00    +0.339 C 
BRANCH  18  19
ATOM     19  O   UNL     1      32.954 -18.943 -24.620  0.00  0.00    -0.477 OA
ATOM     20  H   UNL     1      32.815 -19.649 -25.219  0.00  0.00    +0.295 HD
ENDBRANCH  18  19
ENDBRANCH  12  18
ENDBRANCH   8  11
ENDBRANCH   4   9
BRANCH   1  21
ATOM     21  S   UNL     1      33.606 -22.669 -18.921  0.00  0.00    +0.064 S 
ATOM     22  O   UNL     1      32.502 -21.961 -19.534  0.00  0.00    -0.153 OA
ATOM     23  O   UNL     1      34.022 -23.966 -19.410  0.00  0.00    -0.153 OA
BRANCH  21  24
ATOM     24  N   UNL     1      33.338 -22.771 -17.233  0.00  0.00    -0.151 NA
ATOM     25  C   UNL     1      34.286 -23.632 -16.476  0.00  0.00    +0.101 C 
ATOM     26  C   UNL     1      31.921 -23.005 -16.821  0.00  0.00    +0.122 C 
ATOM     27  C   UNL     1      34.231 -23.243 -15.002  0.00  0.00    +0.045 C 
ATOM     28  C   UNL     1      31.724 -23.103 -15.327  0.00  0.00    -0.008 C 
ATOM     29  C   UNL     1      32.823 -23.250 -14.462  0.00  0.00    -0.023 C 
ATOM     30  C   UNL     1      30.427 -23.089 -14.799  0.00  0.00    -0.003 C 
ATOM     31  C   UNL     1      32.606 -23.345 -13.081  0.00  0.00    -0.004 C 
ATOM     32  C   UNL     1      30.221 -23.196 -13.424  0.00  0.00    -0.000 C 
ATOM     33  C   UNL     1      31.311 -23.322 -12.565  0.00  0.00    -0.000 C 
ENDBRANCH  21  24
ENDBRANCH   1  21
TORSDOF 6
ENDMDL
MODEL 5
REMARK VINA RESULT:     -11.6      6.202     10.150
REMARK  Name = 24941254
REMARK  6 active torsions:
REMARK  status: ('A' for Active; 'I' for Inactive)
REMARK    1  A    between atoms: C_1  and  S_21
REMARK    2  A    between atoms: C_4  and  C_9
REMARK    3  A    between atoms: N_8  and  C_11
REMARK    4  A    between atoms: C_12  and  C_18
REMARK    5  A    between atoms: C_18  and  O_19
REMARK    6  A    between atoms: S_21  and  N_24
REMARK                            x       y       z     vdW  Elec       q    Type
REMARK                         _______ _______ _______ _____ _____    ______ ____
ROOT
ATOM      1  C   UNL     1      32.764 -10.304 -22.431  0.00  0.00    +0.122 C 
ATOM      2  C   UNL     1      32.907 -11.583 -21.893  0.00  0.00    +0.024 C 
ATOM      3  C   UNL     1      33.323 -10.005 -23.674  0.00  0.00    +0.020 C 
ATOM      4  C   UNL     1      33.609 -12.562 -22.597  0.00  0.00    +0.055 C 
ATOM      5  C   UNL     1      34.024 -10.983 -24.378  0.00  0.00    +0.002 C 
ATOM      6  C   UNL     1      34.167 -12.262 -23.839  0.00  0.00    +0.005 C 
ENDROOT
BRANCH   4   9
ATOM      7  O   UNL     1      33.161 -14.178 -20.985  0.00  0.00    -0.270 OA
ATOM      8  N   UNL     1      34.565 -14.780 -22.765  0.00  0.00    -0.280 N 
ATOM      9  C   UNL     1      33.757 -13.896 -22.036  0.00  0.00    +0.250 C 
ATOM     10  H   UNL     1      34.973 -14.412 -23.582  0.00  0.00    +0.155 HD
BRANCH   8  11
ATOM     11  C   UNL     1      34.869 -16.134 -22.483  0.00  0.00    +0.057 C 
ATOM     12  C   UNL     1      34.715 -17.123 -23.454  0.00  0.00    +0.089 C 
ATOM     13  C   UNL     1      35.329 -16.471 -21.210  0.00  0.00    +0.015 C 
ATOM     14  C   UNL     1      35.021 -18.450 -23.151  0.00  0.00    +0.008 C 
ATOM     15  C   UNL     1      35.634 -17.799 -20.908  0.00  0.00    +0.001 C 
ATOM     16  C   UNL     1      35.480 -18.788 -21.879  0.00  0.00    +0.000 C 
BRANCH  12  18
ATOM     17  O   UNL     1      34.715 -15.943 -25.534  0.00  0.00    -0.245 OA
ATOM     18  C   UNL     1      34.237 -16.805 -24.794  0.00  0.00    +0.339 C 
BRANCH  18  19
ATOM     19  O   UNL     1      33.177 -17.575 -25.161  0.00  0.00    -0.477 OA
ATOM     20  H   UNL     1      32.340 -17.439 -24.763  0.00  0.00    +0.295 HD
ENDBRANCH  18  19
ENDBRANCH  12  18
ENDBRANCH   8  11
ENDBRANCH   4   9
BRANCH   1  21
ATOM     21  S   UNL     1      31.879  -9.064 -21.540  0.00  0.00    +0.064 S 
ATOM     22  O   UNL     1      30.465  -9.331 -21.697  0.00  0.00    -0.153 OA
ATOM     23  O   UNL     1      32.473  -8.951 -20.225  0.00  0.00    -0.153 OA
BRANCH  21  24
ATOM     24  N   UNL     1      32.293  -7.680 -22.459  0.00  0.00    -0.151 NA
ATOM     25  C   UNL     1      33.663  -7.143 -22.240  0.00  0.00    +0.101 C 
ATOM     26  C   UNL     1      31.265  -6.596 -22.486  0.00  0.00    +0.122 C 
ATOM     27  C   UNL     1      34.041  -6.266 -23.430  0.00  0.00    +0.045 C 
ATOM     28  C   UNL     1      31.671  -5.387 -23.294  0.00  0.00    -0.008 C 
ATOM     29  C   UNL     1      33.001  -5.212 -23.716  0.00  0.00    -0.023 C 
ATOM     30  C   UNL     1      30.717  -4.405 -23.593  0.00  0.00    -0.003 C 
ATOM     31  C   UNL     1      33.346  -4.075 -24.459  0.00  0.00    -0.004 C 
ATOM     32  C   UNL     1      31.074  -3.271 -24.323  0.00  0.00    -0.000 C 
ATOM     33  C   UNL     1      32.387  -3.108 -24.757  0.00  0.00    -0.000 C 
ENDBRANCH  21  24
ENDBRANCH   1  21
TORSDOF 6
ENDMDL
MODEL 6
REMARK VINA RESULT:     -11.6      2.165      9.606
REMARK  Name = 24941254
REMARK  6 active torsions:
REMARK  status: ('A' for Active; 'I' for Inactive)
REMARK    1  A    between atoms: C_1  and  S_21
REMARK    2  A    between atoms: C_4  and  C_9
REMARK    3  A    between atoms: N_8  and  C_11
REMARK    4  A    between atoms: C_12  and  C_18
REMARK    5  A    between atoms: C_18  and  O_19
REMARK    6  A    between atoms: S_21  and  N_24
REMARK                            x       y       z     vdW  Elec       q    Type
REMARK                         _______ _______ _______ _____ _____    ______ ____
ROOT
ATOM      1  C   UNL     1      34.930 -21.093 -19.416  0.00  0.00    +0.122 C 
ATOM      2  C   UNL     1      34.405 -20.294 -20.431  0.00  0.00    +0.024 C 
ATOM      3  C   UNL     1      36.250 -20.913 -19.000  0.00  0.00    +0.020 C 
ATOM      4  C   UNL     1      35.199 -19.317 -21.031  0.00  0.00    +0.055 C 
ATOM      5  C   UNL     1      37.044 -19.935 -19.599  0.00  0.00    +0.002 C 
ATOM      6  C   UNL     1      36.517 -19.137 -20.615  0.00  0.00    +0.005 C 
ENDROOT
BRANCH   4   9
ATOM      7  O   UNL     1      33.890 -18.994 -22.927  0.00  0.00    -0.270 OA
ATOM      8  N   UNL     1      35.022 -17.132 -22.059  0.00  0.00    -0.280 N 
ATOM      9  C   UNL     1      34.651 -18.483 -22.090  0.00  0.00    +0.250 C 
ATOM     10  H   UNL     1      35.634 -16.872 -21.333  0.00  0.00    +0.155 HD
BRANCH   8  11
ATOM     11  C   UNL     1      34.629 -16.089 -22.934  0.00  0.00    +0.057 C 
ATOM     12  C   UNL     1      34.271 -14.834 -22.441  0.00  0.00    +0.089 C 
ATOM     13  C   UNL     1      34.603 -16.332 -24.307  0.00  0.00    +0.015 C 
ATOM     14  C   UNL     1      33.888 -13.823 -23.323  0.00  0.00    +0.008 C 
ATOM     15  C   UNL     1      34.219 -15.321 -25.188  0.00  0.00    +0.001 C 
ATOM     16  C   UNL     1      33.861 -14.067 -24.695  0.00  0.00    +0.000 C 
BRANCH  12  18
ATOM     17  O   UNL     1      35.036 -15.074 -20.188  0.00  0.00    -0.245 OA
ATOM     18  C   UNL     1      34.287 -14.546 -21.012  0.00  0.00    +0.339 C 
BRANCH  18  19
ATOM     19  O   UNL     1      33.366 -13.607 -20.664  0.00  0.00    -0.477 OA
ATOM     20  H   UNL     1      32.955 -13.644 -19.823  0.00  0.00    +0.295 HD
ENDBRANCH  18  19
ENDBRANCH  12  18
ENDBRANCH   8  11
ENDBRANCH   4   9
BRANCH   1  21
ATOM     21  S   UNL     1      33.928 -22.332 -18.657  0.00  0.00    +0.064 S 
ATOM     22  O   UNL     1      32.585 -21.804 -18.540  0.00  0.00    -0.153 OA
ATOM     23  O   UNL     1      34.178 -23.585 -19.338  0.00  0.00    -0.153 OA
BRANCH  21  24
ATOM     24  N   UNL     1      34.645 -22.390 -17.104  0.00  0.00    -0.151 NA
ATOM     25  C   UNL     1      36.127 -22.519 -17.078  0.00  0.00    +0.101 C 
ATOM     26  C   UNL     1      33.988 -23.309 -16.127  0.00  0.00    +0.122 C 
ATOM     27  C   UNL     1      36.634 -22.074 -15.710  0.00  0.00    +0.045 C 
ATOM     28  C   UNL     1      34.655 -23.345 -14.773  0.00  0.00    -0.008 C 
ATOM     29  C   UNL     1      35.931 -22.786 -14.582  0.00  0.00    -0.023 C 
ATOM     30  C   UNL     1      34.012 -23.980 -13.703  0.00  0.00    -0.003 C 
ATOM     31  C   UNL     1      36.526 -22.841 -13.314  0.00  0.00    -0.004 C 
ATOM     32  C   UNL     1      34.618 -24.040 -12.448  0.00  0.00    -0.000 C 
ATOM     33  C   UNL     1      35.874 -23.468 -12.254  0.00  0.00    -0.000 C 
ENDBRANCH  21  24
ENDBRANCH   1  21
TORSDOF 6
ENDMDL
MODEL 7
REMARK VINA RESULT:     -11.6      2.776      9.693
REMARK  Name = 24941254
REMARK  6 active torsions:
REMARK  status: ('A' for Active; 'I' for Inactive)
REMARK    1  A    between atoms: C_1  and  S_21
REMARK    2  A    between atoms: C_4  and  C_9
REMARK    3  A    between atoms: N_8  and  C_11
REMARK    4  A    between atoms: C_12  and  C_18
REMARK    5  A    between atoms: C_18  and  O_19
REMARK    6  A    between atoms: S_21  and  N_24
REMARK                            x       y       z     vdW  Elec       q    Type
REMARK                         _______ _______ _______ _____ _____    ______ ____
ROOT
ATOM      1  C   UNL     1      35.354 -18.234 -22.415  0.00  0.00    +0.122 C 
ATOM      2  C   UNL     1      34.979 -16.941 -22.778  0.00  0.00    +0.024 C 
ATOM      3  C   UNL     1      34.968 -19.318 -23.206  0.00  0.00    +0.020 C 
ATOM      4  C   UNL     1      34.220 -16.730 -23.929  0.00  0.00    +0.055 C 
ATOM      5  C   UNL     1      34.209 -19.108 -24.357  0.00  0.00    +0.002 C 
ATOM      6  C   UNL     1      33.835 -17.813 -24.718  0.00  0.00    +0.005 C 
ENDROOT
BRANCH   4   9
ATOM      7  O   UNL     1      33.272 -15.198 -25.400  0.00  0.00    -0.270 OA
ATOM      8  N   UNL     1      34.103 -14.378 -23.366  0.00  0.00    -0.280 N 
ATOM      9  C   UNL     1      33.830 -15.381 -24.307  0.00  0.00    +0.250 C 
ATOM     10  H   UNL     1      34.552 -14.676 -22.541  0.00  0.00    +0.155 HD
BRANCH   8  11
ATOM     11  C   UNL     1      33.818 -12.994 -23.444  0.00  0.00    +0.057 C 
ATOM     12  C   UNL     1      33.139 -12.340 -22.416  0.00  0.00    +0.089 C 
ATOM     13  C   UNL     1      34.227 -12.282 -24.572  0.00  0.00    +0.015 C 
ATOM     14  C   UNL     1      32.869 -10.975 -22.516  0.00  0.00    +0.008 C 
ATOM     15  C   UNL     1      33.956 -10.917 -24.672  0.00  0.00    +0.001 C 
ATOM     16  C   UNL     1      33.277 -10.264 -23.644  0.00  0.00    +0.000 C 
BRANCH  12  18
ATOM     17  O   UNL     1      33.375 -13.863 -20.586  0.00  0.00    -0.245 OA
ATOM     18  C   UNL     1      32.698 -13.053 -21.223  0.00  0.00    +0.339 C 
BRANCH  18  19
ATOM     19  O   UNL     1      31.425 -12.730 -20.869  0.00  0.00    -0.477 OA
ATOM     20  H   UNL     1      30.761 -12.654 -21.525  0.00  0.00    +0.295 HD
ENDBRANCH  18  19
ENDBRANCH  12  18
ENDBRANCH   8  11
ENDBRANCH   4   9
BRANCH   1  21
ATOM     21  S   UNL     1      36.313 -18.502 -20.958  0.00  0.00    +0.064 S 
ATOM     22  O   UNL     1      37.596 -19.034 -21.365  0.00  0.00    -0.153 OA
ATOM     23  O   UNL     1      36.226 -17.308 -20.143  0.00  0.00    -0.153 OA
BRANCH  21  24
ATOM     24  N   UNL     1      35.398 -19.747 -20.221  0.00  0.00    -0.151 NA
ATOM     25  C   UNL     1      33.939 -19.489 -20.090  0.00  0.00    +0.101 C 
ATOM     26  C   UNL     1      35.980 -20.314 -18.967  0.00  0.00    +0.122 C 
ATOM     27  C   UNL     1      33.222 -20.821 -19.886  0.00  0.00    +0.045 C 
ATOM     28  C   UNL     1      35.139 -21.399 -18.337  0.00  0.00    -0.008 C 
ATOM     29  C   UNL     1      33.814 -21.619 -18.752  0.00  0.00    -0.023 C 
ATOM     30  C   UNL     1      35.674 -22.171 -17.297  0.00  0.00    -0.003 C 
ATOM     31  C   UNL     1      33.058 -22.630 -18.143  0.00  0.00    -0.004 C 
ATOM     32  C   UNL     1      34.910 -23.167 -16.690  0.00  0.00    -0.000 C 
ATOM     33  C   UNL     1      33.603 -23.397 -17.114  0.00  0.00    -0.000 C 
ENDBRANCH  21  24
ENDBRANCH   1  21
TORSDOF 6
ENDMDL
MODEL 8
REMARK VINA RESULT:     -11.6      1.334      2.340
REMARK  Name = 24941254
REMARK  6 active torsions:
REMARK  status: ('A' for Active; 'I' for Inactive)
REMARK    1  A    between atoms: C_1  and  S_21
REMARK    2  A    between atoms: C_4  and  C_9
REMARK    3  A    between atoms: N_8  and  C_11
REMARK    4  A    between atoms: C_12  and  C_18
REMARK    5  A    between atoms: C_18  and  O_19
REMARK    6  A    between atoms: S_21  and  N_24
REMARK                            x       y       z     vdW  Elec       q    Type
REMARK                         _______ _______ _______ _____ _____    ______ ____
ROOT
ATOM      1  C   UNL     1      35.238 -19.486 -20.873  0.00  0.00    +0.122 C 
ATOM      2  C   UNL     1      35.646 -20.280 -19.801  0.00  0.00    +0.024 C 
ATOM      3  C   UNL     1      33.895 -19.463 -21.251  0.00  0.00    +0.020 C 
ATOM      4  C   UNL     1      34.712 -21.050 -19.108  0.00  0.00    +0.055 C 
ATOM      5  C   UNL     1      32.961 -20.233 -20.557  0.00  0.00    +0.002 C 
ATOM      6  C   UNL     1      33.371 -21.026 -19.485  0.00  0.00    +0.005 C 
ENDROOT
BRANCH   4   9
ATOM      7  O   UNL     1      36.344 -22.140 -17.858  0.00  0.00    -0.270 OA
ATOM      8  N   UNL     1      34.123 -22.298 -17.118  0.00  0.00    -0.280 N 
ATOM      9  C   UNL     1      35.138 -21.877 -17.989  0.00  0.00    +0.250 C 
ATOM     10  H   UNL     1      33.212 -22.010 -17.353  0.00  0.00    +0.155 HD
BRANCH   8  11
ATOM     11  C   UNL     1      34.238 -23.081 -15.944  0.00  0.00    +0.057 C 
ATOM     12  C   UNL     1      33.104 -23.534 -15.269  0.00  0.00    +0.089 C 
ATOM     13  C   UNL     1      35.509 -23.398 -15.464  0.00  0.00    +0.015 C 
ATOM     14  C   UNL     1      33.243 -24.305 -14.114  0.00  0.00    +0.008 C 
ATOM     15  C   UNL     1      35.646 -24.167 -14.308  0.00  0.00    +0.001 C 
ATOM     16  C   UNL     1      34.513 -24.620 -13.634  0.00  0.00    +0.000 C 
BRANCH  12  18
ATOM     17  O   UNL     1      31.498 -22.513 -16.717  0.00  0.00    -0.245 OA
ATOM     18  C   UNL     1      31.762 -23.222 -15.743  0.00  0.00    +0.339 C 
BRANCH  18  19
ATOM     19  O   UNL     1      30.796 -23.807 -14.984  0.00  0.00    -0.477 OA
ATOM     20  H   UNL     1      30.980 -24.049 -14.098  0.00  0.00    +0.295 HD
ENDBRANCH  18  19
ENDBRANCH  12  18
ENDBRANCH   8  11
ENDBRANCH   4   9
BRANCH   1  21
ATOM     21  S   UNL     1      36.419 -18.513 -21.753  0.00  0.00    +0.064 S 
ATOM     22  O   UNL     1      37.663 -18.552 -21.013  0.00  0.00    -0.153 OA
ATOM     23  O   UNL     1      36.369 -18.904 -23.146  0.00  0.00    -0.153 OA
BRANCH  21  24
ATOM     24  N   UNL     1      35.715 -16.962 -21.584  0.00  0.00    -0.151 NA
ATOM     25  C   UNL     1      34.974 -16.720 -20.317  0.00  0.00    +0.101 C 
ATOM     26  C   UNL     1      34.961 -16.467 -22.776  0.00  0.00    +0.122 C 
ATOM     27  C   UNL     1      34.842 -15.214 -20.107  0.00  0.00    +0.045 C 
ATOM     28  C   UNL     1      34.343 -15.102 -22.586  0.00  0.00    -0.008 C 
ATOM     29  C   UNL     1      34.256 -14.519 -21.309  0.00  0.00    -0.023 C 
ATOM     30  C   UNL     1      33.811 -14.425 -23.692  0.00  0.00    -0.003 C 
ATOM     31  C   UNL     1      33.670 -13.254 -21.166  0.00  0.00    -0.004 C 
ATOM     32  C   UNL     1      33.220 -13.172 -23.537  0.00  0.00    -0.000 C 
ATOM     33  C   UNL     1      33.151 -12.586 -22.275  0.00  0.00    -0.000 C 
ENDBRANCH  21  24
ENDBRANCH   1  21
TORSDOF 6
ENDMDL
MODEL 9
REMARK VINA RESULT:     -11.4      1.888      2.811
REMARK  Name = 24941254
REMARK  6 active torsions:
REMARK  status: ('A' for Active; 'I' for Inactive)
REMARK    1  A    between atoms: C_1  and  S_21
REMARK    2  A    between atoms: C_4  and  C_9
REMARK    3  A    between atoms: N_8  and  C_11
REMARK    4  A    between atoms: C_12  and  C_18
REMARK    5  A    between atoms: C_18  and  O_19
REMARK    6  A    between atoms: S_21  and  N_24
REMARK                            x       y       z     vdW  Elec       q    Type
REMARK                         _______ _______ _______ _____ _____    ______ ____
ROOT
ATOM      1  C   UNL     1      35.090 -18.573 -22.686  0.00  0.00    +0.122 C 
ATOM      2  C   UNL     1      34.416 -19.326 -21.724  0.00  0.00    +0.024 C 
ATOM      3  C   UNL     1      36.431 -18.238 -22.493  0.00  0.00    +0.020 C 
ATOM      4  C   UNL     1      35.081 -19.743 -20.572  0.00  0.00    +0.055 C 
ATOM      5  C   UNL     1      37.096 -18.654 -21.341  0.00  0.00    +0.002 C 
ATOM      6  C   UNL     1      36.421 -19.407 -20.380  0.00  0.00    +0.005 C 
ENDROOT
BRANCH   4   9
ATOM      7  O   UNL     1      33.137 -20.547 -19.579  0.00  0.00    -0.270 OA
ATOM      8  N   UNL     1      35.187 -21.236 -18.669  0.00  0.00    -0.280 N 
ATOM      9  C   UNL     1      34.378 -20.529 -19.569  0.00  0.00    +0.250 C 
ATOM     10  H   UNL     1      36.158 -21.123 -18.785  0.00  0.00    +0.155 HD
BRANCH   8  11
ATOM     11  C   UNL     1      34.790 -22.095 -17.614  0.00  0.00    +0.057 C 
ATOM     12  C   UNL     1      35.651 -22.373 -16.552  0.00  0.00    +0.089 C 
ATOM     13  C   UNL     1      33.518 -22.665 -17.649  0.00  0.00    +0.015 C 
ATOM     14  C   UNL     1      35.237 -23.222 -15.525  0.00  0.00    +0.008 C 
ATOM     15  C   UNL     1      33.106 -23.515 -16.623  0.00  0.00    +0.001 C 
ATOM     16  C   UNL     1      33.966 -23.793 -15.561  0.00  0.00    +0.000 C 
BRANCH  12  18
ATOM     17  O   UNL     1      37.295 -20.667 -16.879  0.00  0.00    -0.245 OA
ATOM     18  C   UNL     1      36.986 -21.794 -16.484  0.00  0.00    +0.339 C 
BRANCH  18  19
ATOM     19  O   UNL     1      37.890 -22.643 -15.925  0.00  0.00    -0.477 OA
ATOM     20  H   UNL     1      37.595 -23.392 -15.447  0.00  0.00    +0.295 HD
ENDBRANCH  18  19
ENDBRANCH  12  18
ENDBRANCH   8  11
ENDBRANCH   4   9
BRANCH   1  21
ATOM     21  S   UNL     1      34.248 -18.044 -24.144  0.00  0.00    +0.064 S 
ATOM     22  O   UNL     1      35.053 -18.431 -25.284  0.00  0.00    -0.153 OA
ATOM     23  O   UNL     1      32.865 -18.457 -24.035  0.00  0.00    -0.153 OA
BRANCH  21  24
ATOM     24  N   UNL     1      34.340 -16.346 -23.944  0.00  0.00    -0.151 NA
ATOM     25  C   UNL     1      34.185 -15.848 -22.551  0.00  0.00    +0.101 C 
ATOM     26  C   UNL     1      33.540 -15.542 -24.917  0.00  0.00    +0.122 C 
ATOM     27  C   UNL     1      34.762 -14.438 -22.469  0.00  0.00    +0.045 C 
ATOM     28  C   UNL     1      33.634 -14.050 -24.701  0.00  0.00    -0.008 C 
ATOM     29  C   UNL     1      34.185 -13.524 -23.520  0.00  0.00    -0.023 C 
ATOM     30  C   UNL     1      33.127 -13.179 -25.675  0.00  0.00    -0.003 C 
ATOM     31  C   UNL     1      34.252 -12.134 -23.348  0.00  0.00    -0.004 C 
ATOM     32  C   UNL     1      33.187 -11.798 -25.488  0.00  0.00    -0.000 C 
ATOM     33  C   UNL     1      33.751 -11.277 -24.327  0.00  0.00    -0.000 C 
ENDBRANCH  21  24
ENDBRANCH   1  21
TORSDOF 6
ENDMDL
