MODEL 1
REMARK VINA RESULT:     -11.9      0.000      0.000
REMARK  Name = 71360
REMARK  8 active torsions:
REMARK  status: ('A' for Active; 'I' for Inactive)
REMARK    1  A    between atoms: N_1  and  C_18
REMARK    2  A    between atoms: C_2  and  C_11
REMARK    3  A    between atoms: C_18  and  C_19
REMARK    4  A    between atoms: C_19  and  C_20
REMARK    5  A    between atoms: C_20  and  O_21
REMARK    6  A    between atoms: O_21  and  C_22
REMARK    7  A    between atoms: C_23  and  O_31
REMARK    8  A    between atoms: C_27  and  C_29
REMARK                            x       y       z     vdW  Elec       q    Type
REMARK                         _______ _______ _______ _____ _____    ______ ____
ROOT
ATOM      1  N   UNL     1      35.064 -16.624 -24.086  0.00  0.00    +0.387 N 
ATOM      2  C   UNL     1      34.849 -18.261 -21.661  0.00  0.00    +0.039 C 
ATOM      3  C   UNL     1      35.682 -16.971 -21.714  0.00  0.00    -0.017 C 
ATOM      4  C   UNL     1      34.716 -18.855 -23.072  0.00  0.00    -0.017 C 
ATOM      5  C   UNL     1      35.131 -15.996 -22.759  0.00  0.00    -0.077 C 
ATOM      6  C   UNL     1      34.200 -17.813 -24.067  0.00  0.00    -0.077 C 
ATOM      7  H   UNL     1      36.005 -16.923 -24.341  0.00  0.00    -0.080 HD
ENDROOT
BRANCH   2  11
ATOM      8  F   UNL     1      33.734 -23.339 -17.395  0.00  0.00    -0.204 F 
ATOM      9  O   UNL     1      36.835 -20.276 -19.429  0.00  0.00    -0.354 OA
ATOM     10  N   UNL     1      36.679 -19.261 -20.365  0.00  0.00    -0.081 NA
ATOM     11  C   UNL     1      35.380 -19.258 -20.655  0.00  0.00    +0.100 A 
ATOM     12  C   UNL     1      34.657 -20.232 -19.951  0.00  0.00    +0.054 A 
ATOM     13  C   UNL     1      35.626 -20.853 -19.183  0.00  0.00    +0.179 A 
ATOM     14  C   UNL     1      33.328 -20.669 -19.856  0.00  0.00    +0.007 C 
ATOM     15  C   UNL     1      35.377 -21.904 -18.306  0.00  0.00    +0.070 C 
ATOM     16  C   UNL     1      33.040 -21.727 -18.980  0.00  0.00    +0.030 C 
ATOM     17  C   UNL     1      34.047 -22.331 -18.221  0.00  0.00    +0.143 C 
ENDBRANCH   2  11
BRANCH   1  18
ATOM     18  C   UNL     1      34.590 -15.663 -25.082  0.00  0.00    -0.074 C 
BRANCH  18  19
ATOM     19  C   UNL     1      33.332 -14.962 -24.584  0.00  0.00    +0.025 C 
BRANCH  19  20
ATOM     20  C   UNL     1      33.407 -13.457 -24.803  0.00  0.00    +0.203 C 
BRANCH  20  21
ATOM     21  O   UNL     1      34.097 -12.867 -23.711  0.00  0.00    -0.472 OA
BRANCH  21  22
ATOM     22  C   UNL     1      33.533 -11.749 -23.153  0.00  0.00    +0.172 C 
ATOM     23  C   UNL     1      32.609 -11.873 -22.120  0.00  0.00    +0.172 C 
ATOM     24  C   UNL     1      33.895 -10.495 -23.633  0.00  0.00    +0.040 C 
ATOM     25  C   UNL     1      32.041 -10.728 -21.560  0.00  0.00    +0.043 C 
ATOM     26  C   UNL     1      33.327  -9.350 -23.073  0.00  0.00    +0.006 C 
ATOM     27  C   UNL     1      32.400  -9.467 -22.037  0.00  0.00    +0.038 C 
BRANCH  27  29
ATOM     28  O   UNL     1      30.997  -7.571 -22.089  0.00  0.00    -0.291 OA
ATOM     29  C   UNL     1      31.808  -8.273 -21.453  0.00  0.00    +0.174 C 
ATOM     30  C   UNL     1      32.172  -7.851 -20.034  0.00  0.00    +0.077 C 
ENDBRANCH  27  29
BRANCH  23  31
ATOM     31  O   UNL     1      32.251 -13.099 -21.645  0.00  0.00    -0.468 OA
ATOM     32  C   UNL     1      32.190 -13.252 -20.229  0.00  0.00    +0.253 C 
ENDBRANCH  23  31
ENDBRANCH  21  22
ENDBRANCH  20  21
ENDBRANCH  19  20
ENDBRANCH  18  19
ENDBRANCH   1  18
TORSDOF 8
ENDMDL
MODEL 2
REMARK VINA RESULT:     -11.8      4.117     11.131
REMARK  Name = 71360
REMARK  8 active torsions:
REMARK  status: ('A' for Active; 'I' for Inactive)
REMARK    1  A    between atoms: N_1  and  C_18
REMARK    2  A    between atoms: C_2  and  C_11
REMARK    3  A    between atoms: C_18  and  C_19
REMARK    4  A    between atoms: C_19  and  C_20
REMARK    5  A    between atoms: C_20  and  O_21
REMARK    6  A    between atoms: O_21  and  C_22
REMARK    7  A    between atoms: C_23  and  O_31
REMARK    8  A    between atoms: C_27  and  C_29
REMARK                            x       y       z     vdW  Elec       q    Type
REMARK                         _______ _______ _______ _____ _____    ______ ____
ROOT
ATOM      1  N   UNL     1      35.748 -19.439 -20.292  0.00  0.00    +0.387 N 
ATOM      2  C   UNL     1      35.176 -18.262 -22.917  0.00  0.00    +0.039 C 
ATOM      3  C   UNL     1      36.192 -17.648 -21.941  0.00  0.00    -0.017 C 
ATOM      4  C   UNL     1      34.139 -19.088 -22.139  0.00  0.00    -0.017 C 
ATOM      5  C   UNL     1      36.796 -18.715 -21.024  0.00  0.00    -0.077 C 
ATOM      6  C   UNL     1      34.817 -20.103 -21.216  0.00  0.00    -0.077 C 
ATOM      7  H   UNL     1      35.218 -18.760 -19.746  0.00  0.00    -0.080 HD
ENDROOT
BRANCH   2  11
ATOM      8  F   UNL     1      33.406 -11.879 -24.082  0.00  0.00    -0.204 F 
ATOM      9  O   UNL     1      33.547 -16.451 -25.572  0.00  0.00    -0.354 OA
ATOM     10  N   UNL     1      34.045 -17.613 -24.998  0.00  0.00    -0.081 NA
ATOM     11  C   UNL     1      34.541 -17.231 -23.824  0.00  0.00    +0.100 A 
ATOM     12  C   UNL     1      34.397 -15.856 -23.587  0.00  0.00    +0.054 A 
ATOM     13  C   UNL     1      33.757 -15.403 -24.728  0.00  0.00    +0.179 A 
ATOM     14  C   UNL     1      34.713 -14.939 -22.574  0.00  0.00    +0.007 C 
ATOM     15  C   UNL     1      33.399 -14.078 -24.953  0.00  0.00    +0.070 C 
ATOM     16  C   UNL     1      34.366 -13.594 -22.767  0.00  0.00    +0.030 C 
ATOM     17  C   UNL     1      33.722 -13.173 -23.935  0.00  0.00    +0.143 C 
ENDBRANCH   2  11
BRANCH   1  18
ATOM     18  C   UNL     1      36.344 -20.415 -19.378  0.00  0.00    -0.074 C 
BRANCH  18  19
ATOM     19  C   UNL     1      35.623 -21.754 -19.492  0.00  0.00    +0.025 C 
BRANCH  19  20
ATOM     20  C   UNL     1      34.513 -21.880 -18.458  0.00  0.00    +0.203 C 
BRANCH  20  21
ATOM     21  O   UNL     1      34.913 -22.814 -17.465  0.00  0.00    -0.472 OA
BRANCH  21  22
ATOM     22  C   UNL     1      33.991 -23.123 -16.499  0.00  0.00    +0.172 C 
ATOM     23  C   UNL     1      34.399 -23.706 -15.303  0.00  0.00    +0.172 C 
ATOM     24  C   UNL     1      32.648 -22.849 -16.731  0.00  0.00    +0.040 C 
ATOM     25  C   UNL     1      33.451 -24.017 -14.328  0.00  0.00    +0.043 C 
ATOM     26  C   UNL     1      31.700 -23.160 -15.755  0.00  0.00    +0.006 C 
ATOM     27  C   UNL     1      32.102 -23.744 -14.554  0.00  0.00    +0.038 C 
BRANCH  27  29
ATOM     28  O   UNL     1      31.186 -23.593 -12.385  0.00  0.00    -0.291 OA
ATOM     29  C   UNL     1      31.114 -24.068 -13.537  0.00  0.00    +0.174 C 
ATOM     30  C   UNL     1      29.956 -25.004 -13.861  0.00  0.00    +0.077 C 
ENDBRANCH  27  29
BRANCH  23  31
ATOM     31  O   UNL     1      35.714 -23.976 -15.070  0.00  0.00    -0.468 OA
ATOM     32  C   UNL     1      36.025 -25.255 -14.524  0.00  0.00    +0.253 C 
ENDBRANCH  23  31
ENDBRANCH  21  22
ENDBRANCH  20  21
ENDBRANCH  19  20
ENDBRANCH  18  19
ENDBRANCH   1  18
TORSDOF 8
ENDMDL
MODEL 3
REMARK VINA RESULT:     -11.8      4.960     11.912
REMARK  Name = 71360
REMARK  8 active torsions:
REMARK  status: ('A' for Active; 'I' for Inactive)
REMARK    1  A    between atoms: N_1  and  C_18
REMARK    2  A    between atoms: C_2  and  C_11
REMARK    3  A    between atoms: C_18  and  C_19
REMARK    4  A    between atoms: C_19  and  C_20
REMARK    5  A    between atoms: C_20  and  O_21
REMARK    6  A    between atoms: O_21  and  C_22
REMARK    7  A    between atoms: C_23  and  O_31
REMARK    8  A    between atoms: C_27  and  C_29
REMARK                            x       y       z     vdW  Elec       q    Type
REMARK                         _______ _______ _______ _____ _____    ______ ____
ROOT
ATOM      1  N   UNL     1      33.919 -21.989 -18.350  0.00  0.00    +0.387 N 
ATOM      2  C   UNL     1      34.605 -20.150 -20.530  0.00  0.00    +0.039 C 
ATOM      3  C   UNL     1      35.653 -20.684 -19.541  0.00  0.00    -0.017 C 
ATOM      4  C   UNL     1      33.212 -20.177 -19.880  0.00  0.00    -0.017 C 
ATOM      5  C   UNL     1      35.244 -22.050 -18.982  0.00  0.00    -0.077 C 
ATOM      6  C   UNL     1      32.892 -21.560 -19.311  0.00  0.00    -0.077 C 
ATOM      7  H   UNL     1      33.958 -21.297 -17.602  0.00  0.00    -0.080 HD
ENDROOT
BRANCH   2  11
ATOM      8  F   UNL     1      34.476 -15.744 -25.609  0.00  0.00    -0.204 F 
ATOM      9  O   UNL     1      35.798 -16.799 -21.107  0.00  0.00    -0.354 OA
ATOM     10  N   UNL     1      35.630 -17.929 -20.316  0.00  0.00    -0.081 NA
ATOM     11  C   UNL     1      34.965 -18.789 -21.084  0.00  0.00    +0.100 A 
ATOM     12  C   UNL     1      34.679 -18.281 -22.359  0.00  0.00    +0.054 A 
ATOM     13  C   UNL     1      35.230 -17.012 -22.326  0.00  0.00    +0.179 A 
ATOM     14  C   UNL     1      34.037 -18.714 -23.529  0.00  0.00    +0.007 C 
ATOM     15  C   UNL     1      35.193 -16.112 -23.387  0.00  0.00    +0.070 C 
ATOM     16  C   UNL     1      33.981 -17.833 -24.619  0.00  0.00    +0.030 C 
ATOM     17  C   UNL     1      34.549 -16.557 -24.547  0.00  0.00    +0.143 C 
ENDBRANCH   2  11
BRANCH   1  18
ATOM     18  C   UNL     1      33.568 -23.287 -17.772  0.00  0.00    -0.074 C 
BRANCH  18  19
ATOM     19  C   UNL     1      32.545 -23.109 -16.656  0.00  0.00    +0.025 C 
BRANCH  19  20
ATOM     20  C   UNL     1      33.147 -23.416 -15.292  0.00  0.00    +0.203 C 
BRANCH  20  21
ATOM     21  O   UNL     1      34.409 -22.771 -15.190  0.00  0.00    -0.472 OA
BRANCH  21  22
ATOM     22  C   UNL     1      35.492 -23.568 -14.923  0.00  0.00    +0.172 C 
ATOM     23  C   UNL     1      36.769 -23.020 -14.873  0.00  0.00    +0.172 C 
ATOM     24  C   UNL     1      35.296 -24.927 -14.705  0.00  0.00    +0.040 C 
ATOM     25  C   UNL     1      37.863 -23.841 -14.601  0.00  0.00    +0.043 C 
ATOM     26  C   UNL     1      36.390 -25.749 -14.433  0.00  0.00    +0.006 C 
ATOM     27  C   UNL     1      37.674 -25.206 -14.381  0.00  0.00    +0.038 C 
BRANCH  27  29
ATOM     28  O   UNL     1      38.729 -27.305 -14.166  0.00  0.00    -0.291 OA
ATOM     29  C   UNL     1      38.815 -26.062 -14.096  0.00  0.00    +0.174 C 
ATOM     30  C   UNL     1      40.155 -25.450 -13.703  0.00  0.00    +0.077 C 
ENDBRANCH  27  29
BRANCH  23  31
ATOM     31  O   UNL     1      36.967 -21.689 -15.085  0.00  0.00    -0.468 OA
ATOM     32  C   UNL     1      37.401 -21.297 -16.386  0.00  0.00    +0.253 C 
ENDBRANCH  23  31
ENDBRANCH  21  22
ENDBRANCH  20  21
ENDBRANCH  19  20
ENDBRANCH  18  19
ENDBRANCH   1  18
TORSDOF 8
ENDMDL
MODEL 4
REMARK VINA RESULT:     -11.4      4.464     11.476
REMARK  Name = 71360
REMARK  8 active torsions:
REMARK  status: ('A' for Active; 'I' for Inactive)
REMARK    1  A    between atoms: N_1  and  C_18
REMARK    2  A    between atoms: C_2  and  C_11
REMARK    3  A    between atoms: C_18  and  C_19
REMARK    4  A    between atoms: C_19  and  C_20
REMARK    5  A    between atoms: C_20  and  O_21
REMARK    6  A    between atoms: O_21  and  C_22
REMARK    7  A    between atoms: C_23  and  O_31
REMARK    8  A    between atoms: C_27  and  C_29
REMARK                            x       y       z     vdW  Elec       q    Type
REMARK                         _______ _______ _______ _____ _____    ______ ____
ROOT
ATOM      1  N   UNL     1      35.813 -19.483 -20.349  0.00  0.00    +0.387 N 
ATOM      2  C   UNL     1      35.210 -18.182 -22.908  0.00  0.00    +0.039 C 
ATOM      3  C   UNL     1      36.182 -17.576 -21.883  0.00  0.00    -0.017 C 
ATOM      4  C   UNL     1      34.208 -19.104 -22.195  0.00  0.00    -0.017 C 
ATOM      5  C   UNL     1      36.830 -18.664 -21.021  0.00  0.00    -0.077 C 
ATOM      6  C   UNL     1      34.927 -20.137 -21.323  0.00  0.00    -0.077 C 
ATOM      7  H   UNL     1      35.242 -18.866 -19.771  0.00  0.00    -0.080 HD
ENDROOT
BRANCH   2  11
ATOM      8  F   UNL     1      33.381 -11.778 -23.845  0.00  0.00    -0.204 F 
ATOM      9  O   UNL     1      33.459 -16.314 -25.443  0.00  0.00    -0.354 OA
ATOM     10  N   UNL     1      33.984 -17.488 -24.919  0.00  0.00    -0.081 NA
ATOM     11  C   UNL     1      34.533 -17.132 -23.760  0.00  0.00    +0.100 A 
ATOM     12  C   UNL     1      34.398 -15.763 -23.486  0.00  0.00    +0.054 A 
ATOM     13  C   UNL     1      33.706 -15.286 -24.586  0.00  0.00    +0.179 A 
ATOM     14  C   UNL     1      34.760 -14.868 -22.468  0.00  0.00    +0.007 C 
ATOM     15  C   UNL     1      33.337 -13.956 -24.764  0.00  0.00    +0.070 C 
ATOM     16  C   UNL     1      34.403 -13.520 -22.614  0.00  0.00    +0.030 C 
ATOM     17  C   UNL     1      33.705 -13.074 -23.742  0.00  0.00    +0.143 C 
ENDBRANCH   2  11
BRANCH   1  18
ATOM     18  C   UNL     1      36.447 -20.481 -19.486  0.00  0.00    -0.074 C 
BRANCH  18  19
ATOM     19  C   UNL     1      35.390 -21.358 -18.826  0.00  0.00    +0.025 C 
BRANCH  19  20
ATOM     20  C   UNL     1      35.911 -21.992 -17.544  0.00  0.00    +0.203 C 
BRANCH  20  21
ATOM     21  O   UNL     1      34.845 -22.681 -16.905  0.00  0.00    -0.472 OA
BRANCH  21  22
ATOM     22  C   UNL     1      35.029 -23.025 -15.592  0.00  0.00    +0.172 C 
ATOM     23  C   UNL     1      33.941 -23.384 -14.803  0.00  0.00    +0.172 C 
ATOM     24  C   UNL     1      36.314 -23.008 -15.060  0.00  0.00    +0.040 C 
ATOM     25  C   UNL     1      34.141 -23.732 -13.467  0.00  0.00    +0.043 C 
ATOM     26  C   UNL     1      36.514 -23.356 -13.723  0.00  0.00    +0.006 C 
ATOM     27  C   UNL     1      35.427 -23.717 -12.927  0.00  0.00    +0.038 C 
BRANCH  27  29
ATOM     28  O   UNL     1      34.817 -24.792 -10.917  0.00  0.00    -0.291 OA
ATOM     29  C   UNL     1      35.636 -24.080 -11.534  0.00  0.00    +0.174 C 
ATOM     30  C   UNL     1      36.874 -23.592 -10.790  0.00  0.00    +0.077 C 
ENDBRANCH  27  29
BRANCH  23  31
ATOM     31  O   UNL     1      32.680 -23.403 -15.319  0.00  0.00    -0.468 OA
ATOM     32  C   UNL     1      31.662 -24.003 -14.520  0.00  0.00    +0.253 C 
ENDBRANCH  23  31
ENDBRANCH  21  22
ENDBRANCH  20  21
ENDBRANCH  19  20
ENDBRANCH  18  19
ENDBRANCH   1  18
TORSDOF 8
ENDMDL
MODEL 5
REMARK VINA RESULT:     -11.4      3.032      5.379
REMARK  Name = 71360
REMARK  8 active torsions:
REMARK  status: ('A' for Active; 'I' for Inactive)
REMARK    1  A    between atoms: N_1  and  C_18
REMARK    2  A    between atoms: C_2  and  C_11
REMARK    3  A    between atoms: C_18  and  C_19
REMARK    4  A    between atoms: C_19  and  C_20
REMARK    5  A    between atoms: C_20  and  O_21
REMARK    6  A    between atoms: O_21  and  C_22
REMARK    7  A    between atoms: C_23  and  O_31
REMARK    8  A    between atoms: C_27  and  C_29
REMARK                            x       y       z     vdW  Elec       q    Type
REMARK                         _______ _______ _______ _____ _____    ______ ____
ROOT
ATOM      1  N   UNL     1      34.965 -20.128 -19.881  0.00  0.00    +0.387 N 
ATOM      2  C   UNL     1      34.366 -22.390 -18.111  0.00  0.00    +0.039 C 
ATOM      3  C   UNL     1      33.292 -21.386 -18.560  0.00  0.00    -0.017 C 
ATOM      4  C   UNL     1      35.753 -21.728 -18.165  0.00  0.00    -0.017 C 
ATOM      5  C   UNL     1      33.643 -20.767 -19.916  0.00  0.00    -0.077 C 
ATOM      6  C   UNL     1      36.015 -21.098 -19.535  0.00  0.00    -0.077 C 
ATOM      7  H   UNL     1      34.950 -19.410 -19.156  0.00  0.00    -0.080 HD
ENDROOT
BRANCH   2  11
ATOM      8  F   UNL     1      29.886 -24.077 -13.387  0.00  0.00    -0.204 F 
ATOM      9  O   UNL     1      34.459 -23.974 -14.875  0.00  0.00    -0.354 OA
ATOM     10  N   UNL     1      35.062 -23.494 -16.031  0.00  0.00    -0.081 NA
ATOM     11  C   UNL     1      34.064 -23.003 -16.761  0.00  0.00    +0.100 A 
ATOM     12  C   UNL     1      32.813 -23.135 -16.142  0.00  0.00    +0.054 A 
ATOM     13  C   UNL     1      33.116 -23.758 -14.943  0.00  0.00    +0.179 A 
ATOM     14  C   UNL     1      31.477 -22.815 -16.424  0.00  0.00    +0.007 C 
ATOM     15  C   UNL     1      32.176 -24.101 -13.978  0.00  0.00    +0.070 C 
ATOM     16  C   UNL     1      30.501 -23.146 -15.472  0.00  0.00    +0.030 C 
ATOM     17  C   UNL     1      30.846 -23.777 -14.272  0.00  0.00    +0.143 C 
ENDBRANCH   2  11
BRANCH   1  18
ATOM     18  C   UNL     1      35.261 -19.493 -21.166  0.00  0.00    -0.074 C 
BRANCH  18  19
ATOM     19  C   UNL     1      33.995 -19.395 -22.010  0.00  0.00    +0.025 C 
BRANCH  19  20
ATOM     20  C   UNL     1      34.287 -18.822 -23.390  0.00  0.00    +0.203 C 
BRANCH  20  21
ATOM     21  O   UNL     1      35.273 -17.807 -23.267  0.00  0.00    -0.472 OA
BRANCH  21  22
ATOM     22  C   UNL     1      34.853 -16.513 -23.431  0.00  0.00    +0.172 C 
ATOM     23  C   UNL     1      34.931 -15.613 -22.373  0.00  0.00    +0.172 C 
ATOM     24  C   UNL     1      34.348 -16.114 -24.663  0.00  0.00    +0.040 C 
ATOM     25  C   UNL     1      34.500 -14.298 -22.551  0.00  0.00    +0.043 C 
ATOM     26  C   UNL     1      33.916 -14.799 -24.842  0.00  0.00    +0.006 C 
ATOM     27  C   UNL     1      33.992 -13.892 -23.786  0.00  0.00    +0.038 C 
BRANCH  27  29
ATOM     28  O   UNL     1      33.198 -11.812 -23.005  0.00  0.00    -0.291 OA
ATOM     29  C   UNL     1      33.543 -12.521 -23.972  0.00  0.00    +0.174 C 
ATOM     30  C   UNL     1      33.484 -11.915 -25.370  0.00  0.00    +0.077 C 
ENDBRANCH  27  29
BRANCH  23  31
ATOM     31  O   UNL     1      35.426 -15.997 -21.163  0.00  0.00    -0.468 OA
ATOM     32  C   UNL     1      34.742 -15.526 -20.004  0.00  0.00    +0.253 C 
ENDBRANCH  23  31
ENDBRANCH  21  22
ENDBRANCH  20  21
ENDBRANCH  19  20
ENDBRANCH  18  19
ENDBRANCH   1  18
TORSDOF 8
ENDMDL
MODEL 6
REMARK VINA RESULT:     -11.3      3.175      5.423
REMARK  Name = 71360
REMARK  8 active torsions:
REMARK  status: ('A' for Active; 'I' for Inactive)
REMARK    1  A    between atoms: N_1  and  C_18
REMARK    2  A    between atoms: C_2  and  C_11
REMARK    3  A    between atoms: C_18  and  C_19
REMARK    4  A    between atoms: C_19  and  C_20
REMARK    5  A    between atoms: C_20  and  O_21
REMARK    6  A    between atoms: O_21  and  C_22
REMARK    7  A    between atoms: C_23  and  O_31
REMARK    8  A    between atoms: C_27  and  C_29
REMARK                            x       y       z     vdW  Elec       q    Type
REMARK                         _______ _______ _______ _____ _____    ______ ____
ROOT
ATOM      1  N   UNL     1      34.420 -20.425 -19.812  0.00  0.00    +0.387 N 
ATOM      2  C   UNL     1      34.143 -22.602 -17.864  0.00  0.00    +0.039 C 
ATOM      3  C   UNL     1      32.975 -21.676 -18.238  0.00  0.00    -0.017 C 
ATOM      4  C   UNL     1      35.479 -21.884 -18.116  0.00  0.00    -0.017 C 
ATOM      5  C   UNL     1      33.136 -21.123 -19.657  0.00  0.00    -0.077 C 
ATOM      6  C   UNL     1      35.550 -21.325 -19.539  0.00  0.00    -0.077 C 
ATOM      7  H   UNL     1      34.450 -19.667 -19.130  0.00  0.00    -0.080 HD
ENDROOT
BRANCH   2  11
ATOM      8  F   UNL     1      30.329 -24.165 -12.551  0.00  0.00    -0.204 F 
ATOM      9  O   UNL     1      34.684 -23.994 -14.585  0.00  0.00    -0.354 OA
ATOM     10  N   UNL     1      35.125 -23.562 -15.829  0.00  0.00    -0.081 NA
ATOM     11  C   UNL     1      34.029 -23.147 -16.458  0.00  0.00    +0.100 A 
ATOM     12  C   UNL     1      32.866 -23.285 -15.685  0.00  0.00    +0.054 A 
ATOM     13  C   UNL     1      33.335 -23.827 -14.501  0.00  0.00    +0.179 A 
ATOM     14  C   UNL     1      31.494 -23.027 -15.820  0.00  0.00    +0.007 C 
ATOM     15  C   UNL     1      32.531 -24.146 -13.412  0.00  0.00    +0.070 C 
ATOM     16  C   UNL     1      30.653 -23.335 -14.741  0.00  0.00    +0.030 C 
ATOM     17  C   UNL     1      31.164 -23.884 -13.560  0.00  0.00    +0.143 C 
ENDBRANCH   2  11
BRANCH   1  18
ATOM     18  C   UNL     1      34.533 -19.855 -21.154  0.00  0.00    -0.074 C 
BRANCH  18  19
ATOM     19  C   UNL     1      35.829 -19.063 -21.285  0.00  0.00    +0.025 C 
BRANCH  19  20
ATOM     20  C   UNL     1      35.657 -17.626 -20.813  0.00  0.00    +0.203 C 
BRANCH  20  21
ATOM     21  O   UNL     1      35.787 -16.757 -21.929  0.00  0.00    -0.472 OA
BRANCH  21  22
ATOM     22  C   UNL     1      35.028 -15.616 -21.917  0.00  0.00    +0.172 C 
ATOM     23  C   UNL     1      34.586 -15.057 -23.111  0.00  0.00    +0.172 C 
ATOM     24  C   UNL     1      34.708 -15.027 -20.698  0.00  0.00    +0.040 C 
ATOM     25  C   UNL     1      33.813 -13.895 -23.086  0.00  0.00    +0.043 C 
ATOM     26  C   UNL     1      33.936 -13.865 -20.673  0.00  0.00    +0.006 C 
ATOM     27  C   UNL     1      33.489 -13.299 -21.867  0.00  0.00    +0.038 C 
BRANCH  27  29
ATOM     28  O   UNL     1      32.867 -11.166 -22.661  0.00  0.00    -0.291 OA
ATOM     29  C   UNL     1      32.684 -12.088 -21.840  0.00  0.00    +0.174 C 
ATOM     30  C   UNL     1      31.585 -11.919 -20.797  0.00  0.00    +0.077 C 
ENDBRANCH  27  29
BRANCH  23  31
ATOM     31  O   UNL     1      34.895 -15.629 -24.308  0.00  0.00    -0.468 OA
ATOM     32  C   UNL     1      33.871 -16.389 -24.947  0.00  0.00    +0.253 C 
ENDBRANCH  23  31
ENDBRANCH  21  22
ENDBRANCH  20  21
ENDBRANCH  19  20
ENDBRANCH  18  19
ENDBRANCH   1  18
TORSDOF 8
ENDMDL
MODEL 7
REMARK VINA RESULT:     -11.0      1.200      1.940
REMARK  Name = 71360
REMARK  8 active torsions:
REMARK  status: ('A' for Active; 'I' for Inactive)
REMARK    1  A    between atoms: N_1  and  C_18
REMARK    2  A    between atoms: C_2  and  C_11
REMARK    3  A    between atoms: C_18  and  C_19
REMARK    4  A    between atoms: C_19  and  C_20
REMARK    5  A    between atoms: C_20  and  O_21
REMARK    6  A    between atoms: O_21  and  C_22
REMARK    7  A    between atoms: C_23  and  O_31
REMARK    8  A    between atoms: C_27  and  C_29
REMARK                            x       y       z     vdW  Elec       q    Type
REMARK                         _______ _______ _______ _____ _____    ______ ____
ROOT
ATOM      1  N   UNL     1      34.891 -16.665 -24.383  0.00  0.00    +0.387 N 
ATOM      2  C   UNL     1      34.798 -18.242 -21.911  0.00  0.00    +0.039 C 
ATOM      3  C   UNL     1      35.633 -16.958 -22.040  0.00  0.00    -0.017 C 
ATOM      4  C   UNL     1      34.589 -18.870 -23.299  0.00  0.00    -0.017 C 
ATOM      5  C   UNL     1      35.031 -16.006 -23.077  0.00  0.00    -0.077 C 
ATOM      6  C   UNL     1      34.024 -17.849 -24.290  0.00  0.00    -0.077 C 
ATOM      7  H   UNL     1      35.816 -16.976 -24.680  0.00  0.00    -0.080 HD
ENDROOT
BRANCH   2  11
ATOM      8  F   UNL     1      33.882 -23.153 -17.408  0.00  0.00    -0.204 F 
ATOM      9  O   UNL     1      36.894 -20.228 -19.754  0.00  0.00    -0.354 OA
ATOM     10  N   UNL     1      36.694 -19.241 -20.711  0.00  0.00    -0.081 NA
ATOM     11  C   UNL     1      35.379 -19.218 -20.911  0.00  0.00    +0.100 A 
ATOM     12  C   UNL     1      34.687 -20.152 -20.126  0.00  0.00    +0.054 A 
ATOM     13  C   UNL     1      35.695 -20.769 -19.405  0.00  0.00    +0.179 A 
ATOM     14  C   UNL     1      33.359 -20.556 -19.924  0.00  0.00    +0.007 C 
ATOM     15  C   UNL     1      35.486 -21.785 -18.478  0.00  0.00    +0.070 C 
ATOM     16  C   UNL     1      33.112 -21.578 -18.995  0.00  0.00    +0.030 C 
ATOM     17  C   UNL     1      34.157 -22.180 -18.287  0.00  0.00    +0.143 C 
ENDBRANCH   2  11
BRANCH   1  18
ATOM     18  C   UNL     1      34.368 -15.726 -25.376  0.00  0.00    -0.074 C 
BRANCH  18  19
ATOM     19  C   UNL     1      33.107 -15.050 -24.851  0.00  0.00    +0.025 C 
BRANCH  19  20
ATOM     20  C   UNL     1      33.104 -13.558 -25.157  0.00  0.00    +0.203 C 
BRANCH  20  21
ATOM     21  O   UNL     1      33.929 -12.893 -24.210  0.00  0.00    -0.472 OA
BRANCH  21  22
ATOM     22  C   UNL     1      33.299 -12.317 -23.138  0.00  0.00    +0.172 C 
ATOM     23  C   UNL     1      33.280 -10.933 -22.998  0.00  0.00    +0.172 C 
ATOM     24  C   UNL     1      32.684 -13.132 -22.194  0.00  0.00    +0.040 C 
ATOM     25  C   UNL     1      32.636 -10.358 -21.902  0.00  0.00    +0.043 C 
ATOM     26  C   UNL     1      32.040 -12.557 -21.098  0.00  0.00    +0.006 C 
ATOM     27  C   UNL     1      32.017 -11.171 -20.952  0.00  0.00    +0.038 C 
BRANCH  27  29
ATOM     28  O   UNL     1      30.128 -10.298 -19.840  0.00  0.00    -0.291 OA
ATOM     29  C   UNL     1      31.345 -10.571 -19.809  0.00  0.00    +0.174 C 
ATOM     30  C   UNL     1      32.124 -10.262 -18.536  0.00  0.00    +0.077 C 
ENDBRANCH  27  29
BRANCH  23  31
ATOM     31  O   UNL     1      33.880 -10.129 -23.920  0.00  0.00    -0.468 OA
ATOM     32  C   UNL     1      33.980  -8.743 -23.603  0.00  0.00    +0.253 C 
ENDBRANCH  23  31
ENDBRANCH  21  22
ENDBRANCH  20  21
ENDBRANCH  19  20
ENDBRANCH  18  19
ENDBRANCH   1  18
TORSDOF 8
ENDMDL
MODEL 8
REMARK VINA RESULT:     -10.9      2.992      5.209
REMARK  Name = 71360
REMARK  8 active torsions:
REMARK  status: ('A' for Active; 'I' for Inactive)
REMARK    1  A    between atoms: N_1  and  C_18
REMARK    2  A    between atoms: C_2  and  C_11
REMARK    3  A    between atoms: C_18  and  C_19
REMARK    4  A    between atoms: C_19  and  C_20
REMARK    5  A    between atoms: C_20  and  O_21
REMARK    6  A    between atoms: O_21  and  C_22
REMARK    7  A    between atoms: C_23  and  O_31
REMARK    8  A    between atoms: C_27  and  C_29
REMARK                            x       y       z     vdW  Elec       q    Type
REMARK                         _______ _______ _______ _____ _____    ______ ____
ROOT
ATOM      1  N   UNL     1      35.231 -19.950 -19.957  0.00  0.00    +0.387 N 
ATOM      2  C   UNL     1      33.901 -22.096 -18.464  0.00  0.00    +0.039 C 
ATOM      3  C   UNL     1      33.127 -20.927 -19.093  0.00  0.00    -0.017 C 
ATOM      4  C   UNL     1      35.351 -21.671 -18.182  0.00  0.00    -0.017 C 
ATOM      5  C   UNL     1      33.866 -20.363 -20.310  0.00  0.00    -0.077 C 
ATOM      6  C   UNL     1      36.009 -21.081 -19.432  0.00  0.00    -0.077 C 
ATOM      7  H   UNL     1      35.166 -19.245 -19.223  0.00  0.00    -0.080 HD
ENDROOT
BRANCH   2  11
ATOM      8  F   UNL     1      34.287 -24.620 -12.242  0.00  0.00    -0.204 F 
ATOM      9  O   UNL     1      31.577 -23.322 -15.998  0.00  0.00    -0.354 OA
ATOM     10  N   UNL     1      31.886 -22.782 -17.240  0.00  0.00    -0.081 NA
ATOM     11  C   UNL     1      33.211 -22.663 -17.243  0.00  0.00    +0.100 A 
ATOM     12  C   UNL     1      33.805 -23.099 -16.049  0.00  0.00    +0.054 A 
ATOM     13  C   UNL     1      32.724 -23.510 -15.289  0.00  0.00    +0.179 A 
ATOM     14  C   UNL     1      35.096 -23.204 -15.511  0.00  0.00    +0.007 C 
ATOM     15  C   UNL     1      32.823 -24.029 -14.002  0.00  0.00    +0.070 C 
ATOM     16  C   UNL     1      35.233 -23.724 -14.216  0.00  0.00    +0.030 C 
ATOM     17  C   UNL     1      34.116 -24.128 -13.477  0.00  0.00    +0.143 C 
ENDBRANCH   2  11
BRANCH   1  18
ATOM     18  C   UNL     1      35.903 -19.362 -21.116  0.00  0.00    -0.074 C 
BRANCH  18  19
ATOM     19  C   UNL     1      34.928 -19.226 -22.280  0.00  0.00    +0.025 C 
BRANCH  19  20
ATOM     20  C   UNL     1      35.189 -17.959 -23.083  0.00  0.00    +0.203 C 
BRANCH  20  21
ATOM     21  O   UNL     1      35.754 -16.978 -22.224  0.00  0.00    -0.472 OA
BRANCH  21  22
ATOM     22  C   UNL     1      35.031 -15.829 -22.038  0.00  0.00    +0.172 C 
ATOM     23  C   UNL     1      34.545 -15.123 -23.133  0.00  0.00    +0.172 C 
ATOM     24  C   UNL     1      34.793 -15.380 -20.744  0.00  0.00    +0.040 C 
ATOM     25  C   UNL     1      33.811 -13.954 -22.931  0.00  0.00    +0.043 C 
ATOM     26  C   UNL     1      34.059 -14.211 -20.541  0.00  0.00    +0.006 C 
ATOM     27  C   UNL     1      33.568 -13.498 -21.635  0.00  0.00    +0.038 C 
BRANCH  27  29
ATOM     28  O   UNL     1      32.750 -11.385 -22.292  0.00  0.00    -0.291 OA
ATOM     29  C   UNL     1      32.802 -12.279 -21.424  0.00  0.00    +0.174 C 
ATOM     30  C   UNL     1      32.038 -12.068 -20.122  0.00  0.00    +0.077 C 
ENDBRANCH  27  29
BRANCH  23  31
ATOM     31  O   UNL     1      34.774 -15.558 -24.403  0.00  0.00    -0.468 OA
ATOM     32  C   UNL     1      33.661 -15.574 -25.294  0.00  0.00    +0.253 C 
ENDBRANCH  23  31
ENDBRANCH  21  22
ENDBRANCH  20  21
ENDBRANCH  19  20
ENDBRANCH  18  19
ENDBRANCH   1  18
TORSDOF 8
ENDMDL
MODEL 9
REMARK VINA RESULT:     -10.9      5.121     12.272
REMARK  Name = 71360
REMARK  8 active torsions:
REMARK  status: ('A' for Active; 'I' for Inactive)
REMARK    1  A    between atoms: N_1  and  C_18
REMARK    2  A    between atoms: C_2  and  C_11
REMARK    3  A    between atoms: C_18  and  C_19
REMARK    4  A    between atoms: C_19  and  C_20
REMARK    5  A    between atoms: C_20  and  O_21
REMARK    6  A    between atoms: O_21  and  C_22
REMARK    7  A    between atoms: C_23  and  O_31
REMARK    8  A    between atoms: C_27  and  C_29
REMARK                            x       y       z     vdW  Elec       q    Type
REMARK                         _______ _______ _______ _____ _____    ______ ____
ROOT
ATOM      1  N   UNL     1      33.873 -21.975 -18.018  0.00  0.00    +0.387 N 
ATOM      2  C   UNL     1      34.665 -20.338 -20.320  0.00  0.00    +0.039 C 
ATOM      3  C   UNL     1      35.659 -20.760 -19.227  0.00  0.00    -0.017 C 
ATOM      4  C   UNL     1      33.238 -20.325 -19.750  0.00  0.00    -0.017 C 
ATOM      5  C   UNL     1      35.233 -22.074 -18.566  0.00  0.00    -0.077 C 
ATOM      6  C   UNL     1      32.899 -21.654 -19.071  0.00  0.00    -0.077 C 
ATOM      7  H   UNL     1      33.862 -21.216 -17.338  0.00  0.00    -0.080 HD
ENDROOT
BRANCH   2  11
ATOM      8  F   UNL     1      34.298 -16.194 -25.604  0.00  0.00    -0.204 F 
ATOM      9  O   UNL     1      35.972 -17.093 -21.185  0.00  0.00    -0.354 OA
ATOM     10  N   UNL     1      35.818 -18.170 -20.322  0.00  0.00    -0.081 NA
ATOM     11  C   UNL     1      35.043 -19.029 -20.978  0.00  0.00    +0.100 A 
ATOM     12  C   UNL     1      34.668 -18.571 -22.249  0.00  0.00    +0.054 A 
ATOM     13  C   UNL     1      35.284 -17.335 -22.336  0.00  0.00    +0.179 A 
ATOM     14  C   UNL     1      33.900 -19.026 -23.331  0.00  0.00    +0.007 C 
ATOM     15  C   UNL     1      35.196 -16.489 -23.437  0.00  0.00    +0.070 C 
ATOM     16  C   UNL     1      33.790 -18.200 -24.459  0.00  0.00    +0.030 C 
ATOM     17  C   UNL     1      34.427 -16.955 -24.509  0.00  0.00    +0.143 C 
ENDBRANCH   2  11
BRANCH   1  18
ATOM     18  C   UNL     1      33.503 -23.218 -17.341  0.00  0.00    -0.074 C 
BRANCH  18  19
ATOM     19  C   UNL     1      32.733 -22.914 -16.061  0.00  0.00    +0.025 C 
BRANCH  19  20
ATOM     20  C   UNL     1      33.176 -23.814 -14.915  0.00  0.00    +0.203 C 
BRANCH  20  21
ATOM     21  O   UNL     1      34.116 -23.111 -14.115  0.00  0.00    -0.472 OA
BRANCH  21  22
ATOM     22  C   UNL     1      35.352 -23.684 -13.964  0.00  0.00    +0.172 C 
ATOM     23  C   UNL     1      35.715 -24.254 -12.749  0.00  0.00    +0.172 C 
ATOM     24  C   UNL     1      36.234 -23.685 -15.038  0.00  0.00    +0.040 C 
ATOM     25  C   UNL     1      36.976 -24.835 -12.607  0.00  0.00    +0.043 C 
ATOM     26  C   UNL     1      37.495 -24.266 -14.897  0.00  0.00    +0.006 C 
ATOM     27  C   UNL     1      37.866 -24.840 -13.681  0.00  0.00    +0.038 C 
BRANCH  27  29
ATOM     28  O   UNL     1      39.422 -26.260 -12.620  0.00  0.00    -0.291 OA
ATOM     29  C   UNL     1      39.180 -25.445 -13.533  0.00  0.00    +0.174 C 
ATOM     30  C   UNL     1      40.302 -25.092 -14.504  0.00  0.00    +0.077 C 
ENDBRANCH  27  29
BRANCH  23  31
ATOM     31  O   UNL     1      34.854 -24.256 -11.693  0.00  0.00    -0.468 OA
ATOM     32  C   UNL     1      35.413 -24.490 -10.402  0.00  0.00    +0.253 C 
ENDBRANCH  23  31
ENDBRANCH  21  22
ENDBRANCH  20  21
ENDBRANCH  19  20
ENDBRANCH  18  19
ENDBRANCH   1  18
TORSDOF 8
ENDMDL
