MODEL 1
REMARK VINA RESULT:     -11.3      0.000      0.000
REMARK  Name = 17758816
REMARK  9 active torsions:
REMARK  status: ('A' for Active; 'I' for Inactive)
REMARK    1  A    between atoms: C_3  and  C_8
REMARK    2  A    between atoms: C_4  and  C_20
REMARK    3  A    between atoms: C_11  and  O_14
REMARK    4  A    between atoms: O_14  and  C_15
REMARK    5  A    between atoms: C_15  and  C_17
REMARK    6  A    between atoms: C_17  and  O_18
REMARK    7  A    between atoms: C_20  and  N_23
REMARK    8  A    between atoms: C_28  and  S_32
REMARK    9  A    between atoms: S_32  and  C_34
REMARK                            x       y       z     vdW  Elec       q    Type
REMARK                         _______ _______ _______ _____ _____    ______ ____
ROOT
ATOM      1  N   UNL     1      34.605 -16.592 -23.394  0.00  0.00    -0.317 N 
ATOM      2  N   UNL     1      33.499 -17.431 -25.127  0.00  0.00    -0.316 N 
ATOM      3  C   UNL     1      34.582 -17.945 -23.204  0.00  0.00    +0.060 C 
ATOM      4  C   UNL     1      33.943 -16.330 -24.561  0.00  0.00    +0.164 C 
ATOM      5  C   UNL     1      33.893 -18.440 -24.287  0.00  0.00    +0.074 C 
ATOM      6  H   UNL     1      35.023 -15.928 -22.799  0.00  0.00    +0.148 HD
ATOM      7  H   UNL     1      32.995 -17.511 -25.970  0.00  0.00    +0.148 HD
ENDROOT
BRANCH   3   8
ATOM      8  C   UNL     1      35.184 -18.599 -22.068  0.00  0.00    +0.015 C 
ATOM      9  C   UNL     1      34.451 -19.528 -21.330  0.00  0.00    +0.004 C 
ATOM     10  C   UNL     1      36.498 -18.304 -21.710  0.00  0.00    +0.004 C 
ATOM     11  C   UNL     1      36.350 -19.867 -19.873  0.00  0.00    +0.139 C 
ATOM     12  C   UNL     1      35.035 -20.162 -20.231  0.00  0.00    +0.037 C 
ATOM     13  C   UNL     1      37.082 -18.937 -20.612  0.00  0.00    +0.037 C 
BRANCH  11  14
ATOM     14  O   UNL     1      36.918 -20.484 -18.802  0.00  0.00    -0.464 OA
BRANCH  14  15
ATOM     15  C   UNL     1      36.231 -21.615 -18.265  0.00  0.00    +0.314 C 
BRANCH  15  17
ATOM     16  O   UNL     1      36.324 -22.764 -16.126  0.00  0.00    -0.246 OA
ATOM     17  C   UNL     1      36.612 -21.802 -16.822  0.00  0.00    +0.359 C 
BRANCH  17  18
ATOM     18  O   UNL     1      37.334 -20.739 -16.387  0.00  0.00    -0.478 OA
ATOM     19  H   UNL     1      37.500 -20.019 -16.962  0.00  0.00    +0.295 HD
ENDBRANCH  17  18
ENDBRANCH  15  17
ENDBRANCH  14  15
ENDBRANCH  11  14
ENDBRANCH   3   8
BRANCH   4  20
ATOM     20  C   UNL     1      33.787 -14.952 -25.062  0.00  0.00    +0.131 C 
BRANCH  20  23
ATOM     21  S   UNL     1      31.938 -10.427 -21.094  0.00  0.00    -0.045 S 
ATOM     22  O   UNL     1      34.175 -12.133 -24.805  0.00  0.00    -0.252 OA
ATOM     23  N   UNL     1      33.242 -14.098 -24.031  0.00  0.00    -0.285 N 
ATOM     24  N   UNL     1      32.830 -12.164 -22.876  0.00  0.00    -0.248 N 
ATOM     25  N   UNL     1      33.454  -9.822 -23.098  0.00  0.00    -0.222 NA
ATOM     26  C   UNL     1      33.483 -12.721 -23.978  0.00  0.00    +0.306 C 
ATOM     27  C   UNL     1      32.839 -10.818 -22.501  0.00  0.00    +0.167 C 
ATOM     28  C   UNL     1      32.400  -8.787 -21.284  0.00  0.00    +0.082 C 
ATOM     29  C   UNL     1      33.200  -8.658 -22.400  0.00  0.00    +0.114 C 
ATOM     30  H   UNL     1      32.677 -14.503 -23.334  0.00  0.00    +0.151 HD
ATOM     31  H   UNL     1      32.312 -12.779 -22.309  0.00  0.00    +0.158 HD
BRANCH  28  32
ATOM     32  S   UNL     1      31.894  -7.519 -20.194  0.00  0.00    -0.060 S 
BRANCH  32  34
ATOM     33  N   UNL     1      30.844  -6.528 -22.455  0.00  0.00    -0.237 NA
ATOM     34  C   UNL     1      31.625  -6.219 -21.396  0.00  0.00    +0.111 C 
ATOM     35  C   UNL     1      32.215  -4.981 -21.202  0.00  0.00    +0.026 C 
ATOM     36  C   UNL     1      31.987  -3.994 -22.156  0.00  0.00    +0.004 C 
ATOM     37  C   UNL     1      31.188  -4.274 -23.259  0.00  0.00    +0.021 C 
ATOM     38  C   UNL     1      30.644  -5.544 -23.361  0.00  0.00    +0.099 C 
ENDBRANCH  32  34
ENDBRANCH  28  32
ENDBRANCH  20  23
ENDBRANCH   4  20
TORSDOF 9
ENDMDL
MODEL 2
REMARK VINA RESULT:     -11.1      1.938      2.655
REMARK  Name = 17758816
REMARK  9 active torsions:
REMARK  status: ('A' for Active; 'I' for Inactive)
REMARK    1  A    between atoms: C_3  and  C_8
REMARK    2  A    between atoms: C_4  and  C_20
REMARK    3  A    between atoms: C_11  and  O_14
REMARK    4  A    between atoms: O_14  and  C_15
REMARK    5  A    between atoms: C_15  and  C_17
REMARK    6  A    between atoms: C_17  and  O_18
REMARK    7  A    between atoms: C_20  and  N_23
REMARK    8  A    between atoms: C_28  and  S_32
REMARK    9  A    between atoms: S_32  and  C_34
REMARK                            x       y       z     vdW  Elec       q    Type
REMARK                         _______ _______ _______ _____ _____    ______ ____
ROOT
ATOM      1  N   UNL     1      34.582 -18.315 -21.837  0.00  0.00    -0.317 N 
ATOM      2  N   UNL     1      36.616 -17.463 -22.091  0.00  0.00    -0.316 N 
ATOM      3  C   UNL     1      35.400 -19.053 -21.029  0.00  0.00    +0.060 C 
ATOM      4  C   UNL     1      35.355 -17.372 -22.455  0.00  0.00    +0.164 C 
ATOM      5  C   UNL     1      36.650 -18.508 -21.204  0.00  0.00    +0.074 C 
ATOM      6  H   UNL     1      33.612 -18.439 -21.953  0.00  0.00    +0.148 HD
ATOM      7  H   UNL     1      37.369 -16.903 -22.390  0.00  0.00    +0.148 HD
ENDROOT
BRANCH   3   8
ATOM      8  C   UNL     1      34.935 -20.148 -20.214  0.00  0.00    +0.015 C 
ATOM      9  C   UNL     1      33.567 -20.385 -20.080  0.00  0.00    +0.004 C 
ATOM     10  C   UNL     1      35.852 -20.971 -19.562  0.00  0.00    +0.004 C 
ATOM     11  C   UNL     1      34.035 -22.269 -18.641  0.00  0.00    +0.139 C 
ATOM     12  C   UNL     1      33.117 -21.446 -19.292  0.00  0.00    +0.037 C 
ATOM     13  C   UNL     1      35.403 -22.031 -18.775  0.00  0.00    +0.037 C 
BRANCH  11  14
ATOM     14  O   UNL     1      33.596 -23.302 -17.872  0.00  0.00    -0.464 OA
BRANCH  14  15
ATOM     15  C   UNL     1      33.093 -22.980 -16.575  0.00  0.00    +0.314 C 
BRANCH  15  17
ATOM     16  O   UNL     1      35.144 -23.964 -15.721  0.00  0.00    -0.246 OA
ATOM     17  C   UNL     1      34.119 -23.328 -15.532  0.00  0.00    +0.359 C 
BRANCH  17  18
ATOM     18  O   UNL     1      33.747 -22.829 -14.326  0.00  0.00    -0.478 OA
ATOM     19  H   UNL     1      33.931 -23.309 -13.543  0.00  0.00    +0.295 HD
ENDBRANCH  17  18
ENDBRANCH  15  17
ENDBRANCH  14  15
ENDBRANCH  11  14
ENDBRANCH   3   8
BRANCH   4  20
ATOM     20  C   UNL     1      34.776 -16.403 -23.402  0.00  0.00    +0.131 C 
BRANCH  20  23
ATOM     21  S   UNL     1      32.169 -11.137 -21.138  0.00  0.00    -0.045 S 
ATOM     22  O   UNL     1      34.539 -13.680 -24.238  0.00  0.00    -0.252 OA
ATOM     23  N   UNL     1      34.107 -15.337 -22.688  0.00  0.00    -0.285 N 
ATOM     24  N   UNL     1      33.334 -13.222 -22.270  0.00  0.00    -0.248 N 
ATOM     25  N   UNL     1      33.408 -11.072 -23.406  0.00  0.00    -0.222 NA
ATOM     26  C   UNL     1      34.038 -14.026 -23.170  0.00  0.00    +0.306 C 
ATOM     27  C   UNL     1      33.062 -11.860 -22.413  0.00  0.00    +0.167 C 
ATOM     28  C   UNL     1      32.244  -9.639 -21.968  0.00  0.00    +0.082 C 
ATOM     29  C   UNL     1      32.937  -9.799 -23.150  0.00  0.00    +0.114 C 
ATOM     30  H   UNL     1      33.683 -15.543 -21.824  0.00  0.00    +0.151 HD
ATOM     31  H   UNL     1      32.995 -13.660 -21.455  0.00  0.00    +0.158 HD
BRANCH  28  32
ATOM     32  S   UNL     1      31.524  -8.170 -21.356  0.00  0.00    -0.060 S 
BRANCH  32  34
ATOM     33  N   UNL     1      31.323  -6.657 -23.562  0.00  0.00    -0.237 NA
ATOM     34  C   UNL     1      32.168  -7.024 -22.573  0.00  0.00    +0.111 C 
ATOM     35  C   UNL     1      33.472  -6.573 -22.458  0.00  0.00    +0.026 C 
ATOM     36  C   UNL     1      33.941  -5.685 -23.421  0.00  0.00    +0.004 C 
ATOM     37  C   UNL     1      33.102  -5.283 -24.454  0.00  0.00    +0.021 C 
ATOM     38  C   UNL     1      31.814  -5.792 -24.479  0.00  0.00    +0.099 C 
ENDBRANCH  32  34
ENDBRANCH  28  32
ENDBRANCH  20  23
ENDBRANCH   4  20
TORSDOF 9
ENDMDL
MODEL 3
REMARK VINA RESULT:     -11.1      2.693      3.919
REMARK  Name = 17758816
REMARK  9 active torsions:
REMARK  status: ('A' for Active; 'I' for Inactive)
REMARK    1  A    between atoms: C_3  and  C_8
REMARK    2  A    between atoms: C_4  and  C_20
REMARK    3  A    between atoms: C_11  and  O_14
REMARK    4  A    between atoms: O_14  and  C_15
REMARK    5  A    between atoms: C_15  and  C_17
REMARK    6  A    between atoms: C_17  and  O_18
REMARK    7  A    between atoms: C_20  and  N_23
REMARK    8  A    between atoms: C_28  and  S_32
REMARK    9  A    between atoms: S_32  and  C_34
REMARK                            x       y       z     vdW  Elec       q    Type
REMARK                         _______ _______ _______ _____ _____    ______ ____
ROOT
ATOM      1  N   UNL     1      35.996 -19.206 -20.489  0.00  0.00    -0.317 N 
ATOM      2  N   UNL     1      34.531 -19.095 -22.154  0.00  0.00    -0.316 N 
ATOM      3  C   UNL     1      35.062 -20.170 -20.230  0.00  0.00    +0.060 C 
ATOM      4  C   UNL     1      35.637 -18.587 -21.653  0.00  0.00    +0.164 C 
ATOM      5  C   UNL     1      34.168 -20.080 -21.271  0.00  0.00    +0.074 C 
ATOM      6  H   UNL     1      36.785 -18.997 -19.937  0.00  0.00    +0.148 HD
ATOM      7  H   UNL     1      34.068 -18.826 -22.980  0.00  0.00    +0.148 HD
ENDROOT
BRANCH   3   8
ATOM      8  C   UNL     1      35.109 -21.033 -19.076  0.00  0.00    +0.015 C 
ATOM      9  C   UNL     1      33.967 -21.729 -18.680  0.00  0.00    +0.004 C 
ATOM     10  C   UNL     1      36.295 -21.173 -18.357  0.00  0.00    +0.004 C 
ATOM     11  C   UNL     1      35.200 -22.706 -16.845  0.00  0.00    +0.139 C 
ATOM     12  C   UNL     1      34.012 -22.566 -17.563  0.00  0.00    +0.037 C 
ATOM     13  C   UNL     1      36.341 -22.009 -17.241  0.00  0.00    +0.037 C 
BRANCH  11  14
ATOM     14  O   UNL     1      35.243 -23.522 -15.757  0.00  0.00    -0.464 OA
BRANCH  14  15
ATOM     15  C   UNL     1      35.979 -23.056 -14.625  0.00  0.00    +0.314 C 
BRANCH  15  17
ATOM     16  O   UNL     1      38.128 -23.698 -13.690  0.00  0.00    -0.246 OA
ATOM     17  C   UNL     1      37.148 -23.966 -14.368  0.00  0.00    +0.359 C 
BRANCH  17  18
ATOM     18  O   UNL     1      36.964 -25.153 -15.002  0.00  0.00    -0.478 OA
ATOM     19  H   UNL     1      36.551 -25.864 -14.554  0.00  0.00    +0.295 HD
ENDBRANCH  17  18
ENDBRANCH  15  17
ENDBRANCH  14  15
ENDBRANCH  11  14
ENDBRANCH   3   8
BRANCH   4  20
ATOM     20  C   UNL     1      36.441 -17.490 -22.220  0.00  0.00    +0.131 C 
BRANCH  20  23
ATOM     21  S   UNL     1      32.613 -12.497 -22.464  0.00  0.00    -0.045 S 
ATOM     22  O   UNL     1      34.970 -15.911 -20.347  0.00  0.00    -0.252 OA
ATOM     23  N   UNL     1      35.602 -16.353 -22.524  0.00  0.00    -0.285 N 
ATOM     24  N   UNL     1      34.188 -14.594 -22.132  0.00  0.00    -0.248 N 
ATOM     25  N   UNL     1      33.147 -13.582 -20.179  0.00  0.00    -0.222 NA
ATOM     26  C   UNL     1      34.913 -15.632 -21.542  0.00  0.00    +0.306 C 
ATOM     27  C   UNL     1      33.382 -13.666 -21.469  0.00  0.00    +0.167 C 
ATOM     28  C   UNL     1      31.897 -11.813 -21.064  0.00  0.00    +0.082 C 
ATOM     29  C   UNL     1      32.296 -12.520 -19.948  0.00  0.00    +0.114 C 
ATOM     30  H   UNL     1      35.510 -16.073 -23.463  0.00  0.00    +0.151 HD
ATOM     31  H   UNL     1      34.252 -14.508 -23.111  0.00  0.00    +0.158 HD
BRANCH  28  32
ATOM     32  S   UNL     1      30.835 -10.427 -21.113  0.00  0.00    -0.060 S 
BRANCH  32  34
ATOM     33  N   UNL     1      32.592  -9.016 -22.569  0.00  0.00    -0.237 NA
ATOM     34  C   UNL     1      32.069  -9.147 -21.329  0.00  0.00    +0.111 C 
ATOM     35  C   UNL     1      32.433  -8.363 -20.248  0.00  0.00    +0.026 C 
ATOM     36  C   UNL     1      33.395  -7.380 -20.450  0.00  0.00    +0.004 C 
ATOM     37  C   UNL     1      33.956  -7.214 -21.711  0.00  0.00    +0.021 C 
ATOM     38  C   UNL     1      33.524  -8.049 -22.728  0.00  0.00    +0.099 C 
ENDBRANCH  32  34
ENDBRANCH  28  32
ENDBRANCH  20  23
ENDBRANCH   4  20
TORSDOF 9
ENDMDL
MODEL 4
REMARK VINA RESULT:     -10.9      3.058      5.416
REMARK  Name = 17758816
REMARK  9 active torsions:
REMARK  status: ('A' for Active; 'I' for Inactive)
REMARK    1  A    between atoms: C_3  and  C_8
REMARK    2  A    between atoms: C_4  and  C_20
REMARK    3  A    between atoms: C_11  and  O_14
REMARK    4  A    between atoms: O_14  and  C_15
REMARK    5  A    between atoms: C_15  and  C_17
REMARK    6  A    between atoms: C_17  and  O_18
REMARK    7  A    between atoms: C_20  and  N_23
REMARK    8  A    between atoms: C_28  and  S_32
REMARK    9  A    between atoms: S_32  and  C_34
REMARK                            x       y       z     vdW  Elec       q    Type
REMARK                         _______ _______ _______ _____ _____    ______ ____
ROOT
ATOM      1  N   UNL     1      35.521 -20.685 -19.630  0.00  0.00    -0.317 N 
ATOM      2  N   UNL     1      33.603 -20.087 -20.575  0.00  0.00    -0.316 N 
ATOM      3  C   UNL     1      34.536 -21.223 -18.850  0.00  0.00    +0.060 C 
ATOM      4  C   UNL     1      34.913 -20.013 -20.653  0.00  0.00    +0.164 C 
ATOM      5  C   UNL     1      33.361 -20.839 -19.453  0.00  0.00    +0.074 C 
ATOM      6  H   UNL     1      36.491 -20.768 -19.482  0.00  0.00    +0.148 HD
ATOM      7  H   UNL     1      32.941 -19.691 -21.187  0.00  0.00    +0.148 HD
ENDROOT
BRANCH   3   8
ATOM      8  C   UNL     1      34.797 -22.007 -17.667  0.00  0.00    +0.015 C 
ATOM      9  C   UNL     1      33.781 -22.779 -17.105  0.00  0.00    +0.004 C 
ATOM     10  C   UNL     1      36.064 -21.992 -17.087  0.00  0.00    +0.004 C 
ATOM     11  C   UNL     1      35.301 -23.524 -15.381  0.00  0.00    +0.139 C 
ATOM     12  C   UNL     1      34.033 -23.538 -15.961  0.00  0.00    +0.037 C 
ATOM     13  C   UNL     1      36.317 -22.751 -15.944  0.00  0.00    +0.037 C 
BRANCH  11  14
ATOM     14  O   UNL     1      35.547 -24.264 -14.266  0.00  0.00    -0.464 OA
BRANCH  14  15
ATOM     15  C   UNL     1      36.834 -24.874 -14.161  0.00  0.00    +0.314 C 
BRANCH  15  17
ATOM     16  O   UNL     1      36.318 -26.889 -15.417  0.00  0.00    -0.246 OA
ATOM     17  C   UNL     1      36.714 -26.355 -14.392  0.00  0.00    +0.359 C 
BRANCH  17  18
ATOM     18  O   UNL     1      37.114 -27.034 -13.287  0.00  0.00    -0.478 OA
ATOM     19  H   UNL     1      38.008 -27.301 -13.200  0.00  0.00    +0.295 HD
ENDBRANCH  17  18
ENDBRANCH  15  17
ENDBRANCH  14  15
ENDBRANCH  11  14
ENDBRANCH   3   8
BRANCH   4  20
ATOM     20  C   UNL     1      35.699 -19.312 -21.685  0.00  0.00    +0.131 C 
BRANCH  20  23
ATOM     21  S   UNL     1      34.502 -13.145 -22.105  0.00  0.00    -0.045 S 
ATOM     22  O   UNL     1      34.454 -17.565 -23.572  0.00  0.00    -0.252 OA
ATOM     23  N   UNL     1      35.537 -17.881 -21.557  0.00  0.00    -0.285 N 
ATOM     24  N   UNL     1      34.904 -15.757 -22.136  0.00  0.00    -0.248 N 
ATOM     25  N   UNL     1      33.770 -14.718 -24.022  0.00  0.00    -0.222 NA
ATOM     26  C   UNL     1      34.913 -17.096 -22.533  0.00  0.00    +0.306 C 
ATOM     27  C   UNL     1      34.366 -14.685 -22.851  0.00  0.00    +0.167 C 
ATOM     28  C   UNL     1      33.701 -12.450 -23.452  0.00  0.00    +0.082 C 
ATOM     29  C   UNL     1      33.389 -13.435 -24.365  0.00  0.00    +0.114 C 
ATOM     30  H   UNL     1      35.882 -17.438 -20.748  0.00  0.00    +0.151 HD
ATOM     31  H   UNL     1      35.316 -15.549 -21.267  0.00  0.00    +0.158 HD
BRANCH  28  32
ATOM     32  S   UNL     1      33.358 -10.741 -23.584  0.00  0.00    -0.060 S 
BRANCH  32  34
ATOM     33  N   UNL     1      32.528  -9.276 -21.495  0.00  0.00    -0.237 NA
ATOM     34  C   UNL     1      32.494 -10.517 -22.031  0.00  0.00    +0.111 C 
ATOM     35  C   UNL     1      31.844 -11.594 -21.453  0.00  0.00    +0.026 C 
ATOM     36  C   UNL     1      31.185 -11.385 -20.246  0.00  0.00    +0.004 C 
ATOM     37  C   UNL     1      31.196 -10.123 -19.664  0.00  0.00    +0.021 C 
ATOM     38  C   UNL     1      31.876  -9.111 -20.323  0.00  0.00    +0.099 C 
ENDBRANCH  32  34
ENDBRANCH  28  32
ENDBRANCH  20  23
ENDBRANCH   4  20
TORSDOF 9
ENDMDL
MODEL 5
REMARK VINA RESULT:     -10.8      4.216      7.729
REMARK  Name = 17758816
REMARK  9 active torsions:
REMARK  status: ('A' for Active; 'I' for Inactive)
REMARK    1  A    between atoms: C_3  and  C_8
REMARK    2  A    between atoms: C_4  and  C_20
REMARK    3  A    between atoms: C_11  and  O_14
REMARK    4  A    between atoms: O_14  and  C_15
REMARK    5  A    between atoms: C_15  and  C_17
REMARK    6  A    between atoms: C_17  and  O_18
REMARK    7  A    between atoms: C_20  and  N_23
REMARK    8  A    between atoms: C_28  and  S_32
REMARK    9  A    between atoms: S_32  and  C_34
REMARK                            x       y       z     vdW  Elec       q    Type
REMARK                         _______ _______ _______ _____ _____    ______ ____
ROOT
ATOM      1  N   UNL     1      35.841 -22.023 -17.357  0.00  0.00    -0.317 N 
ATOM      2  N   UNL     1      34.261 -21.983 -18.916  0.00  0.00    -0.316 N 
ATOM      3  C   UNL     1      34.758 -22.652 -16.809  0.00  0.00    +0.060 C 
ATOM      4  C   UNL     1      35.496 -21.639 -18.623  0.00  0.00    +0.164 C 
ATOM      5  C   UNL     1      33.796 -22.613 -17.791  0.00  0.00    +0.074 C 
ATOM      6  H   UNL     1      36.711 -21.876 -16.920  0.00  0.00    +0.148 HD
ATOM      7  H   UNL     1      33.777 -21.823 -19.759  0.00  0.00    +0.148 HD
ENDROOT
BRANCH   3   8
ATOM      8  C   UNL     1      34.747 -23.196 -15.473  0.00  0.00    +0.015 C 
ATOM      9  C   UNL     1      33.582 -23.140 -14.708  0.00  0.00    +0.004 C 
ATOM     10  C   UNL     1      35.899 -23.779 -14.948  0.00  0.00    +0.004 C 
ATOM     11  C   UNL     1      34.723 -24.252 -12.891  0.00  0.00    +0.139 C 
ATOM     12  C   UNL     1      33.571 -23.668 -13.416  0.00  0.00    +0.037 C 
ATOM     13  C   UNL     1      35.888 -24.307 -13.657  0.00  0.00    +0.037 C 
BRANCH  11  14
ATOM     14  O   UNL     1      34.712 -24.766 -11.632  0.00  0.00    -0.464 OA
BRANCH  14  15
ATOM     15  C   UNL     1      35.977 -25.071 -11.043  0.00  0.00    +0.314 C 
BRANCH  15  17
ATOM     16  O   UNL     1      37.077 -22.960 -10.555  0.00  0.00    -0.246 OA
ATOM     17  C   UNL     1      36.426 -23.924 -10.181  0.00  0.00    +0.359 C 
BRANCH  17  18
ATOM     18  O   UNL     1      36.000 -24.103  -8.904  0.00  0.00    -0.478 OA
ATOM     19  H   UNL     1      36.466 -23.706  -8.195  0.00  0.00    +0.295 HD
ENDBRANCH  17  18
ENDBRANCH  15  17
ENDBRANCH  14  15
ENDBRANCH  11  14
ENDBRANCH   3   8
BRANCH   4  20
ATOM     20  C   UNL     1      36.448 -20.930 -19.497  0.00  0.00    +0.131 C 
BRANCH  20  23
ATOM     21  S   UNL     1      33.913 -17.327 -23.995  0.00  0.00    -0.045 S 
ATOM     22  O   UNL     1      36.566 -18.180 -20.263  0.00  0.00    -0.252 OA
ATOM     23  N   UNL     1      35.753 -20.313 -20.605  0.00  0.00    -0.285 N 
ATOM     24  N   UNL     1      35.084 -18.649 -22.029  0.00  0.00    -0.248 N 
ATOM     25  N   UNL     1      35.516 -16.266 -22.267  0.00  0.00    -0.222 NA
ATOM     26  C   UNL     1      35.866 -18.953 -20.912  0.00  0.00    +0.306 C 
ATOM     27  C   UNL     1      34.947 -17.394 -22.627  0.00  0.00    +0.167 C 
ATOM     28  C   UNL     1      34.242 -15.649 -24.129  0.00  0.00    +0.082 C 
ATOM     29  C   UNL     1      35.111 -15.267 -23.129  0.00  0.00    +0.114 C 
ATOM     30  H   UNL     1      35.174 -20.876 -21.169  0.00  0.00    +0.151 HD
ATOM     31  H   UNL     1      34.580 -19.392 -22.435  0.00  0.00    +0.158 HD
BRANCH  28  32
ATOM     32  S   UNL     1      33.550 -14.636 -25.373  0.00  0.00    -0.060 S 
BRANCH  32  34
ATOM     33  N   UNL     1      32.894 -13.215 -23.194  0.00  0.00    -0.237 NA
ATOM     34  C   UNL     1      33.413 -13.114 -24.438  0.00  0.00    +0.111 C 
ATOM     35  C   UNL     1      33.830 -11.924 -25.011  0.00  0.00    +0.026 C 
ATOM     36  C   UNL     1      33.708 -10.761 -24.258  0.00  0.00    +0.004 C 
ATOM     37  C   UNL     1      33.180 -10.824 -22.974  0.00  0.00    +0.021 C 
ATOM     38  C   UNL     1      32.792 -12.064 -22.492  0.00  0.00    +0.099 C 
ENDBRANCH  32  34
ENDBRANCH  28  32
ENDBRANCH  20  23
ENDBRANCH   4  20
TORSDOF 9
ENDMDL
MODEL 6
REMARK VINA RESULT:     -10.6      3.054      5.443
REMARK  Name = 17758816
REMARK  9 active torsions:
REMARK  status: ('A' for Active; 'I' for Inactive)
REMARK    1  A    between atoms: C_3  and  C_8
REMARK    2  A    between atoms: C_4  and  C_20
REMARK    3  A    between atoms: C_11  and  O_14
REMARK    4  A    between atoms: O_14  and  C_15
REMARK    5  A    between atoms: C_15  and  C_17
REMARK    6  A    between atoms: C_17  and  O_18
REMARK    7  A    between atoms: C_20  and  N_23
REMARK    8  A    between atoms: C_28  and  S_32
REMARK    9  A    between atoms: S_32  and  C_34
REMARK                            x       y       z     vdW  Elec       q    Type
REMARK                         _______ _______ _______ _____ _____    ______ ____
ROOT
ATOM      1  N   UNL     1      35.779 -20.662 -19.631  0.00  0.00    -0.317 N 
ATOM      2  N   UNL     1      33.752 -20.214 -20.417  0.00  0.00    -0.316 N 
ATOM      3  C   UNL     1      34.902 -21.210 -18.737  0.00  0.00    +0.060 C 
ATOM      4  C   UNL     1      35.043 -20.075 -20.621  0.00  0.00    +0.164 C 
ATOM      5  C   UNL     1      33.657 -20.920 -19.245  0.00  0.00    +0.074 C 
ATOM      6  H   UNL     1      36.762 -20.686 -19.571  0.00  0.00    +0.148 HD
ATOM      7  H   UNL     1      33.015 -19.885 -20.982  0.00  0.00    +0.148 HD
ENDROOT
BRANCH   3   8
ATOM      8  C   UNL     1      35.314 -21.918 -17.550  0.00  0.00    +0.015 C 
ATOM      9  C   UNL     1      36.618 -21.779 -17.074  0.00  0.00    +0.004 C 
ATOM     10  C   UNL     1      34.410 -22.739 -16.878  0.00  0.00    +0.004 C 
ATOM     11  C   UNL     1      36.111 -23.283 -15.252  0.00  0.00    +0.139 C 
ATOM     12  C   UNL     1      37.016 -22.463 -15.924  0.00  0.00    +0.037 C 
ATOM     13  C   UNL     1      34.808 -23.423 -15.729  0.00  0.00    +0.037 C 
BRANCH  11  14
ATOM     14  O   UNL     1      36.500 -23.950 -14.131  0.00  0.00    -0.464 OA
BRANCH  14  15
ATOM     15  C   UNL     1      36.906 -25.310 -14.293  0.00  0.00    +0.314 C 
BRANCH  15  17
ATOM     16  O   UNL     1      39.063 -24.596 -13.429  0.00  0.00    -0.246 OA
ATOM     17  C   UNL     1      38.368 -25.446 -13.965  0.00  0.00    +0.359 C 
BRANCH  17  18
ATOM     18  O   UNL     1      38.821 -26.666 -14.348  0.00  0.00    -0.478 OA
ATOM     19  H   UNL     1      38.834 -27.375 -13.736  0.00  0.00    +0.295 HD
ENDBRANCH  17  18
ENDBRANCH  15  17
ENDBRANCH  14  15
ENDBRANCH  11  14
ENDBRANCH   3   8
BRANCH   4  20
ATOM     20  C   UNL     1      35.690 -19.387 -21.754  0.00  0.00    +0.131 C 
BRANCH  20  23
ATOM     21  S   UNL     1      34.531 -13.214 -22.187  0.00  0.00    -0.045 S 
ATOM     22  O   UNL     1      34.460 -17.636 -23.647  0.00  0.00    -0.252 OA
ATOM     23  N   UNL     1      35.536 -17.955 -21.629  0.00  0.00    -0.285 N 
ATOM     24  N   UNL     1      34.917 -15.828 -22.212  0.00  0.00    -0.248 N 
ATOM     25  N   UNL     1      33.795 -14.785 -24.103  0.00  0.00    -0.222 NA
ATOM     26  C   UNL     1      34.919 -17.168 -22.608  0.00  0.00    +0.306 C 
ATOM     27  C   UNL     1      34.388 -14.754 -22.931  0.00  0.00    +0.167 C 
ATOM     28  C   UNL     1      33.737 -12.516 -23.537  0.00  0.00    +0.082 C 
ATOM     29  C   UNL     1      33.422 -13.501 -24.449  0.00  0.00    +0.114 C 
ATOM     30  H   UNL     1      35.881 -17.513 -20.820  0.00  0.00    +0.151 HD
ATOM     31  H   UNL     1      35.329 -15.621 -21.342  0.00  0.00    +0.158 HD
BRANCH  28  32
ATOM     32  S   UNL     1      33.405 -10.806 -23.672  0.00  0.00    -0.060 S 
BRANCH  32  34
ATOM     33  N   UNL     1      31.943 -11.684 -21.601  0.00  0.00    -0.237 NA
ATOM     34  C   UNL     1      32.511 -10.580 -22.137  0.00  0.00    +0.111 C 
ATOM     35  C   UNL     1      32.435  -9.318 -21.573  0.00  0.00    +0.026 C 
ATOM     36  C   UNL     1      31.732  -9.178 -20.381  0.00  0.00    +0.004 C 
ATOM     37  C   UNL     1      31.135 -10.290 -19.799  0.00  0.00    +0.021 C 
ATOM     38  C   UNL     1      31.269 -11.510 -20.443  0.00  0.00    +0.099 C 
ENDBRANCH  32  34
ENDBRANCH  28  32
ENDBRANCH  20  23
ENDBRANCH   4  20
TORSDOF 9
ENDMDL
MODEL 7
REMARK VINA RESULT:     -10.6      4.748     12.741
REMARK  Name = 17758816
REMARK  9 active torsions:
REMARK  status: ('A' for Active; 'I' for Inactive)
REMARK    1  A    between atoms: C_3  and  C_8
REMARK    2  A    between atoms: C_4  and  C_20
REMARK    3  A    between atoms: C_11  and  O_14
REMARK    4  A    between atoms: O_14  and  C_15
REMARK    5  A    between atoms: C_15  and  C_17
REMARK    6  A    between atoms: C_17  and  O_18
REMARK    7  A    between atoms: C_20  and  N_23
REMARK    8  A    between atoms: C_28  and  S_32
REMARK    9  A    between atoms: S_32  and  C_34
REMARK                            x       y       z     vdW  Elec       q    Type
REMARK                         _______ _______ _______ _____ _____    ______ ____
ROOT
ATOM      1  N   UNL     1      34.656 -15.360 -22.845  0.00  0.00    -0.317 N 
ATOM      2  N   UNL     1      34.098 -16.515 -24.657  0.00  0.00    -0.316 N 
ATOM      3  C   UNL     1      33.826 -14.548 -23.565  0.00  0.00    +0.060 C 
ATOM      4  C   UNL     1      34.791 -16.530 -23.539  0.00  0.00    +0.164 C 
ATOM      5  C   UNL     1      33.495 -15.283 -24.680  0.00  0.00    +0.074 C 
ATOM      6  H   UNL     1      35.080 -15.142 -21.984  0.00  0.00    +0.148 HD
ATOM      7  H   UNL     1      34.028 -17.231 -25.330  0.00  0.00    +0.148 HD
ENDROOT
BRANCH   3   8
ATOM      8  C   UNL     1      33.450 -13.221 -23.144  0.00  0.00    +0.015 C 
ATOM      9  C   UNL     1      33.824 -12.116 -23.908  0.00  0.00    +0.004 C 
ATOM     10  C   UNL     1      32.712 -13.043 -21.975  0.00  0.00    +0.004 C 
ATOM     11  C   UNL     1      32.721 -10.654 -22.332  0.00  0.00    +0.139 C 
ATOM     12  C   UNL     1      33.460 -10.831 -23.501  0.00  0.00    +0.037 C 
ATOM     13  C   UNL     1      32.347 -11.759 -21.568  0.00  0.00    +0.037 C 
BRANCH  11  14
ATOM     14  O   UNL     1      32.366  -9.401 -21.935  0.00  0.00    -0.464 OA
BRANCH  14  15
ATOM     15  C   UNL     1      31.946  -9.243 -20.580  0.00  0.00    +0.314 C 
BRANCH  15  17
ATOM     16  O   UNL     1      31.732  -6.823 -20.551  0.00  0.00    -0.246 OA
ATOM     17  C   UNL     1      32.242  -7.844 -20.115  0.00  0.00    +0.359 C 
BRANCH  17  18
ATOM     18  O   UNL     1      33.170  -7.866 -19.125  0.00  0.00    -0.478 OA
ATOM     19  H   UNL     1      33.115  -7.256 -18.417  0.00  0.00    +0.295 HD
ENDBRANCH  17  18
ENDBRANCH  15  17
ENDBRANCH  14  15
ENDBRANCH  11  14
ENDBRANCH   3   8
BRANCH   4  20
ATOM     20  C   UNL     1      35.628 -17.632 -23.033  0.00  0.00    +0.131 C 
BRANCH  20  23
ATOM     21  S   UNL     1      33.207 -21.622 -18.806  0.00  0.00    -0.045 S 
ATOM     22  O   UNL     1      36.616 -19.202 -20.859  0.00  0.00    -0.252 OA
ATOM     23  N   UNL     1      34.853 -18.502 -22.176  0.00  0.00    -0.285 N 
ATOM     24  N   UNL     1      34.429 -19.985 -20.482  0.00  0.00    -0.248 N 
ATOM     25  N   UNL     1      35.740 -21.108 -18.767  0.00  0.00    -0.222 NA
ATOM     26  C   UNL     1      35.418 -19.240 -21.130  0.00  0.00    +0.306 C 
ATOM     27  C   UNL     1      34.617 -20.838 -19.393  0.00  0.00    +0.167 C 
ATOM     28  C   UNL     1      34.164 -22.395 -17.612  0.00  0.00    +0.082 C 
ATOM     29  C   UNL     1      35.479 -22.000 -17.746  0.00  0.00    +0.114 C 
ATOM     30  H   UNL     1      33.885 -18.580 -22.337  0.00  0.00    +0.151 HD
ATOM     31  H   UNL     1      33.512 -19.900 -20.828  0.00  0.00    +0.158 HD
BRANCH  28  32
ATOM     32  S   UNL     1      33.508 -23.502 -16.430  0.00  0.00    -0.060 S 
BRANCH  32  34
ATOM     33  N   UNL     1      35.514 -24.863 -15.281  0.00  0.00    -0.237 NA
ATOM     34  C   UNL     1      34.941 -23.642 -15.364  0.00  0.00    +0.111 C 
ATOM     35  C   UNL     1      35.393 -22.525 -14.683  0.00  0.00    +0.026 C 
ATOM     36  C   UNL     1      36.507 -22.668 -13.863  0.00  0.00    +0.004 C 
ATOM     37  C   UNL     1      37.125 -23.909 -13.751  0.00  0.00    +0.021 C 
ATOM     38  C   UNL     1      36.595 -24.965 -14.474  0.00  0.00    +0.099 C 
ENDBRANCH  32  34
ENDBRANCH  28  32
ENDBRANCH  20  23
ENDBRANCH   4  20
TORSDOF 9
ENDMDL
MODEL 8
REMARK VINA RESULT:     -10.6      5.183     13.504
REMARK  Name = 17758816
REMARK  9 active torsions:
REMARK  status: ('A' for Active; 'I' for Inactive)
REMARK    1  A    between atoms: C_3  and  C_8
REMARK    2  A    between atoms: C_4  and  C_20
REMARK    3  A    between atoms: C_11  and  O_14
REMARK    4  A    between atoms: O_14  and  C_15
REMARK    5  A    between atoms: C_15  and  C_17
REMARK    6  A    between atoms: C_17  and  O_18
REMARK    7  A    between atoms: C_20  and  N_23
REMARK    8  A    between atoms: C_28  and  S_32
REMARK    9  A    between atoms: S_32  and  C_34
REMARK                            x       y       z     vdW  Elec       q    Type
REMARK                         _______ _______ _______ _____ _____    ______ ____
ROOT
ATOM      1  N   UNL     1      35.541 -16.586 -22.564  0.00  0.00    -0.317 N 
ATOM      2  N   UNL     1      34.787 -18.458 -23.488  0.00  0.00    -0.316 N 
ATOM      3  C   UNL     1      34.602 -16.199 -23.479  0.00  0.00    +0.060 C 
ATOM      4  C   UNL     1      35.617 -17.949 -22.604  0.00  0.00    +0.164 C 
ATOM      5  C   UNL     1      34.152 -17.373 -24.037  0.00  0.00    +0.074 C 
ATOM      6  H   UNL     1      36.065 -15.990 -21.981  0.00  0.00    +0.148 HD
ATOM      7  H   UNL     1      34.651 -19.409 -23.706  0.00  0.00    +0.148 HD
ENDROOT
BRANCH   3   8
ATOM      8  C   UNL     1      34.247 -14.822 -23.722  0.00  0.00    +0.015 C 
ATOM      9  C   UNL     1      34.555 -13.846 -22.775  0.00  0.00    +0.004 C 
ATOM     10  C   UNL     1      33.597 -14.468 -24.903  0.00  0.00    +0.004 C 
ATOM     11  C   UNL     1      33.563 -12.159 -24.192  0.00  0.00    +0.139 C 
ATOM     12  C   UNL     1      34.213 -12.514 -23.010  0.00  0.00    +0.037 C 
ATOM     13  C   UNL     1      33.254 -13.136 -25.138  0.00  0.00    +0.037 C 
BRANCH  11  14
ATOM     14  O   UNL     1      33.229 -10.860 -24.420  0.00  0.00    -0.464 OA
BRANCH  14  15
ATOM     15  C   UNL     1      33.673  -9.897 -23.464  0.00  0.00    +0.314 C 
BRANCH  15  17
ATOM     16  O   UNL     1      31.898  -8.248 -23.277  0.00  0.00    -0.246 OA
ATOM     17  C   UNL     1      32.486  -9.223 -22.833  0.00  0.00    +0.359 C 
BRANCH  17  18
ATOM     18  O   UNL     1      32.145  -9.855 -21.682  0.00  0.00    -0.478 OA
ATOM     19  H   UNL     1      31.675  -9.394 -21.016  0.00  0.00    +0.295 HD
ENDBRANCH  17  18
ENDBRANCH  15  17
ENDBRANCH  14  15
ENDBRANCH  11  14
ENDBRANCH   3   8
BRANCH   4  20
ATOM     20  C   UNL     1      36.543 -18.693 -21.730  0.00  0.00    +0.131 C 
BRANCH  20  23
ATOM     21  S   UNL     1      34.216 -22.670 -17.438  0.00  0.00    -0.045 S 
ATOM     22  O   UNL     1      37.370 -19.729 -19.199  0.00  0.00    -0.252 OA
ATOM     23  N   UNL     1      35.814 -19.628 -20.901  0.00  0.00    -0.285 N 
ATOM     24  N   UNL     1      35.377 -20.976 -19.102  0.00  0.00    -0.248 N 
ATOM     25  N   UNL     1      36.511 -21.552 -17.027  0.00  0.00    -0.222 NA
ATOM     26  C   UNL     1      36.294 -20.087 -19.670  0.00  0.00    +0.306 C 
ATOM     27  C   UNL     1      35.513 -21.634 -17.877  0.00  0.00    +0.167 C 
ATOM     28  C   UNL     1      35.047 -23.051 -15.987  0.00  0.00    +0.082 C 
ATOM     29  C   UNL     1      36.242 -22.365 -15.944  0.00  0.00    +0.114 C 
ATOM     30  H   UNL     1      34.941 -19.956 -21.218  0.00  0.00    +0.151 HD
ATOM     31  H   UNL     1      34.556 -21.155 -19.614  0.00  0.00    +0.158 HD
BRANCH  28  32
ATOM     32  S   UNL     1      34.415 -24.150 -14.784  0.00  0.00    -0.060 S 
BRANCH  32  34
ATOM     33  N   UNL     1      36.498 -25.837 -14.871  0.00  0.00    -0.237 NA
ATOM     34  C   UNL     1      35.965 -24.808 -14.176  0.00  0.00    +0.111 C 
ATOM     35  C   UNL     1      36.542 -24.254 -13.046  0.00  0.00    +0.026 C 
ATOM     36  C   UNL     1      37.745 -24.790 -12.599  0.00  0.00    +0.004 C 
ATOM     37  C   UNL     1      38.325 -25.849 -13.288  0.00  0.00    +0.021 C 
ATOM     38  C   UNL     1      37.668 -26.332 -14.408  0.00  0.00    +0.099 C 
ENDBRANCH  32  34
ENDBRANCH  28  32
ENDBRANCH  20  23
ENDBRANCH   4  20
TORSDOF 9
ENDMDL
MODEL 9
REMARK VINA RESULT:     -10.5      2.624      4.193
REMARK  Name = 17758816
REMARK  9 active torsions:
REMARK  status: ('A' for Active; 'I' for Inactive)
REMARK    1  A    between atoms: C_3  and  C_8
REMARK    2  A    between atoms: C_4  and  C_20
REMARK    3  A    between atoms: C_11  and  O_14
REMARK    4  A    between atoms: O_14  and  C_15
REMARK    5  A    between atoms: C_15  and  C_17
REMARK    6  A    between atoms: C_17  and  O_18
REMARK    7  A    between atoms: C_20  and  N_23
REMARK    8  A    between atoms: C_28  and  S_32
REMARK    9  A    between atoms: S_32  and  C_34
REMARK                            x       y       z     vdW  Elec       q    Type
REMARK                         _______ _______ _______ _____ _____    ______ ____
ROOT
ATOM      1  N   UNL     1      35.017 -19.444 -21.105  0.00  0.00    -0.317 N 
ATOM      2  N   UNL     1      37.027 -18.555 -21.417  0.00  0.00    -0.316 N 
ATOM      3  C   UNL     1      35.817 -19.981 -20.136  0.00  0.00    +0.060 C 
ATOM      4  C   UNL     1      35.786 -18.595 -21.849  0.00  0.00    +0.164 C 
ATOM      5  C   UNL     1      37.053 -19.417 -20.350  0.00  0.00    +0.074 C 
ATOM      6  H   UNL     1      34.060 -19.635 -21.241  0.00  0.00    +0.148 HD
ATOM      7  H   UNL     1      37.772 -18.023 -21.779  0.00  0.00    +0.148 HD
ENDROOT
BRANCH   3   8
ATOM      8  C   UNL     1      35.351 -20.930 -19.155  0.00  0.00    +0.015 C 
ATOM      9  C   UNL     1      36.227 -21.416 -18.185  0.00  0.00    +0.004 C 
ATOM     10  C   UNL     1      34.026 -21.361 -19.176  0.00  0.00    +0.004 C 
ATOM     11  C   UNL     1      34.450 -22.764 -17.255  0.00  0.00    +0.139 C 
ATOM     12  C   UNL     1      35.776 -22.334 -17.235  0.00  0.00    +0.037 C 
ATOM     13  C   UNL     1      33.574 -22.278 -18.227  0.00  0.00    +0.037 C 
BRANCH  11  14
ATOM     14  O   UNL     1      34.011 -23.659 -16.329  0.00  0.00    -0.464 OA
BRANCH  14  15
ATOM     15  C   UNL     1      34.436 -23.460 -14.981  0.00  0.00    +0.314 C 
BRANCH  15  17
ATOM     16  O   UNL     1      35.923 -25.376 -15.131  0.00  0.00    -0.246 OA
ATOM     17  C   UNL     1      35.145 -24.690 -14.485  0.00  0.00    +0.359 C 
BRANCH  17  18
ATOM     18  O   UNL     1      34.802 -24.940 -13.196  0.00  0.00    -0.478 OA
ATOM     19  H   UNL     1      35.008 -24.318 -12.527  0.00  0.00    +0.295 HD
ENDBRANCH  17  18
ENDBRANCH  15  17
ENDBRANCH  14  15
ENDBRANCH  11  14
ENDBRANCH   3   8
BRANCH   4  20
ATOM     20  C   UNL     1      35.221 -17.844 -22.986  0.00  0.00    +0.131 C 
BRANCH  20  23
ATOM     21  S   UNL     1      33.784 -11.746 -22.360  0.00  0.00    -0.045 S 
ATOM     22  O   UNL     1      34.488 -15.697 -24.723  0.00  0.00    -0.252 OA
ATOM     23  N   UNL     1      34.930 -16.482 -22.597  0.00  0.00    -0.285 N 
ATOM     24  N   UNL     1      34.356 -14.279 -22.851  0.00  0.00    -0.248 N 
ATOM     25  N   UNL     1      33.777 -12.822 -24.711  0.00  0.00    -0.222 NA
ATOM     26  C   UNL     1      34.577 -15.488 -23.516  0.00  0.00    +0.306 C 
ATOM     27  C   UNL     1      33.987 -13.067 -23.437  0.00  0.00    +0.167 C 
ATOM     28  C   UNL     1      33.381 -10.751 -23.697  0.00  0.00    +0.082 C 
ATOM     29  C   UNL     1      33.429 -11.493 -24.858  0.00  0.00    +0.114 C 
ATOM     30  H   UNL     1      34.982 -16.244 -21.643  0.00  0.00    +0.151 HD
ATOM     31  H   UNL     1      34.471 -14.283 -21.873  0.00  0.00    +0.158 HD
BRANCH  28  32
ATOM     32  S   UNL     1      32.977  -9.058 -23.541  0.00  0.00    -0.060 S 
BRANCH  32  34
ATOM     33  N   UNL     1      33.030  -8.161 -21.013  0.00  0.00    -0.237 NA
ATOM     34  C   UNL     1      32.442  -9.062 -21.832  0.00  0.00    +0.111 C 
ATOM     35  C   UNL     1      31.476  -9.966 -21.424  0.00  0.00    +0.026 C 
ATOM     36  C   UNL     1      31.085  -9.944 -20.090  0.00  0.00    +0.004 C 
ATOM     37  C   UNL     1      31.666  -9.031 -19.217  0.00  0.00    +0.021 C 
ATOM     38  C   UNL     1      32.625  -8.169 -19.723  0.00  0.00    +0.099 C 
ENDBRANCH  32  34
ENDBRANCH  28  32
ENDBRANCH  20  23
ENDBRANCH   4  20
TORSDOF 9
ENDMDL
