MODEL 1
REMARK VINA RESULT:     -11.5      0.000      0.000
REMARK  Name = 3152
REMARK  6 active torsions:
REMARK  status: ('A' for Active; 'I' for Inactive)
REMARK    1  A    between atoms: C_1  and  C_3
REMARK    2  A    between atoms: C_1  and  C_17
REMARK    3  A    between atoms: C_10  and  O_12
REMARK    4  A    between atoms: C_11  and  O_14
REMARK    5  A    between atoms: N_16  and  C_23
REMARK    6  A    between atoms: C_23  and  C_24
REMARK                            x       y       z     vdW  Elec       q    Type
REMARK                         _______ _______ _______ _____ _____    ______ ____
ROOT
ATOM      1  C   UNL     1      34.957 -19.425 -22.531  0.00  0.00    +0.008 C 
ENDROOT
BRANCH   1   3
ATOM      2  O   UNL     1      32.461 -20.047 -20.948  0.00  0.00    -0.291 OA
ATOM      3  C   UNL     1      34.781 -19.267 -21.033  0.00  0.00    +0.066 C 
ATOM      4  C   UNL     1      35.997 -19.786 -20.233  0.00  0.00    +0.034 C 
ATOM      5  C   UNL     1      33.604 -20.084 -20.528  0.00  0.00    +0.173 C 
ATOM      6  C   UNL     1      35.407 -20.757 -19.260  0.00  0.00    -0.016 C 
ATOM      7  C   UNL     1      34.041 -20.937 -19.434  0.00  0.00    +0.034 C 
ATOM      8  C   UNL     1      36.072 -21.464 -18.270  0.00  0.00    +0.036 C 
ATOM      9  C   UNL     1      33.289 -21.799 -18.659  0.00  0.00    +0.043 C 
ATOM     10  C   UNL     1      35.338 -22.342 -17.467  0.00  0.00    +0.172 C 
ATOM     11  C   UNL     1      33.956 -22.509 -17.660  0.00  0.00    +0.172 C 
BRANCH  10  12
ATOM     12  O   UNL     1      35.982 -23.043 -16.489  0.00  0.00    -0.468 OA
ATOM     13  C   UNL     1      36.753 -22.291 -15.556  0.00  0.00    +0.253 C 
ENDBRANCH  10  12
BRANCH  11  14
ATOM     14  O   UNL     1      33.252 -23.371 -16.872  0.00  0.00    -0.468 OA
ATOM     15  C   UNL     1      32.005 -22.908 -16.360  0.00  0.00    +0.253 C 
ENDBRANCH  11  14
ENDBRANCH   1   3
BRANCH   1  17
ATOM     16  N   UNL     1      34.026 -15.375 -23.707  0.00  0.00    +0.390 N 
ATOM     17  C   UNL     1      35.071 -18.072 -23.225  0.00  0.00    -0.004 C 
ATOM     18  C   UNL     1      33.857 -17.808 -24.122  0.00  0.00    -0.023 C 
ATOM     19  C   UNL     1      35.215 -16.939 -22.203  0.00  0.00    -0.023 C 
ATOM     20  C   UNL     1      33.916 -16.410 -24.742  0.00  0.00    -0.077 C 
ATOM     21  C   UNL     1      35.230 -15.570 -22.887  0.00  0.00    -0.077 C 
ATOM     22  H   UNL     1      33.213 -15.453 -23.095  0.00  0.00    -0.079 HD
BRANCH  16  23
ATOM     23  C   UNL     1      34.029 -14.043 -24.312  0.00  0.00    -0.050 C 
BRANCH  23  24
ATOM     24  C   UNL     1      33.430 -13.009 -23.396  0.00  0.00    -0.043 C 
ATOM     25  C   UNL     1      33.623 -11.662 -23.668  0.00  0.00    -0.006 C 
ATOM     26  C   UNL     1      32.693 -13.418 -22.293  0.00  0.00    -0.006 C 
ATOM     27  C   UNL     1      33.068 -10.704 -22.820  0.00  0.00    -0.000 C 
ATOM     28  C   UNL     1      32.137 -12.459 -21.445  0.00  0.00    -0.000 C 
ATOM     29  C   UNL     1      32.325 -11.103 -21.709  0.00  0.00    -0.000 C 
ENDBRANCH  23  24
ENDBRANCH  16  23
ENDBRANCH   1  17
TORSDOF 6
ENDMDL
MODEL 2
REMARK VINA RESULT:     -11.1      1.556      2.826
REMARK  Name = 3152
REMARK  6 active torsions:
REMARK  status: ('A' for Active; 'I' for Inactive)
REMARK    1  A    between atoms: C_1  and  C_3
REMARK    2  A    between atoms: C_1  and  C_17
REMARK    3  A    between atoms: C_10  and  O_12
REMARK    4  A    between atoms: C_11  and  O_14
REMARK    5  A    between atoms: N_16  and  C_23
REMARK    6  A    between atoms: C_23  and  C_24
REMARK                            x       y       z     vdW  Elec       q    Type
REMARK                         _______ _______ _______ _____ _____    ______ ____
ROOT
ATOM      1  C   UNL     1      36.064 -17.167 -21.347  0.00  0.00    +0.008 C 
ENDROOT
BRANCH   1   3
ATOM      2  O   UNL     1      37.737 -19.431 -20.252  0.00  0.00    -0.291 OA
ATOM      3  C   UNL     1      35.795 -18.649 -21.522  0.00  0.00    +0.066 C 
ATOM      4  C   UNL     1      34.306 -19.011 -21.317  0.00  0.00    +0.034 C 
ATOM      5  C   UNL     1      36.542 -19.470 -20.486  0.00  0.00    +0.173 C 
ATOM      6  C   UNL     1      34.332 -20.089 -20.279  0.00  0.00    -0.016 C 
ATOM      7  C   UNL     1      35.608 -20.345 -19.795  0.00  0.00    +0.034 C 
ATOM      8  C   UNL     1      33.252 -20.798 -19.777  0.00  0.00    +0.036 C 
ATOM      9  C   UNL     1      35.869 -21.289 -18.820  0.00  0.00    +0.043 C 
ATOM     10  C   UNL     1      33.484 -21.762 -18.791  0.00  0.00    +0.172 C 
ATOM     11  C   UNL     1      34.784 -22.005 -18.315  0.00  0.00    +0.172 C 
BRANCH  10  12
ATOM     12  O   UNL     1      32.429 -22.466 -18.290  0.00  0.00    -0.468 OA
ATOM     13  C   UNL     1      32.254 -22.450 -16.875  0.00  0.00    +0.253 C 
ENDBRANCH  10  12
BRANCH  11  14
ATOM     14  O   UNL     1      34.996 -22.946 -17.351  0.00  0.00    -0.468 OA
ATOM     15  C   UNL     1      35.816 -22.567 -16.247  0.00  0.00    +0.253 C 
ENDBRANCH  11  14
ENDBRANCH   1   3
BRANCH   1  17
ATOM     16  N   UNL     1      34.027 -13.858 -23.232  0.00  0.00    +0.390 N 
ATOM     17  C   UNL     1      34.935 -16.323 -21.930  0.00  0.00    -0.004 C 
ATOM     18  C   UNL     1      34.789 -14.998 -21.173  0.00  0.00    -0.023 C 
ATOM     19  C   UNL     1      35.168 -16.045 -23.419  0.00  0.00    -0.023 C 
ATOM     20  C   UNL     1      33.726 -14.104 -21.817  0.00  0.00    -0.077 C 
ATOM     21  C   UNL     1      34.092 -15.117 -23.988  0.00  0.00    -0.077 C 
ATOM     22  H   UNL     1      34.942 -13.410 -23.287  0.00  0.00    -0.079 HD
BRANCH  16  23
ATOM     23  C   UNL     1      33.032 -12.961 -23.819  0.00  0.00    -0.050 C 
BRANCH  23  24
ATOM     24  C   UNL     1      33.400 -11.513 -23.631  0.00  0.00    -0.043 C 
ATOM     25  C   UNL     1      34.476 -10.985 -24.330  0.00  0.00    -0.006 C 
ATOM     26  C   UNL     1      32.657 -10.727 -22.760  0.00  0.00    -0.006 C 
ATOM     27  C   UNL     1      34.816  -9.644 -24.156  0.00  0.00    -0.000 C 
ATOM     28  C   UNL     1      32.998  -9.385 -22.587  0.00  0.00    -0.000 C 
ATOM     29  C   UNL     1      34.077  -8.844 -23.284  0.00  0.00    -0.000 C 
ENDBRANCH  23  24
ENDBRANCH  16  23
ENDBRANCH   1  17
TORSDOF 6
ENDMDL
MODEL 3
REMARK VINA RESULT:     -11.0      2.029      3.889
REMARK  Name = 3152
REMARK  6 active torsions:
REMARK  status: ('A' for Active; 'I' for Inactive)
REMARK    1  A    between atoms: C_1  and  C_3
REMARK    2  A    between atoms: C_1  and  C_17
REMARK    3  A    between atoms: C_10  and  O_12
REMARK    4  A    between atoms: C_11  and  O_14
REMARK    5  A    between atoms: N_16  and  C_23
REMARK    6  A    between atoms: C_23  and  C_24
REMARK                            x       y       z     vdW  Elec       q    Type
REMARK                         _______ _______ _______ _____ _____    ______ ____
ROOT
ATOM      1  C   UNL     1      36.371 -20.269 -18.951  0.00  0.00    +0.008 C 
ENDROOT
BRANCH   1   3
ATOM      2  O   UNL     1      37.337 -21.941 -16.629  0.00  0.00    -0.291 OA
ATOM      3  C   UNL     1      35.957 -21.693 -18.636  0.00  0.00    +0.066 C 
ATOM      4  C   UNL     1      34.435 -21.917 -18.788  0.00  0.00    +0.034 C 
ATOM      5  C   UNL     1      36.262 -22.048 -17.191  0.00  0.00    +0.173 C 
ATOM      6  C   UNL     1      34.018 -22.493 -17.472  0.00  0.00    -0.016 C 
ATOM      7  C   UNL     1      35.058 -22.559 -16.554  0.00  0.00    +0.034 C 
ATOM      8  C   UNL     1      32.752 -22.924 -17.106  0.00  0.00    +0.036 C 
ATOM      9  C   UNL     1      34.901 -23.042 -15.269  0.00  0.00    +0.043 C 
ATOM     10  C   UNL     1      32.562 -23.421 -15.813  0.00  0.00    +0.172 C 
ATOM     11  C   UNL     1      33.628 -23.479 -14.900  0.00  0.00    +0.172 C 
BRANCH  10  12
ATOM     12  O   UNL     1      31.320 -23.848 -15.443  0.00  0.00    -0.468 OA
ATOM     13  C   UNL     1      30.219 -23.009 -15.782  0.00  0.00    +0.253 C 
ENDBRANCH  10  12
BRANCH  11  14
ATOM     14  O   UNL     1      33.428 -23.962 -13.641  0.00  0.00    -0.468 OA
ATOM     15  C   UNL     1      34.560 -23.997 -12.774  0.00  0.00    +0.253 C 
ENDBRANCH  11  14
ENDBRANCH   1   3
BRANCH   1  17
ATOM     16  N   UNL     1      35.059 -17.914 -22.325  0.00  0.00    +0.390 N 
ATOM     17  C   UNL     1      36.024 -19.891 -20.387  0.00  0.00    -0.004 C 
ATOM     18  C   UNL     1      34.542 -19.521 -20.517  0.00  0.00    -0.023 C 
ATOM     19  C   UNL     1      36.892 -18.728 -20.877  0.00  0.00    -0.023 C 
ATOM     20  C   UNL     1      34.209 -19.045 -21.933  0.00  0.00    -0.077 C 
ATOM     21  C   UNL     1      36.482 -18.279 -22.282  0.00  0.00    -0.077 C 
ATOM     22  H   UNL     1      34.907 -17.158 -21.657  0.00  0.00    -0.079 HD
BRANCH  16  23
ATOM     23  C   UNL     1      34.694 -17.438 -23.659  0.00  0.00    -0.050 C 
BRANCH  23  24
ATOM     24  C   UNL     1      34.368 -15.968 -23.661  0.00  0.00    -0.043 C 
ATOM     25  C   UNL     1      33.665 -15.425 -24.728  0.00  0.00    -0.006 C 
ATOM     26  C   UNL     1      34.775 -15.176 -22.596  0.00  0.00    -0.006 C 
ATOM     27  C   UNL     1      33.363 -14.064 -24.729  0.00  0.00    -0.000 C 
ATOM     28  C   UNL     1      34.472 -13.814 -22.597  0.00  0.00    -0.000 C 
ATOM     29  C   UNL     1      33.766 -13.258 -23.664  0.00  0.00    -0.000 C 
ENDBRANCH  23  24
ENDBRANCH  16  23
ENDBRANCH   1  17
TORSDOF 6
ENDMDL
MODEL 4
REMARK VINA RESULT:     -10.5      2.516      4.849
REMARK  Name = 3152
REMARK  6 active torsions:
REMARK  status: ('A' for Active; 'I' for Inactive)
REMARK    1  A    between atoms: C_1  and  C_3
REMARK    2  A    between atoms: C_1  and  C_17
REMARK    3  A    between atoms: C_10  and  O_12
REMARK    4  A    between atoms: C_11  and  O_14
REMARK    5  A    between atoms: N_16  and  C_23
REMARK    6  A    between atoms: C_23  and  C_24
REMARK                            x       y       z     vdW  Elec       q    Type
REMARK                         _______ _______ _______ _____ _____    ______ ____
ROOT
ATOM      1  C   UNL     1      34.617 -22.467 -18.606  0.00  0.00    +0.008 C 
ENDROOT
BRANCH   1   3
ATOM      2  O   UNL     1      33.153 -23.142 -16.051  0.00  0.00    -0.291 OA
ATOM      3  C   UNL     1      34.982 -22.000 -17.210  0.00  0.00    +0.066 C 
ATOM      4  C   UNL     1      36.500 -22.092 -16.931  0.00  0.00    +0.034 C 
ATOM      5  C   UNL     1      34.337 -22.875 -16.150  0.00  0.00    +0.173 C 
ATOM      6  C   UNL     1      36.592 -22.900 -15.675  0.00  0.00    -0.016 C 
ATOM      7  C   UNL     1      35.358 -23.357 -15.233  0.00  0.00    +0.034 C 
ATOM      8  C   UNL     1      37.739 -23.227 -14.968  0.00  0.00    +0.036 C 
ATOM      9  C   UNL     1      35.203 -24.136 -14.102  0.00  0.00    +0.043 C 
ATOM     10  C   UNL     1      37.615 -24.011 -13.817  0.00  0.00    +0.172 C 
ATOM     11  C   UNL     1      36.356 -24.464 -13.387  0.00  0.00    +0.172 C 
BRANCH  10  12
ATOM     12  O   UNL     1      38.737 -24.338 -13.114  0.00  0.00    -0.468 OA
ATOM     13  C   UNL     1      39.580 -25.343 -13.672  0.00  0.00    +0.253 C 
ENDBRANCH  10  12
BRANCH  11  14
ATOM     14  O   UNL     1      36.249 -25.231 -12.265  0.00  0.00    -0.468 OA
ATOM     15  C   UNL     1      35.849 -24.571 -11.067  0.00  0.00    +0.253 C 
ENDBRANCH  11  14
ENDBRANCH   1   3
BRANCH   1  17
ATOM     16  N   UNL     1      35.734 -18.784 -20.563  0.00  0.00    +0.390 N 
ATOM     17  C   UNL     1      35.150 -21.514 -19.670  0.00  0.00    -0.004 C 
ATOM     18  C   UNL     1      34.055 -20.553 -20.147  0.00  0.00    -0.023 C 
ATOM     19  C   UNL     1      36.347 -20.715 -19.145  0.00  0.00    -0.023 C 
ATOM     20  C   UNL     1      34.609 -19.529 -21.141  0.00  0.00    -0.077 C 
ATOM     21  C   UNL     1      36.825 -19.687 -20.173  0.00  0.00    -0.077 C 
ATOM     22  H   UNL     1      35.400 -18.311 -19.722  0.00  0.00    -0.079 HD
BRANCH  16  23
ATOM     23  C   UNL     1      36.218 -17.774 -21.505  0.00  0.00    -0.050 C 
BRANCH  23  24
ATOM     24  C   UNL     1      35.434 -16.492 -21.407  0.00  0.00    -0.043 C 
ATOM     25  C   UNL     1      35.137 -15.783 -22.562  0.00  0.00    -0.006 C 
ATOM     26  C   UNL     1      35.020 -16.038 -20.162  0.00  0.00    -0.006 C 
ATOM     27  C   UNL     1      34.411 -14.596 -22.471  0.00  0.00    -0.000 C 
ATOM     28  C   UNL     1      34.293 -14.851 -20.072  0.00  0.00    -0.000 C 
ATOM     29  C   UNL     1      33.989 -14.130 -21.226  0.00  0.00    -0.000 C 
ENDBRANCH  23  24
ENDBRANCH  16  23
ENDBRANCH   1  17
TORSDOF 6
ENDMDL
MODEL 5
REMARK VINA RESULT:     -10.5      1.911      3.492
REMARK  Name = 3152
REMARK  6 active torsions:
REMARK  status: ('A' for Active; 'I' for Inactive)
REMARK    1  A    between atoms: C_1  and  C_3
REMARK    2  A    between atoms: C_1  and  C_17
REMARK    3  A    between atoms: C_10  and  O_12
REMARK    4  A    between atoms: C_11  and  O_14
REMARK    5  A    between atoms: N_16  and  C_23
REMARK    6  A    between atoms: C_23  and  C_24
REMARK                            x       y       z     vdW  Elec       q    Type
REMARK                         _______ _______ _______ _____ _____    ______ ____
ROOT
ATOM      1  C   UNL     1      33.906 -20.266 -19.700  0.00  0.00    +0.008 C 
ENDROOT
BRANCH   1   3
ATOM      2  O   UNL     1      36.797 -20.531 -18.864  0.00  0.00    -0.291 OA
ATOM      3  C   UNL     1      34.620 -21.552 -19.328  0.00  0.00    +0.066 C 
ATOM      4  C   UNL     1      33.770 -22.459 -18.409  0.00  0.00    +0.034 C 
ATOM      5  C   UNL     1      35.885 -21.270 -18.537  0.00  0.00    +0.173 C 
ATOM      6  C   UNL     1      34.658 -22.722 -17.234  0.00  0.00    -0.016 C 
ATOM      7  C   UNL     1      35.863 -22.034 -17.300  0.00  0.00    +0.034 C 
ATOM      8  C   UNL     1      34.388 -23.531 -16.141  0.00  0.00    +0.036 C 
ATOM      9  C   UNL     1      36.831 -22.114 -16.317  0.00  0.00    +0.043 C 
ATOM     10  C   UNL     1      35.350 -23.634 -15.131  0.00  0.00    +0.172 C 
ATOM     11  C   UNL     1      36.562 -22.929 -15.217  0.00  0.00    +0.172 C 
BRANCH  10  12
ATOM     12  O   UNL     1      35.095 -24.427 -14.051  0.00  0.00    -0.468 OA
ATOM     13  C   UNL     1      34.229 -23.898 -13.049  0.00  0.00    +0.253 C 
ENDBRANCH  10  12
BRANCH  11  14
ATOM     14  O   UNL     1      37.490 -23.036 -14.224  0.00  0.00    -0.468 OA
ATOM     15  C   UNL     1      38.305 -24.205 -14.223  0.00  0.00    +0.253 C 
ENDBRANCH  11  14
ENDBRANCH   1   3
BRANCH   1  17
ATOM     16  N   UNL     1      34.622 -17.412 -22.860  0.00  0.00    +0.390 N 
ATOM     17  C   UNL     1      34.552 -19.599 -20.910  0.00  0.00    -0.004 C 
ATOM     18  C   UNL     1      33.567 -19.509 -22.081  0.00  0.00    -0.023 C 
ATOM     19  C   UNL     1      35.067 -18.199 -20.558  0.00  0.00    -0.023 C 
ATOM     20  C   UNL     1      34.177 -18.751 -23.263  0.00  0.00    -0.077 C 
ATOM     21  C   UNL     1      35.626 -17.485 -21.790  0.00  0.00    -0.077 C 
ATOM     22  H   UNL     1      33.813 -16.906 -22.499  0.00  0.00    -0.079 HD
BRANCH  16  23
ATOM     23  C   UNL     1      35.154 -16.681 -24.011  0.00  0.00    -0.050 C 
BRANCH  23  24
ATOM     24  C   UNL     1      34.529 -15.318 -24.149  0.00  0.00    -0.043 C 
ATOM     25  C   UNL     1      34.658 -14.400 -23.117  0.00  0.00    -0.006 C 
ATOM     26  C   UNL     1      33.833 -15.000 -25.307  0.00  0.00    -0.006 C 
ATOM     27  C   UNL     1      34.080 -13.137 -23.245  0.00  0.00    -0.000 C 
ATOM     28  C   UNL     1      33.255 -13.737 -25.435  0.00  0.00    -0.000 C 
ATOM     29  C   UNL     1      33.378 -12.806 -24.404  0.00  0.00    -0.000 C 
ENDBRANCH  23  24
ENDBRANCH  16  23
ENDBRANCH   1  17
TORSDOF 6
ENDMDL
MODEL 6
REMARK VINA RESULT:     -10.4      2.998      9.569
REMARK  Name = 3152
REMARK  6 active torsions:
REMARK  status: ('A' for Active; 'I' for Inactive)
REMARK    1  A    between atoms: C_1  and  C_3
REMARK    2  A    between atoms: C_1  and  C_17
REMARK    3  A    between atoms: C_10  and  O_12
REMARK    4  A    between atoms: C_11  and  O_14
REMARK    5  A    between atoms: N_16  and  C_23
REMARK    6  A    between atoms: C_23  and  C_24
REMARK                            x       y       z     vdW  Elec       q    Type
REMARK                         _______ _______ _______ _____ _____    ______ ____
ROOT
ATOM      1  C   UNL     1      36.429 -19.498 -20.376  0.00  0.00    +0.008 C 
ENDROOT
BRANCH   1   3
ATOM      2  O   UNL     1      35.419 -16.757 -19.607  0.00  0.00    -0.291 OA
ATOM      3  C   UNL     1      35.180 -18.819 -20.905  0.00  0.00    +0.066 C 
ATOM      4  C   UNL     1      35.021 -18.977 -22.435  0.00  0.00    +0.034 C 
ATOM      5  C   UNL     1      35.227 -17.320 -20.670  0.00  0.00    +0.173 C 
ATOM      6  C   UNL     1      34.867 -17.574 -22.933  0.00  0.00    -0.016 C 
ATOM      7  C   UNL     1      34.995 -16.625 -21.927  0.00  0.00    +0.034 C 
ATOM      8  C   UNL     1      34.638 -17.165 -24.237  0.00  0.00    +0.036 C 
ATOM      9  C   UNL     1      34.905 -15.265 -22.158  0.00  0.00    +0.043 C 
ATOM     10  C   UNL     1      34.539 -15.796 -24.502  0.00  0.00    +0.172 C 
ATOM     11  C   UNL     1      34.672 -14.852 -23.470  0.00  0.00    +0.172 C 
BRANCH  10  12
ATOM     12  O   UNL     1      34.313 -15.382 -25.782  0.00  0.00    -0.468 OA
ATOM     13  C   UNL     1      33.289 -14.410 -25.977  0.00  0.00    +0.253 C 
ENDBRANCH  10  12
BRANCH  11  14
ATOM     14  O   UNL     1      34.576 -13.520 -23.742  0.00  0.00    -0.468 OA
ATOM     15  C   UNL     1      33.850 -12.720 -22.811  0.00  0.00    +0.253 C 
ENDBRANCH  11  14
ENDBRANCH   1   3
BRANCH   1  17
ATOM     16  N   UNL     1      34.805 -22.204 -17.428  0.00  0.00    +0.390 N 
ATOM     17  C   UNL     1      36.093 -20.800 -19.656  0.00  0.00    -0.004 C 
ATOM     18  C   UNL     1      36.685 -20.817 -18.243  0.00  0.00    -0.023 C 
ATOM     19  C   UNL     1      34.577 -21.015 -19.585  0.00  0.00    -0.023 C 
ATOM     20  C   UNL     1      36.267 -22.076 -17.480  0.00  0.00    -0.077 C 
ATOM     21  C   UNL     1      34.230 -22.268 -18.778  0.00  0.00    -0.077 C 
ATOM     22  H   UNL     1      34.432 -21.374 -16.966  0.00  0.00    -0.079 HD
BRANCH  16  23
ATOM     23  C   UNL     1      34.421 -23.383 -16.651  0.00  0.00    -0.050 C 
BRANCH  23  24
ATOM     24  C   UNL     1      33.141 -23.161 -15.890  0.00  0.00    -0.043 C 
ATOM     25  C   UNL     1      33.176 -23.070 -14.506  0.00  0.00    -0.006 C 
ATOM     26  C   UNL     1      31.944 -23.052 -16.584  0.00  0.00    -0.006 C 
ATOM     27  C   UNL     1      31.991 -22.865 -13.801  0.00  0.00    -0.000 C 
ATOM     28  C   UNL     1      30.757 -22.846 -15.878  0.00  0.00    -0.000 C 
ATOM     29  C   UNL     1      30.781 -22.753 -14.487  0.00  0.00    -0.000 C 
ENDBRANCH  23  24
ENDBRANCH  16  23
ENDBRANCH   1  17
TORSDOF 6
ENDMDL
MODEL 7
REMARK VINA RESULT:     -10.3      4.550     10.464
REMARK  Name = 3152
REMARK  6 active torsions:
REMARK  status: ('A' for Active; 'I' for Inactive)
REMARK    1  A    between atoms: C_1  and  C_3
REMARK    2  A    between atoms: C_1  and  C_17
REMARK    3  A    between atoms: C_10  and  O_12
REMARK    4  A    between atoms: C_11  and  O_14
REMARK    5  A    between atoms: N_16  and  C_23
REMARK    6  A    between atoms: C_23  and  C_24
REMARK                            x       y       z     vdW  Elec       q    Type
REMARK                         _______ _______ _______ _____ _____    ______ ____
ROOT
ATOM      1  C   UNL     1      33.623 -13.990 -24.054  0.00  0.00    +0.008 C 
ENDROOT
BRANCH   1   3
ATOM      2  O   UNL     1      34.754 -11.385 -25.082  0.00  0.00    -0.291 OA
ATOM      3  C   UNL     1      34.116 -12.830 -23.211  0.00  0.00    +0.066 C 
ATOM      4  C   UNL     1      33.171 -12.509 -22.031  0.00  0.00    +0.034 C 
ATOM      5  C   UNL     1      34.177 -11.547 -24.022  0.00  0.00    +0.173 C 
ATOM      6  C   UNL     1      32.869 -11.052 -22.189  0.00  0.00    -0.016 C 
ATOM      7  C   UNL     1      33.434 -10.503 -23.333  0.00  0.00    +0.034 C 
ATOM      8  C   UNL     1      32.104 -10.256 -21.351  0.00  0.00    +0.036 C 
ATOM      9  C   UNL     1      33.275  -9.178 -23.691  0.00  0.00    +0.043 C 
ATOM     10  C   UNL     1      31.927  -8.910 -21.685  0.00  0.00    +0.172 C 
ATOM     11  C   UNL     1      32.508  -8.374 -22.847  0.00  0.00    +0.172 C 
BRANCH  10  12
ATOM     12  O   UNL     1      31.176  -8.116 -20.868  0.00  0.00    -0.468 OA
ATOM     13  C   UNL     1      31.765  -7.722 -19.631  0.00  0.00    +0.253 C 
ENDBRANCH  10  12
BRANCH  11  14
ATOM     14  O   UNL     1      32.325  -7.060 -23.163  0.00  0.00    -0.468 OA
ATOM     15  C   UNL     1      33.409  -6.174 -22.897  0.00  0.00    +0.253 C 
ENDBRANCH  11  14
ENDBRANCH   1   3
BRANCH   1  17
ATOM     16  N   UNL     1      34.769 -17.850 -22.492  0.00  0.00    +0.390 N 
ATOM     17  C   UNL     1      34.448 -15.249 -23.806  0.00  0.00    -0.004 C 
ATOM     18  C   UNL     1      34.819 -15.382 -22.325  0.00  0.00    -0.023 C 
ATOM     19  C   UNL     1      33.694 -16.501 -24.265  0.00  0.00    -0.023 C 
ATOM     20  C   UNL     1      35.560 -16.694 -22.053  0.00  0.00    -0.077 C 
ATOM     21  C   UNL     1      34.473 -17.775 -23.930  0.00  0.00    -0.077 C 
ATOM     22  H   UNL     1      33.883 -17.837 -21.987  0.00  0.00    -0.079 HD
BRANCH  16  23
ATOM     23  C   UNL     1      35.467 -19.097 -22.179  0.00  0.00    -0.050 C 
BRANCH  23  24
ATOM     24  C   UNL     1      34.803 -19.845 -21.053  0.00  0.00    -0.043 C 
ATOM     25  C   UNL     1      33.429 -19.751 -20.887  0.00  0.00    -0.006 C 
ATOM     26  C   UNL     1      35.577 -20.617 -20.197  0.00  0.00    -0.006 C 
ATOM     27  C   UNL     1      32.815 -20.444 -19.844  0.00  0.00    -0.000 C 
ATOM     28  C   UNL     1      34.962 -21.311 -19.154  0.00  0.00    -0.000 C 
ATOM     29  C   UNL     1      33.581 -21.224 -18.978  0.00  0.00    -0.000 C 
ENDBRANCH  23  24
ENDBRANCH  16  23
ENDBRANCH   1  17
TORSDOF 6
ENDMDL
MODEL 8
REMARK VINA RESULT:     -10.3      4.625     11.096
REMARK  Name = 3152
REMARK  6 active torsions:
REMARK  status: ('A' for Active; 'I' for Inactive)
REMARK    1  A    between atoms: C_1  and  C_3
REMARK    2  A    between atoms: C_1  and  C_17
REMARK    3  A    between atoms: C_10  and  O_12
REMARK    4  A    between atoms: C_11  and  O_14
REMARK    5  A    between atoms: N_16  and  C_23
REMARK    6  A    between atoms: C_23  and  C_24
REMARK                            x       y       z     vdW  Elec       q    Type
REMARK                         _______ _______ _______ _____ _____    ______ ____
ROOT
ATOM      1  C   UNL     1      33.249 -13.249 -23.464  0.00  0.00    +0.008 C 
ENDROOT
BRANCH   1   3
ATOM      2  O   UNL     1      34.968 -10.914 -24.312  0.00  0.00    -0.291 OA
ATOM      3  C   UNL     1      33.593 -12.034 -22.623  0.00  0.00    +0.066 C 
ATOM      4  C   UNL     1      32.372 -11.477 -21.857  0.00  0.00    +0.034 C 
ATOM      5  C   UNL     1      34.069 -10.882 -23.490  0.00  0.00    +0.173 C 
ATOM      6  C   UNL     1      32.324 -10.033 -22.247  0.00  0.00    -0.016 C 
ATOM      7  C   UNL     1      33.286  -9.694 -23.189  0.00  0.00    +0.034 C 
ATOM      8  C   UNL     1      31.440  -9.068 -21.790  0.00  0.00    +0.036 C 
ATOM      9  C   UNL     1      33.418  -8.419 -23.707  0.00  0.00    +0.043 C 
ATOM     10  C   UNL     1      31.550  -7.768 -22.293  0.00  0.00    +0.172 C 
ATOM     11  C   UNL     1      32.531  -7.446 -23.246  0.00  0.00    +0.172 C 
BRANCH  10  12
ATOM     12  O   UNL     1      30.687  -6.810 -21.849  0.00  0.00    -0.468 OA
ATOM     13  C   UNL     1      31.220  -5.808 -20.986  0.00  0.00    +0.253 C 
ENDBRANCH  10  12
BRANCH  11  14
ATOM     14  O   UNL     1      32.626  -6.175 -23.731  0.00  0.00    -0.468 OA
ATOM     15  C   UNL     1      33.936  -5.633 -23.874  0.00  0.00    +0.253 C 
ENDBRANCH  11  14
ENDBRANCH   1   3
BRANCH   1  17
ATOM     16  N   UNL     1      34.933 -17.113 -22.522  0.00  0.00    +0.390 N 
ATOM     17  C   UNL     1      34.280 -14.359 -23.288  0.00  0.00    -0.004 C 
ATOM     18  C   UNL     1      34.361 -14.810 -21.825  0.00  0.00    -0.023 C 
ATOM     19  C   UNL     1      33.954 -15.561 -24.181  0.00  0.00    -0.023 C 
ATOM     20  C   UNL     1      35.320 -15.991 -21.659  0.00  0.00    -0.077 C 
ATOM     21  C   UNL     1      34.927 -16.717 -23.937  0.00  0.00    -0.077 C 
ATOM     22  H   UNL     1      33.984 -17.393 -22.271  0.00  0.00    -0.079 HD
BRANCH  16  23
ATOM     23  C   UNL     1      35.826 -18.252 -22.314  0.00  0.00    -0.050 C 
BRANCH  23  24
ATOM     24  C   UNL     1      35.295 -19.201 -21.274  0.00  0.00    -0.043 C 
ATOM     25  C   UNL     1      36.180 -19.855 -20.428  0.00  0.00    -0.006 C 
ATOM     26  C   UNL     1      33.925 -19.410 -21.175  0.00  0.00    -0.006 C 
ATOM     27  C   UNL     1      35.687 -20.733 -19.464  0.00  0.00    -0.000 C 
ATOM     28  C   UNL     1      33.432 -20.289 -20.210  0.00  0.00    -0.000 C 
ATOM     29  C   UNL     1      34.313 -20.950 -19.355  0.00  0.00    -0.000 C 
ENDBRANCH  23  24
ENDBRANCH  16  23
ENDBRANCH   1  17
TORSDOF 6
ENDMDL
MODEL 9
REMARK VINA RESULT:     -10.2      4.236     10.591
REMARK  Name = 3152
REMARK  6 active torsions:
REMARK  status: ('A' for Active; 'I' for Inactive)
REMARK    1  A    between atoms: C_1  and  C_3
REMARK    2  A    between atoms: C_1  and  C_17
REMARK    3  A    between atoms: C_10  and  O_12
REMARK    4  A    between atoms: C_11  and  O_14
REMARK    5  A    between atoms: N_16  and  C_23
REMARK    6  A    between atoms: C_23  and  C_24
REMARK                            x       y       z     vdW  Elec       q    Type
REMARK                         _______ _______ _______ _____ _____    ______ ____
ROOT
ATOM      1  C   UNL     1      34.359 -13.471 -21.314  0.00  0.00    +0.008 C 
ENDROOT
BRANCH   1   3
ATOM      2  O   UNL     1      31.633 -12.403 -20.569  0.00  0.00    -0.291 OA
ATOM      3  C   UNL     1      33.384 -12.771 -22.241  0.00  0.00    +0.066 C 
ATOM      4  C   UNL     1      34.074 -11.731 -23.152  0.00  0.00    +0.034 C 
ATOM      5  C   UNL     1      32.351 -11.980 -21.458  0.00  0.00    +0.173 C 
ATOM      6  C   UNL     1      33.307 -10.469 -22.912  0.00  0.00    -0.016 C 
ATOM      7  C   UNL     1      32.329 -10.607 -21.936  0.00  0.00    +0.034 C 
ATOM      8  C   UNL     1      33.491  -9.242 -23.532  0.00  0.00    +0.036 C 
ATOM      9  C   UNL     1      31.508  -9.568 -21.538  0.00  0.00    +0.043 C 
ATOM     10  C   UNL     1      32.674  -8.172 -23.153  0.00  0.00    +0.172 C 
ATOM     11  C   UNL     1      31.691  -8.333 -22.162  0.00  0.00    +0.172 C 
BRANCH  10  12
ATOM     12  O   UNL     1      32.846  -6.961 -23.756  0.00  0.00    -0.468 OA
ATOM     13  C   UNL     1      33.862  -6.113 -23.226  0.00  0.00    +0.253 C 
ENDBRANCH  10  12
BRANCH  11  14
ATOM     14  O   UNL     1      30.903  -7.281 -21.800  0.00  0.00    -0.468 OA
ATOM     15  C   UNL     1      31.344  -6.493 -20.696  0.00  0.00    +0.253 C 
ENDBRANCH  11  14
ENDBRANCH   1   3
BRANCH   1  17
ATOM     16  N   UNL     1      35.795 -17.509 -21.850  0.00  0.00    +0.390 N 
ATOM     17  C   UNL     1      34.344 -14.981 -21.526  0.00  0.00    -0.004 C 
ATOM     18  C   UNL     1      35.055 -15.361 -22.830  0.00  0.00    -0.023 C 
ATOM     19  C   UNL     1      35.000 -15.710 -20.349  0.00  0.00    -0.023 C 
ATOM     20  C   UNL     1      35.132 -16.880 -23.000  0.00  0.00    -0.077 C 
ATOM     21  C   UNL     1      35.079 -17.218 -20.600  0.00  0.00    -0.077 C 
ATOM     22  H   UNL     1      36.734 -17.116 -21.773  0.00  0.00    -0.079 HD
BRANCH  16  23
ATOM     23  C   UNL     1      35.908 -18.953 -22.050  0.00  0.00    -0.050 C 
BRANCH  23  24
ATOM     24  C   UNL     1      35.134 -19.726 -21.015  0.00  0.00    -0.043 C 
ATOM     25  C   UNL     1      33.748 -19.691 -21.032  0.00  0.00    -0.006 C 
ATOM     26  C   UNL     1      35.820 -20.464 -20.060  0.00  0.00    -0.006 C 
ATOM     27  C   UNL     1      33.031 -20.407 -20.073  0.00  0.00    -0.000 C 
ATOM     28  C   UNL     1      35.103 -21.181 -19.101  0.00  0.00    -0.000 C 
ATOM     29  C   UNL     1      33.709 -21.153 -19.108  0.00  0.00    -0.000 C 
ENDBRANCH  23  24
ENDBRANCH  16  23
ENDBRANCH   1  17
TORSDOF 6
ENDMDL
