MODEL 1
REMARK VINA RESULT:     -11.6      0.000      0.000
REMARK  Name = 24995524
REMARK  4 active torsions:
REMARK  status: ('A' for Active; 'I' for Inactive)
REMARK    1  A    between atoms: N_5  and  C_13
REMARK    2  A    between atoms: C_6  and  C_19
REMARK    3  A    between atoms: C_19  and  C_20
REMARK    4  A    between atoms: C_20  and  N_22
REMARK                            x       y       z     vdW  Elec       q    Type
REMARK                         _______ _______ _______ _____ _____    ______ ____
ROOT
ATOM      1  S   UNL     1      36.452 -20.464 -19.461  0.00  0.00    -0.056 S 
ATOM      2  O   UNL     1      35.196 -23.209 -15.899  0.00  0.00    -0.252 OA
ATOM      3  N   UNL     1      34.449 -21.679 -18.371  0.00  0.00    -0.223 NA
ATOM      4  N   UNL     1      36.588 -21.928 -17.292  0.00  0.00    -0.248 N 
ATOM      5  N   UNL     1      37.477 -23.009 -15.422  0.00  0.00    -0.268 N 
ATOM      6  C   UNL     1      34.915 -20.306 -20.206  0.00  0.00    +0.031 C 
ATOM      7  C   UNL     1      33.977 -21.018 -19.488  0.00  0.00    +0.103 C 
ATOM      8  C   UNL     1      35.740 -21.459 -18.258  0.00  0.00    +0.166 C 
ATOM      9  C   UNL     1      36.309 -22.768 -16.165  0.00  0.00    +0.310 C 
ATOM     10  H   UNL     1      37.527 -21.648 -17.385  0.00  0.00    +0.158 HD
ATOM     11  H   UNL     1      38.299 -22.586 -15.761  0.00  0.00    +0.156 HD
ENDROOT
BRANCH   5  13
ATOM     12 CL   UNL     1      36.421 -23.617 -10.434  0.00  0.00    -0.082 Cl
ATOM     13  C   UNL     1      37.616 -23.786 -14.248  0.00  0.00    +0.052 C 
ATOM     14  C   UNL     1      37.018 -23.367 -13.060  0.00  0.00    +0.026 C 
ATOM     15  C   UNL     1      38.353 -24.970 -14.279  0.00  0.00    +0.015 C 
ATOM     16  C   UNL     1      37.158 -24.134 -11.902  0.00  0.00    +0.059 C 
ATOM     17  C   UNL     1      38.492 -25.736 -13.122  0.00  0.00    +0.002 C 
ATOM     18  C   UNL     1      37.894 -25.317 -11.934  0.00  0.00    +0.011 C 
ENDBRANCH   5  13
BRANCH   6  19
ATOM     19  C   UNL     1      34.750 -19.480 -21.458  0.00  0.00    +0.056 C 
BRANCH  19  20
ATOM     20  C   UNL     1      35.929 -18.543 -21.718  0.00  0.00    +0.093 C 
BRANCH  20  22
ATOM     21  S   UNL     1      34.572 -14.120 -22.083  0.00  0.00    -0.101 S 
ATOM     22  N   UNL     1      35.483 -17.194 -21.893  0.00  0.00    -0.320 N 
ATOM     23  N   UNL     1      34.532 -17.632 -24.029  0.00  0.00    -0.233 NA
ATOM     24  N   UNL     1      33.426 -15.917 -25.332  0.00  0.00    -0.247 NA
ATOM     25  C   UNL     1      34.794 -16.756 -23.039  0.00  0.00    +0.118 C 
ATOM     26  C   UNL     1      34.378 -15.436 -23.169  0.00  0.00    +0.145 C 
ATOM     27  C   UNL     1      33.699 -15.047 -24.323  0.00  0.00    +0.073 C 
ATOM     28  C   UNL     1      33.347 -13.664 -24.293  0.00  0.00    +0.022 C 
ATOM     29  C   UNL     1      33.761 -13.045 -23.135  0.00  0.00    +0.033 C 
ATOM     30  C   UNL     1      33.871 -17.164 -25.104  0.00  0.00    +0.251 C 
ATOM     31  H   UNL     1      35.668 -16.542 -21.178  0.00  0.00    +0.148 HD
ENDBRANCH  20  22
ENDBRANCH  19  20
ENDBRANCH   6  19
TORSDOF 4
ENDMDL
MODEL 2
REMARK VINA RESULT:     -11.5      1.211      1.712
REMARK  Name = 24995524
REMARK  4 active torsions:
REMARK  status: ('A' for Active; 'I' for Inactive)
REMARK    1  A    between atoms: N_5  and  C_13
REMARK    2  A    between atoms: C_6  and  C_19
REMARK    3  A    between atoms: C_19  and  C_20
REMARK    4  A    between atoms: C_20  and  N_22
REMARK                            x       y       z     vdW  Elec       q    Type
REMARK                         _______ _______ _______ _____ _____    ______ ____
ROOT
ATOM      1  S   UNL     1      36.460 -20.544 -19.506  0.00  0.00    -0.056 S 
ATOM      2  O   UNL     1      35.241 -23.191 -15.859  0.00  0.00    -0.252 OA
ATOM      3  N   UNL     1      34.469 -21.735 -18.367  0.00  0.00    -0.223 NA
ATOM      4  N   UNL     1      36.618 -21.945 -17.297  0.00  0.00    -0.248 N 
ATOM      5  N   UNL     1      37.525 -22.970 -15.405  0.00  0.00    -0.268 N 
ATOM      6  C   UNL     1      34.917 -20.413 -20.244  0.00  0.00    +0.031 C 
ATOM      7  C   UNL     1      33.987 -21.107 -19.499  0.00  0.00    +0.103 C 
ATOM      8  C   UNL     1      35.761 -21.507 -18.270  0.00  0.00    +0.166 C 
ATOM      9  C   UNL     1      36.350 -22.754 -16.146  0.00  0.00    +0.310 C 
ATOM     10  H   UNL     1      37.555 -21.664 -17.406  0.00  0.00    +0.158 HD
ATOM     11  H   UNL     1      38.342 -22.553 -15.762  0.00  0.00    +0.156 HD
ENDROOT
BRANCH   5  13
ATOM     12 CL   UNL     1      36.516 -23.435 -10.392  0.00  0.00    -0.082 Cl
ATOM     13  C   UNL     1      37.676 -23.712 -14.210  0.00  0.00    +0.052 C 
ATOM     14  C   UNL     1      37.089 -23.260 -13.029  0.00  0.00    +0.026 C 
ATOM     15  C   UNL     1      38.413 -24.897 -14.215  0.00  0.00    +0.015 C 
ATOM     16  C   UNL     1      37.240 -23.993 -11.851  0.00  0.00    +0.059 C 
ATOM     17  C   UNL     1      38.564 -25.629 -13.037  0.00  0.00    +0.002 C 
ATOM     18  C   UNL     1      37.977 -25.177 -11.856  0.00  0.00    +0.011 C 
ENDBRANCH   5  13
BRANCH   6  19
ATOM     19  C   UNL     1      34.739 -19.622 -21.518  0.00  0.00    +0.056 C 
BRANCH  19  20
ATOM     20  C   UNL     1      35.585 -18.350 -21.556  0.00  0.00    +0.093 C 
BRANCH  20  22
ATOM     21  S   UNL     1      34.007 -15.566 -24.918  0.00  0.00    -0.101 S 
ATOM     22  N   UNL     1      35.095 -17.440 -22.547  0.00  0.00    -0.320 N 
ATOM     23  N   UNL     1      34.976 -15.617 -21.022  0.00  0.00    -0.233 NA
ATOM     24  N   UNL     1      34.216 -13.418 -21.687  0.00  0.00    -0.247 NA
ATOM     25  C   UNL     1      34.799 -16.092 -22.271  0.00  0.00    +0.118 C 
ATOM     26  C   UNL     1      34.325 -15.241 -23.263  0.00  0.00    +0.145 C 
ATOM     27  C   UNL     1      34.043 -13.913 -22.943  0.00  0.00    +0.073 C 
ATOM     28  C   UNL     1      33.568 -13.182 -24.072  0.00  0.00    +0.022 C 
ATOM     29  C   UNL     1      33.501 -13.960 -25.206  0.00  0.00    +0.033 C 
ATOM     30  C   UNL     1      34.677 -14.323 -20.809  0.00  0.00    +0.251 C 
ATOM     31  H   UNL     1      34.960 -17.772 -23.464  0.00  0.00    +0.148 HD
ENDBRANCH  20  22
ENDBRANCH  19  20
ENDBRANCH   6  19
TORSDOF 4
ENDMDL
MODEL 3
REMARK VINA RESULT:     -11.4      4.818     11.457
REMARK  Name = 24995524
REMARK  4 active torsions:
REMARK  status: ('A' for Active; 'I' for Inactive)
REMARK    1  A    between atoms: N_5  and  C_13
REMARK    2  A    between atoms: C_6  and  C_19
REMARK    3  A    between atoms: C_19  and  C_20
REMARK    4  A    between atoms: C_20  and  N_22
REMARK                            x       y       z     vdW  Elec       q    Type
REMARK                         _______ _______ _______ _____ _____    ______ ____
ROOT
ATOM      1  S   UNL     1      33.575 -23.489 -16.104  0.00  0.00    -0.056 S 
ATOM      2  O   UNL     1      32.601 -20.488 -19.545  0.00  0.00    -0.252 OA
ATOM      3  N   UNL     1      31.656 -22.226 -17.289  0.00  0.00    -0.223 NA
ATOM      4  N   UNL     1      33.884 -21.852 -18.127  0.00  0.00    -0.248 N 
ATOM      5  N   UNL     1      34.922 -20.606 -19.808  0.00  0.00    -0.268 N 
ATOM      6  C   UNL     1      31.977 -23.735 -15.530  0.00  0.00    +0.031 C 
ATOM      7  C   UNL     1      31.096 -22.985 -16.280  0.00  0.00    +0.103 C 
ATOM      8  C   UNL     1      32.957 -22.413 -17.290  0.00  0.00    +0.166 C 
ATOM      9  C   UNL     1      33.694 -20.928 -19.206  0.00  0.00    +0.310 C 
ATOM     10  H   UNL     1      34.816 -22.122 -17.963  0.00  0.00    +0.158 HD
ATOM     11  H   UNL     1      35.717 -21.041 -19.423  0.00  0.00    +0.156 HD
ENDROOT
BRANCH   5  13
ATOM     12 CL   UNL     1      33.391 -18.801 -24.364  0.00  0.00    -0.082 Cl
ATOM     13  C   UNL     1      35.155 -19.735 -20.897  0.00  0.00    +0.052 C 
ATOM     14  C   UNL     1      34.261 -19.701 -21.968  0.00  0.00    +0.026 C 
ATOM     15  C   UNL     1      36.279 -18.908 -20.900  0.00  0.00    +0.015 C 
ATOM     16  C   UNL     1      34.494 -18.842 -23.042  0.00  0.00    +0.059 C 
ATOM     17  C   UNL     1      36.511 -18.050 -21.974  0.00  0.00    +0.002 C 
ATOM     18  C   UNL     1      35.617 -18.017 -23.045  0.00  0.00    +0.011 C 
ENDBRANCH   5  13
BRANCH   6  19
ATOM     19  C   UNL     1      31.712 -24.663 -14.370  0.00  0.00    +0.056 C 
BRANCH  19  20
ATOM     20  C   UNL     1      32.640 -24.416 -13.181  0.00  0.00    +0.093 C 
BRANCH  20  22
ATOM     21  S   UNL     1      36.909 -25.805 -14.359  0.00  0.00    -0.101 S 
ATOM     22  N   UNL     1      33.979 -24.824 -13.483  0.00  0.00    -0.320 N 
ATOM     23  N   UNL     1      34.823 -24.117 -11.374  0.00  0.00    -0.233 NA
ATOM     24  N   UNL     1      37.155 -24.350 -10.766  0.00  0.00    -0.247 NA
ATOM     25  C   UNL     1      35.049 -24.671 -12.581  0.00  0.00    +0.118 C 
ATOM     26  C   UNL     1      36.335 -25.080 -12.913  0.00  0.00    +0.145 C 
ATOM     27  C   UNL     1      37.365 -24.907 -11.989  0.00  0.00    +0.073 C 
ATOM     28  C   UNL     1      38.615 -25.379 -12.489  0.00  0.00    +0.022 C 
ATOM     29  C   UNL     1      38.507 -25.890 -13.763  0.00  0.00    +0.033 C 
ATOM     30  C   UNL     1      35.879 -23.992 -10.548  0.00  0.00    +0.251 C 
ATOM     31  H   UNL     1      34.160 -25.229 -14.362  0.00  0.00    +0.148 HD
ENDBRANCH  20  22
ENDBRANCH  19  20
ENDBRANCH   6  19
TORSDOF 4
ENDMDL
MODEL 4
REMARK VINA RESULT:     -11.3      3.784      4.667
REMARK  Name = 24995524
REMARK  4 active torsions:
REMARK  status: ('A' for Active; 'I' for Inactive)
REMARK    1  A    between atoms: N_5  and  C_13
REMARK    2  A    between atoms: C_6  and  C_19
REMARK    3  A    between atoms: C_19  and  C_20
REMARK    4  A    between atoms: C_20  and  N_22
REMARK                            x       y       z     vdW  Elec       q    Type
REMARK                         _______ _______ _______ _____ _____    ______ ____
ROOT
ATOM      1  S   UNL     1      33.754 -20.036 -20.376  0.00  0.00    -0.056 S 
ATOM      2  O   UNL     1      33.493 -22.974 -16.756  0.00  0.00    -0.252 OA
ATOM      3  N   UNL     1      35.157 -21.501 -18.773  0.00  0.00    -0.223 NA
ATOM      4  N   UNL     1      32.770 -21.511 -18.446  0.00  0.00    -0.248 N 
ATOM      5  N   UNL     1      31.216 -22.512 -17.019  0.00  0.00    -0.268 N 
ATOM      6  C   UNL     1      35.457 -20.050 -20.584  0.00  0.00    +0.031 C 
ATOM      7  C   UNL     1      36.031 -20.882 -19.645  0.00  0.00    +0.103 C 
ATOM      8  C   UNL     1      33.930 -21.129 -19.064  0.00  0.00    +0.166 C 
ATOM      9  C   UNL     1      32.579 -22.398 -17.337  0.00  0.00    +0.310 C 
ATOM     10  H   UNL     1      31.947 -21.117 -18.816  0.00  0.00    +0.158 HD
ATOM     11  H   UNL     1      30.597 -21.987 -17.577  0.00  0.00    +0.156 HD
ENDROOT
BRANCH   5  13
ATOM     12 CL   UNL     1      31.797 -25.221 -12.696  0.00  0.00    -0.082 Cl
ATOM     13  C   UNL     1      30.623 -23.287 -15.995  0.00  0.00    +0.052 C 
ATOM     14  C   UNL     1      31.411 -23.809 -14.970  0.00  0.00    +0.026 C 
ATOM     15  C   UNL     1      29.248 -23.529 -16.011  0.00  0.00    +0.015 C 
ATOM     16  C   UNL     1      30.824 -24.575 -13.961  0.00  0.00    +0.059 C 
ATOM     17  C   UNL     1      28.663 -24.294 -15.003  0.00  0.00    +0.002 C 
ATOM     18  C   UNL     1      29.451 -24.816 -13.978  0.00  0.00    +0.011 C 
ENDBRANCH   5  13
BRANCH   6  19
ATOM     19  C   UNL     1      36.104 -19.230 -21.673  0.00  0.00    +0.056 C 
BRANCH  19  20
ATOM     20  C   UNL     1      36.125 -17.734 -21.365  0.00  0.00    +0.093 C 
BRANCH  20  22
ATOM     21  S   UNL     1      34.197 -15.468 -24.927  0.00  0.00    -0.101 S 
ATOM     22  N   UNL     1      35.513 -16.984 -22.420  0.00  0.00    -0.320 N 
ATOM     23  N   UNL     1      34.871 -15.204 -20.978  0.00  0.00    -0.233 NA
ATOM     24  N   UNL     1      33.679 -13.255 -21.776  0.00  0.00    -0.247 NA
ATOM     25  C   UNL     1      34.897 -15.736 -22.216  0.00  0.00    +0.118 C 
ATOM     26  C   UNL     1      34.314 -15.040 -23.269  0.00  0.00    +0.145 C 
ATOM     27  C   UNL     1      33.713 -13.806 -23.020  0.00  0.00    +0.073 C 
ATOM     28  C   UNL     1      33.166 -13.230 -24.205  0.00  0.00    +0.022 C 
ATOM     29  C   UNL     1      33.360 -14.029 -25.310  0.00  0.00    +0.033 C 
ATOM     30  C   UNL     1      34.270 -14.008 -20.835  0.00  0.00    +0.251 C 
ATOM     31  H   UNL     1      35.523 -17.361 -23.330  0.00  0.00    +0.148 HD
ENDBRANCH  20  22
ENDBRANCH  19  20
ENDBRANCH   6  19
TORSDOF 4
ENDMDL
MODEL 5
REMARK VINA RESULT:     -11.1      1.800      2.373
REMARK  Name = 24995524
REMARK  4 active torsions:
REMARK  status: ('A' for Active; 'I' for Inactive)
REMARK    1  A    between atoms: N_5  and  C_13
REMARK    2  A    between atoms: C_6  and  C_19
REMARK    3  A    between atoms: C_19  and  C_20
REMARK    4  A    between atoms: C_20  and  N_22
REMARK                            x       y       z     vdW  Elec       q    Type
REMARK                         _______ _______ _______ _____ _____    ______ ____
ROOT
ATOM      1  S   UNL     1      34.235 -21.072 -19.536  0.00  0.00    -0.056 S 
ATOM      2  O   UNL     1      37.341 -22.086 -16.201  0.00  0.00    -0.252 OA
ATOM      3  N   UNL     1      36.654 -20.637 -18.737  0.00  0.00    -0.223 NA
ATOM      4  N   UNL     1      35.309 -22.104 -17.380  0.00  0.00    -0.248 N 
ATOM      5  N   UNL     1      35.535 -23.350 -15.418  0.00  0.00    -0.268 N 
ATOM      6  C   UNL     1      35.218 -20.031 -20.481  0.00  0.00    +0.031 C 
ATOM      7  C   UNL     1      36.465 -19.921 -19.903  0.00  0.00    +0.103 C 
ATOM      8  C   UNL     1      35.546 -21.281 -18.448  0.00  0.00    +0.166 C 
ATOM      9  C   UNL     1      36.184 -22.480 -16.309  0.00  0.00    +0.310 C 
ATOM     10  H   UNL     1      34.406 -22.495 -17.342  0.00  0.00    +0.158 HD
ATOM     11  H   UNL     1      34.603 -23.577 -15.638  0.00  0.00    +0.156 HD
ENDROOT
BRANCH   5  13
ATOM     12 CL   UNL     1      39.419 -25.784 -13.103  0.00  0.00    -0.082 Cl
ATOM     13  C   UNL     1      36.057 -23.940 -14.243  0.00  0.00    +0.052 C 
ATOM     14  C   UNL     1      37.332 -24.504 -14.252  0.00  0.00    +0.026 C 
ATOM     15  C   UNL     1      35.295 -23.956 -13.074  0.00  0.00    +0.015 C 
ATOM     16  C   UNL     1      37.844 -25.086 -13.092  0.00  0.00    +0.059 C 
ATOM     17  C   UNL     1      35.807 -24.538 -11.915  0.00  0.00    +0.002 C 
ATOM     18  C   UNL     1      37.082 -25.103 -11.924  0.00  0.00    +0.011 C 
ENDBRANCH   5  13
BRANCH   6  19
ATOM     19  C   UNL     1      34.676 -19.396 -21.739  0.00  0.00    +0.056 C 
BRANCH  19  20
ATOM     20  C   UNL     1      35.727 -18.594 -22.505  0.00  0.00    +0.093 C 
BRANCH  20  22
ATOM     21  S   UNL     1      33.743 -15.333 -25.146  0.00  0.00    -0.101 S 
ATOM     22  N   UNL     1      35.116 -17.545 -23.266  0.00  0.00    -0.320 N 
ATOM     23  N   UNL     1      35.122 -16.020 -21.440  0.00  0.00    -0.233 NA
ATOM     24  N   UNL     1      34.251 -13.770 -21.626  0.00  0.00    -0.247 NA
ATOM     25  C   UNL     1      34.823 -16.278 -22.728  0.00  0.00    +0.118 C 
ATOM     26  C   UNL     1      34.229 -15.287 -23.501  0.00  0.00    +0.145 C 
ATOM     27  C   UNL     1      33.956 -14.047 -22.925  0.00  0.00    +0.073 C 
ATOM     28  C   UNL     1      33.348 -13.150 -23.854  0.00  0.00    +0.022 C 
ATOM     29  C   UNL     1      33.177 -13.722 -25.094  0.00  0.00    +0.033 C 
ATOM     30  C   UNL     1      34.821 -14.795 -20.972  0.00  0.00    +0.251 C 
ATOM     31  H   UNL     1      34.890 -17.719 -24.209  0.00  0.00    +0.148 HD
ENDBRANCH  20  22
ENDBRANCH  19  20
ENDBRANCH   6  19
TORSDOF 4
ENDMDL
MODEL 6
REMARK VINA RESULT:     -11.1      3.475      4.010
REMARK  Name = 24995524
REMARK  4 active torsions:
REMARK  status: ('A' for Active; 'I' for Inactive)
REMARK    1  A    between atoms: N_5  and  C_13
REMARK    2  A    between atoms: C_6  and  C_19
REMARK    3  A    between atoms: C_19  and  C_20
REMARK    4  A    between atoms: C_20  and  N_22
REMARK                            x       y       z     vdW  Elec       q    Type
REMARK                         _______ _______ _______ _____ _____    ______ ____
ROOT
ATOM      1  S   UNL     1      33.067 -20.119 -20.520  0.00  0.00    -0.056 S 
ATOM      2  O   UNL     1      34.080 -22.813 -16.844  0.00  0.00    -0.252 OA
ATOM      3  N   UNL     1      35.005 -21.230 -19.219  0.00  0.00    -0.223 NA
ATOM      4  N   UNL     1      32.778 -21.600 -18.378  0.00  0.00    -0.248 N 
ATOM      5  N   UNL     1      31.753 -22.741 -16.616  0.00  0.00    -0.268 N 
ATOM      6  C   UNL     1      34.665 -19.874 -21.095  0.00  0.00    +0.031 C 
ATOM      7  C   UNL     1      35.557 -20.538 -20.280  0.00  0.00    +0.103 C 
ATOM      8  C   UNL     1      33.699 -21.079 -19.246  0.00  0.00    +0.166 C 
ATOM      9  C   UNL     1      32.979 -22.431 -17.228  0.00  0.00    +0.310 C 
ATOM     10  H   UNL     1      31.840 -21.369 -18.571  0.00  0.00    +0.158 HD
ATOM     11  H   UNL     1      30.950 -22.360 -17.042  0.00  0.00    +0.156 HD
ENDROOT
BRANCH   5  13
ATOM     12 CL   UNL     1      28.579 -25.758 -13.935  0.00  0.00    -0.082 Cl
ATOM     13  C   UNL     1      31.530 -23.531 -15.465  0.00  0.00    +0.052 C 
ATOM     14  C   UNL     1      30.308 -24.179 -15.290  0.00  0.00    +0.026 C 
ATOM     15  C   UNL     1      32.533 -23.662 -14.504  0.00  0.00    +0.015 C 
ATOM     16  C   UNL     1      30.089 -24.958 -14.152  0.00  0.00    +0.059 C 
ATOM     17  C   UNL     1      32.314 -24.440 -13.368  0.00  0.00    +0.002 C 
ATOM     18  C   UNL     1      31.092 -25.088 -13.193  0.00  0.00    +0.011 C 
ENDBRANCH   5  13
BRANCH   6  19
ATOM     19  C   UNL     1      34.918 -19.035 -22.324  0.00  0.00    +0.056 C 
BRANCH  19  20
ATOM     20  C   UNL     1      35.964 -17.944 -22.099  0.00  0.00    +0.093 C 
BRANCH  20  22
ATOM     21  S   UNL     1      33.996 -13.827 -21.254  0.00  0.00    -0.101 S 
ATOM     22  N   UNL     1      35.342 -16.669 -21.905  0.00  0.00    -0.320 N 
ATOM     23  N   UNL     1      34.779 -16.433 -24.205  0.00  0.00    -0.233 NA
ATOM     24  N   UNL     1      33.612 -14.493 -25.062  0.00  0.00    -0.247 NA
ATOM     25  C   UNL     1      34.760 -15.933 -22.954  0.00  0.00    +0.118 C 
ATOM     26  C   UNL     1      34.165 -14.698 -22.723  0.00  0.00    +0.145 C 
ATOM     27  C   UNL     1      33.601 -14.003 -23.793  0.00  0.00    +0.073 C 
ATOM     28  C   UNL     1      33.036 -12.759 -23.383  0.00  0.00    +0.022 C 
ATOM     29  C   UNL     1      33.182 -12.541 -22.031  0.00  0.00    +0.033 C 
ATOM     30  C   UNL     1      34.210 -15.691 -25.173  0.00  0.00    +0.251 C 
ATOM     31  H   UNL     1      35.320 -16.290 -20.997  0.00  0.00    +0.148 HD
ENDBRANCH  20  22
ENDBRANCH  19  20
ENDBRANCH   6  19
TORSDOF 4
ENDMDL
MODEL 7
REMARK VINA RESULT:     -11.0      1.238      1.514
REMARK  Name = 24995524
REMARK  4 active torsions:
REMARK  status: ('A' for Active; 'I' for Inactive)
REMARK    1  A    between atoms: N_5  and  C_13
REMARK    2  A    between atoms: C_6  and  C_19
REMARK    3  A    between atoms: C_19  and  C_20
REMARK    4  A    between atoms: C_20  and  N_22
REMARK                            x       y       z     vdW  Elec       q    Type
REMARK                         _______ _______ _______ _____ _____    ______ ____
ROOT
ATOM      1  S   UNL     1      36.495 -20.162 -19.891  0.00  0.00    -0.056 S 
ATOM      2  O   UNL     1      34.889 -22.835 -16.415  0.00  0.00    -0.252 OA
ATOM      3  N   UNL     1      34.384 -21.327 -18.960  0.00  0.00    -0.223 NA
ATOM      4  N   UNL     1      36.419 -21.598 -17.699  0.00  0.00    -0.248 N 
ATOM      5  N   UNL     1      37.125 -22.669 -15.748  0.00  0.00    -0.268 N 
ATOM      6  C   UNL     1      35.030 -19.988 -20.766  0.00  0.00    +0.031 C 
ATOM      7  C   UNL     1      34.021 -20.673 -20.121  0.00  0.00    +0.103 C 
ATOM      8  C   UNL     1      35.664 -21.128 -18.740  0.00  0.00    +0.166 C 
ATOM      9  C   UNL     1      36.029 -22.418 -16.591  0.00  0.00    +0.310 C 
ATOM     10  H   UNL     1      37.367 -21.336 -17.716  0.00  0.00    +0.158 HD
ATOM     11  H   UNL     1      37.980 -22.265 -16.020  0.00  0.00    +0.156 HD
ENDROOT
BRANCH   5  13
ATOM     12 CL   UNL     1      37.200 -27.295 -13.520  0.00  0.00    -0.082 Cl
ATOM     13  C   UNL     1      37.149 -23.431 -14.556  0.00  0.00    +0.052 C 
ATOM     14  C   UNL     1      37.162 -24.824 -14.619  0.00  0.00    +0.026 C 
ATOM     15  C   UNL     1      37.161 -22.788 -13.318  0.00  0.00    +0.015 C 
ATOM     16  C   UNL     1      37.185 -25.574 -13.443  0.00  0.00    +0.059 C 
ATOM     17  C   UNL     1      37.184 -23.538 -12.143  0.00  0.00    +0.002 C 
ATOM     18  C   UNL     1      37.197 -24.932 -12.206  0.00  0.00    +0.011 C 
ENDBRANCH   5  13
BRANCH   6  19
ATOM     19  C   UNL     1      34.988 -19.176 -22.037  0.00  0.00    +0.056 C 
BRANCH  19  20
ATOM     20  C   UNL     1      36.029 -18.058 -22.070  0.00  0.00    +0.093 C 
BRANCH  20  22
ATOM     21  S   UNL     1      34.084 -13.923 -21.262  0.00  0.00    -0.101 S 
ATOM     22  N   UNL     1      35.413 -16.778 -21.888  0.00  0.00    -0.320 N 
ATOM     23  N   UNL     1      34.830 -16.571 -24.185  0.00  0.00    -0.233 NA
ATOM     24  N   UNL     1      33.664 -14.638 -25.057  0.00  0.00    -0.247 NA
ATOM     25  C   UNL     1      34.824 -16.054 -22.941  0.00  0.00    +0.118 C 
ATOM     26  C   UNL     1      34.236 -14.814 -22.721  0.00  0.00    +0.145 C 
ATOM     27  C   UNL     1      33.666 -14.131 -23.795  0.00  0.00    +0.073 C 
ATOM     28  C   UNL     1      33.109 -12.879 -23.395  0.00  0.00    +0.022 C 
ATOM     29  C   UNL     1      33.268 -12.644 -22.048  0.00  0.00    +0.033 C 
ATOM     30  C   UNL     1      34.256 -15.839 -25.158  0.00  0.00    +0.251 C 
ATOM     31  H   UNL     1      35.401 -16.387 -20.984  0.00  0.00    +0.148 HD
ENDBRANCH  20  22
ENDBRANCH  19  20
ENDBRANCH   6  19
TORSDOF 4
ENDMDL
MODEL 8
REMARK VINA RESULT:     -10.9      4.632      7.788
REMARK  Name = 24995524
REMARK  4 active torsions:
REMARK  status: ('A' for Active; 'I' for Inactive)
REMARK    1  A    between atoms: N_5  and  C_13
REMARK    2  A    between atoms: C_6  and  C_19
REMARK    3  A    between atoms: C_19  and  C_20
REMARK    4  A    between atoms: C_20  and  N_22
REMARK                            x       y       z     vdW  Elec       q    Type
REMARK                         _______ _______ _______ _____ _____    ______ ____
ROOT
ATOM      1  S   UNL     1      33.933 -15.161 -24.485  0.00  0.00    -0.056 S 
ATOM      2  O   UNL     1      35.261 -16.813 -20.325  0.00  0.00    -0.252 OA
ATOM      3  N   UNL     1      34.686 -14.471 -22.111  0.00  0.00    -0.223 NA
ATOM      4  N   UNL     1      34.548 -16.833 -22.563  0.00  0.00    -0.248 N 
ATOM      5  N   UNL     1      34.915 -18.844 -21.432  0.00  0.00    -0.268 N 
ATOM      6  C   UNL     1      34.040 -13.486 -24.132  0.00  0.00    +0.031 C 
ATOM      7  C   UNL     1      34.455 -13.313 -22.828  0.00  0.00    +0.103 C 
ATOM      8  C   UNL     1      34.442 -15.507 -22.883  0.00  0.00    +0.166 C 
ATOM      9  C   UNL     1      34.943 -17.443 -21.328  0.00  0.00    +0.310 C 
ATOM     10  H   UNL     1      34.319 -17.460 -23.287  0.00  0.00    +0.158 HD
ATOM     11  H   UNL     1      34.638 -19.205 -22.305  0.00  0.00    +0.156 HD
ENDROOT
BRANCH   5  13
ATOM     12 CL   UNL     1      33.296 -22.444 -18.150  0.00  0.00    -0.082 Cl
ATOM     13  C   UNL     1      35.235 -19.797 -20.438  0.00  0.00    +0.052 C 
ATOM     14  C   UNL     1      34.225 -20.561 -19.854  0.00  0.00    +0.026 C 
ATOM     15  C   UNL     1      36.561 -19.973 -20.041  0.00  0.00    +0.015 C 
ATOM     16  C   UNL     1      34.542 -21.501 -18.872  0.00  0.00    +0.059 C 
ATOM     17  C   UNL     1      36.877 -20.911 -19.060  0.00  0.00    +0.002 C 
ATOM     18  C   UNL     1      35.868 -21.676 -18.476  0.00  0.00    +0.011 C 
ENDBRANCH   5  13
BRANCH   6  19
ATOM     19  C   UNL     1      33.704 -12.457 -25.184  0.00  0.00    +0.056 C 
BRANCH  19  20
ATOM     20  C   UNL     1      33.731 -11.025 -24.651  0.00  0.00    +0.093 C 
BRANCH  20  22
ATOM     21  S   UNL     1      31.376 -10.920 -20.653  0.00  0.00    -0.101 S 
ATOM     22  N   UNL     1      33.026 -10.928 -23.407  0.00  0.00    -0.320 N 
ATOM     23  N   UNL     1      33.763  -8.703 -22.998  0.00  0.00    -0.233 NA
ATOM     24  N   UNL     1      33.121  -7.468 -21.018  0.00  0.00    -0.247 NA
ATOM     25  C   UNL     1      33.051  -9.776 -22.600  0.00  0.00    +0.118 C 
ATOM     26  C   UNL     1      32.353  -9.722 -21.400  0.00  0.00    +0.145 C 
ATOM     27  C   UNL     1      32.406  -8.559 -20.632  0.00  0.00    +0.073 C 
ATOM     28  C   UNL     1      31.637  -8.675 -19.435  0.00  0.00    +0.022 C 
ATOM     29  C   UNL     1      31.027  -9.904 -19.324  0.00  0.00    +0.033 C 
ATOM     30  C   UNL     1      33.755  -7.626 -22.191  0.00  0.00    +0.251 C 
ATOM     31  H   UNL     1      32.502 -11.704 -23.103  0.00  0.00    +0.148 HD
ENDBRANCH  20  22
ENDBRANCH  19  20
ENDBRANCH   6  19
TORSDOF 4
ENDMDL
MODEL 9
REMARK VINA RESULT:     -10.7      4.764     11.832
REMARK  Name = 24995524
REMARK  4 active torsions:
REMARK  status: ('A' for Active; 'I' for Inactive)
REMARK    1  A    between atoms: N_5  and  C_13
REMARK    2  A    between atoms: C_6  and  C_19
REMARK    3  A    between atoms: C_19  and  C_20
REMARK    4  A    between atoms: C_20  and  N_22
REMARK                            x       y       z     vdW  Elec       q    Type
REMARK                         _______ _______ _______ _____ _____    ______ ____
ROOT
ATOM      1  S   UNL     1      34.491 -19.424 -20.676  0.00  0.00    -0.056 S 
ATOM      2  O   UNL     1      36.052 -15.618 -22.884  0.00  0.00    -0.252 OA
ATOM      3  N   UNL     1      36.622 -18.097 -21.292  0.00  0.00    -0.223 NA
ATOM      4  N   UNL     1      34.522 -17.196 -22.055  0.00  0.00    -0.248 N 
ATOM      5  N   UNL     1      33.761 -15.353 -23.271  0.00  0.00    -0.268 N 
ATOM      6  C   UNL     1      36.002 -20.041 -20.147  0.00  0.00    +0.031 C 
ATOM      7  C   UNL     1      37.016 -19.205 -20.566  0.00  0.00    +0.103 C 
ATOM      8  C   UNL     1      35.313 -18.110 -21.412  0.00  0.00    +0.166 C 
ATOM      9  C   UNL     1      34.895 -16.004 -22.758  0.00  0.00    +0.310 C 
ATOM     10  H   UNL     1      33.556 -17.386 -22.032  0.00  0.00    +0.158 HD
ATOM     11  H   UNL     1      32.895 -15.785 -23.087  0.00  0.00    +0.156 HD
ENDROOT
BRANCH   5  13
ATOM     12 CL   UNL     1      34.091 -10.229 -23.341  0.00  0.00    -0.082 Cl
ATOM     13  C   UNL     1      33.710 -14.154 -24.019  0.00  0.00    +0.052 C 
ATOM     14  C   UNL     1      33.904 -12.927 -23.384  0.00  0.00    +0.026 C 
ATOM     15  C   UNL     1      33.465 -14.198 -25.392  0.00  0.00    +0.015 C 
ATOM     16  C   UNL     1      33.853 -11.744 -24.124  0.00  0.00    +0.059 C 
ATOM     17  C   UNL     1      33.414 -13.017 -26.130  0.00  0.00    +0.002 C 
ATOM     18  C   UNL     1      33.608 -11.790 -25.496  0.00  0.00    +0.011 C 
ENDBRANCH   5  13
BRANCH   6  19
ATOM     19  C   UNL     1      36.072 -21.318 -19.346  0.00  0.00    +0.056 C 
BRANCH  19  20
ATOM     20  C   UNL     1      34.700 -21.824 -18.903  0.00  0.00    +0.093 C 
BRANCH  20  22
ATOM     21  S   UNL     1      35.130 -23.682 -14.672  0.00  0.00    -0.101 S 
ATOM     22  N   UNL     1      34.764 -22.399 -17.593  0.00  0.00    -0.320 N 
ATOM     23  N   UNL     1      32.398 -22.497 -17.364  0.00  0.00    -0.233 NA
ATOM     24  N   UNL     1      31.323 -23.367 -15.377  0.00  0.00    -0.247 NA
ATOM     25  C   UNL     1      33.619 -22.728 -16.843  0.00  0.00    +0.118 C 
ATOM     26  C   UNL     1      33.725 -23.285 -15.575  0.00  0.00    +0.145 C 
ATOM     27  C   UNL     1      32.563 -23.593 -14.867  0.00  0.00    +0.073 C 
ATOM     28  C   UNL     1      32.852 -24.155 -13.588  0.00  0.00    +0.022 C 
ATOM     29  C   UNL     1      34.205 -24.258 -13.357  0.00  0.00    +0.033 C 
ATOM     30  C   UNL     1      31.335 -22.828 -16.607  0.00  0.00    +0.251 C 
ATOM     31  H   UNL     1      35.650 -22.573 -17.199  0.00  0.00    +0.148 HD
ENDBRANCH  20  22
ENDBRANCH  19  20
ENDBRANCH   6  19
TORSDOF 4
ENDMDL
