MODEL 1
REMARK VINA RESULT:     -12.2      0.000      0.000
REMARK  Name = 44123754
REMARK  11 active torsions:
REMARK  status: ('A' for Active; 'I' for Inactive)
REMARK    1  A    between atoms: C_3  and  C_22
REMARK    2  A    between atoms: C_4  and  C_7
REMARK    3  A    between atoms: N_6  and  C_15
REMARK    4  A    between atoms: C_8  and  N_12
REMARK    5  A    between atoms: C_15  and  O_16
REMARK    6  A    between atoms: O_16  and  P_17
REMARK    7  A    between atoms: P_17  and  O_20
REMARK    8  A    between atoms: C_22  and  C_23
REMARK    9  A    between atoms: C_26  and  C_29
REMARK   10  A    between atoms: C_29  and  O_30
REMARK   11  A    between atoms: O_30  and  C_32
REMARK                            x       y       z     vdW  Elec       q    Type
REMARK                         _______ _______ _______ _____ _____    ______ ____
ROOT
ATOM      1  O   UNL     1      35.136 -16.173 -20.895  0.00  0.00    -0.354 OA
ATOM      2  N   UNL     1      35.726 -17.193 -20.159  0.00  0.00    -0.081 NA
ATOM      3  C   UNL     1      36.071 -18.116 -21.061  0.00  0.00    +0.105 C 
ATOM      4  C   UNL     1      35.142 -16.508 -22.211  0.00  0.00    +0.175 C 
ATOM      5  C   UNL     1      35.727 -17.736 -22.371  0.00  0.00    +0.058 C 
ENDROOT
BRANCH   4   7
ATOM      6  N   UNL     1      33.637 -13.404 -23.539  0.00  0.00    -0.266 N 
ATOM      7  C   UNL     1      34.557 -15.537 -23.106  0.00  0.00    +0.048 C 
ATOM      8  C   UNL     1      34.175 -14.275 -22.674  0.00  0.00    +0.156 C 
ATOM      9  C   UNL     1      34.369 -15.874 -24.443  0.00  0.00    +0.003 C 
ATOM     10  C   UNL     1      33.444 -13.702 -24.831  0.00  0.00    +0.064 C 
ATOM     11  C   UNL     1      33.806 -14.949 -25.318  0.00  0.00    +0.016 C 
BRANCH   8  12
ATOM     12  N   UNL     1      34.349 -13.894 -21.326  0.00  0.00    -0.303 NA
ATOM     13  H   UNL     1      34.675 -14.549 -20.668  0.00  0.00    +0.121 HD
ATOM     14  H   UNL     1      34.144 -12.973 -21.045  0.00  0.00    +0.121 HD
ENDBRANCH   8  12
BRANCH   6  15
ATOM     15  C   UNL     1      33.234 -12.072 -23.083  0.00  0.00    +0.251 C 
BRANCH  15  16
ATOM     16  O   UNL     1      32.063 -12.198 -22.289  0.00  0.00    -0.250 OA
BRANCH  16  17
ATOM     17  P   UNL     1      31.832 -11.174 -21.036  0.00  0.00    +0.504 P 
ATOM     18  O   UNL     1      32.304  -9.787 -21.416  0.00  0.00    -0.225 OA
ATOM     19  O   UNL     1      32.338 -11.838 -19.774  0.00  0.00    -0.116 OA
BRANCH  17  20
ATOM     20  O   UNL     1      30.199 -11.172 -20.990  0.00  0.00    -0.301 OA
ATOM     21  H   UNL     1      29.864 -12.012 -21.343  0.00  0.00    +0.222 HD
ENDBRANCH  17  20
ENDBRANCH  16  17
ENDBRANCH  15  16
ENDBRANCH   6  15
ENDBRANCH   4   7
BRANCH   3  22
ATOM     22  C   UNL     1      36.734 -19.356 -20.628  0.00  0.00    +0.075 C 
BRANCH  22  23
ATOM     23  C   UNL     1      35.849 -20.299 -19.822  0.00  0.00    -0.016 C 
ATOM     24  C   UNL     1      36.413 -21.118 -18.843  0.00  0.00    -0.004 C 
ATOM     25  C   UNL     1      34.476 -20.344 -20.063  0.00  0.00    -0.004 C 
ATOM     26  C   UNL     1      34.230 -22.026 -18.346  0.00  0.00    +0.021 C 
ATOM     27  C   UNL     1      35.603 -21.981 -18.105  0.00  0.00    -0.001 C 
ATOM     28  C   UNL     1      33.666 -21.208 -19.325  0.00  0.00    -0.001 C 
BRANCH  26  29
ATOM     29  C   UNL     1      33.364 -22.947 -17.556  0.00  0.00    +0.234 C 
BRANCH  29  30
ATOM     30  O   UNL     1      32.037 -22.436 -17.522  0.00  0.00    -0.455 OA
BRANCH  30  32
ATOM     31  N   UNL     1      29.950 -22.568 -16.517  0.00  0.00    -0.210 NA
ATOM     32  C   UNL     1      31.287 -22.739 -16.416  0.00  0.00    +0.225 C 
ATOM     33  C   UNL     1      31.926 -23.198 -15.276  0.00  0.00    +0.058 C 
ATOM     34  C   UNL     1      31.143 -23.500 -14.167  0.00  0.00    +0.006 C 
ATOM     35  C   UNL     1      29.221 -22.873 -15.420  0.00  0.00    +0.102 C 
ATOM     36  C   UNL     1      29.763 -23.338 -14.233  0.00  0.00    +0.021 C 
ENDBRANCH  30  32
ENDBRANCH  29  30
ENDBRANCH  26  29
ENDBRANCH  22  23
ENDBRANCH   3  22
TORSDOF 11
ENDMDL
MODEL 2
REMARK VINA RESULT:     -12.1      5.694     12.147
REMARK  Name = 44123754
REMARK  11 active torsions:
REMARK  status: ('A' for Active; 'I' for Inactive)
REMARK    1  A    between atoms: C_3  and  C_22
REMARK    2  A    between atoms: C_4  and  C_7
REMARK    3  A    between atoms: N_6  and  C_15
REMARK    4  A    between atoms: C_8  and  N_12
REMARK    5  A    between atoms: C_15  and  O_16
REMARK    6  A    between atoms: O_16  and  P_17
REMARK    7  A    between atoms: P_17  and  O_20
REMARK    8  A    between atoms: C_22  and  C_23
REMARK    9  A    between atoms: C_26  and  C_29
REMARK   10  A    between atoms: C_29  and  O_30
REMARK   11  A    between atoms: O_30  and  C_32
REMARK                            x       y       z     vdW  Elec       q    Type
REMARK                         _______ _______ _______ _____ _____    ______ ____
ROOT
ATOM      1  O   UNL     1      33.331 -23.470 -14.644  0.00  0.00    -0.354 OA
ATOM      2  N   UNL     1      32.576 -23.179 -15.775  0.00  0.00    -0.081 NA
ATOM      3  C   UNL     1      33.453 -23.165 -16.782  0.00  0.00    +0.105 C 
ATOM      4  C   UNL     1      34.632 -23.621 -15.001  0.00  0.00    +0.175 C 
ATOM      5  C   UNL     1      34.764 -23.437 -16.352  0.00  0.00    +0.058 C 
ENDROOT
BRANCH   4   7
ATOM      6  N   UNL     1      37.135 -25.338 -12.892  0.00  0.00    -0.266 N 
ATOM      7  C   UNL     1      35.544 -23.929 -13.924  0.00  0.00    +0.048 C 
ATOM      8  C   UNL     1      36.301 -25.092 -13.911  0.00  0.00    +0.156 C 
ATOM      9  C   UNL     1      35.671 -23.035 -12.866  0.00  0.00    +0.003 C 
ATOM     10  C   UNL     1      37.276 -24.495 -11.861  0.00  0.00    +0.064 C 
ATOM     11  C   UNL     1      36.545 -23.317 -11.820  0.00  0.00    +0.016 C 
BRANCH   8  12
ATOM     12  N   UNL     1      36.202 -26.025 -14.966  0.00  0.00    -0.303 NA
ATOM     13  H   UNL     1      35.540 -26.753 -14.919  0.00  0.00    +0.121 HD
ATOM     14  H   UNL     1      36.795 -25.948 -15.747  0.00  0.00    +0.121 HD
ENDBRANCH   8  12
BRANCH   6  15
ATOM     15  C   UNL     1      37.934 -26.566 -12.879  0.00  0.00    +0.251 C 
BRANCH  15  16
ATOM     16  O   UNL     1      38.726 -26.605 -14.058  0.00  0.00    -0.250 OA
BRANCH  16  17
ATOM     17  P   UNL     1      40.217 -25.938 -14.043  0.00  0.00    +0.504 P 
ATOM     18  O   UNL     1      41.198 -26.894 -13.398  0.00  0.00    -0.225 OA
ATOM     19  O   UNL     1      40.099 -24.512 -13.551  0.00  0.00    -0.116 OA
BRANCH  17  20
ATOM     20  O   UNL     1      40.510 -25.898 -15.649  0.00  0.00    -0.301 OA
ATOM     21  H   UNL     1      39.785 -26.339 -16.121  0.00  0.00    +0.222 HD
ENDBRANCH  17  20
ENDBRANCH  16  17
ENDBRANCH  15  16
ENDBRANCH   6  15
ENDBRANCH   4   7
BRANCH   3  22
ATOM     22  C   UNL     1      32.994 -22.884 -18.152  0.00  0.00    +0.075 C 
BRANCH  22  23
ATOM     23  C   UNL     1      33.781 -21.798 -18.875  0.00  0.00    -0.016 C 
ATOM     24  C   UNL     1      35.176 -21.806 -18.837  0.00  0.00    -0.004 C 
ATOM     25  C   UNL     1      33.108 -20.796 -19.574  0.00  0.00    -0.004 C 
ATOM     26  C   UNL     1      35.223 -19.810 -20.198  0.00  0.00    +0.021 C 
ATOM     27  C   UNL     1      35.896 -20.812 -19.498  0.00  0.00    -0.001 C 
ATOM     28  C   UNL     1      33.828 -19.802 -20.235  0.00  0.00    -0.001 C 
BRANCH  26  29
ATOM     29  C   UNL     1      35.994 -18.749 -20.907  0.00  0.00    +0.234 C 
BRANCH  29  30
ATOM     30  O   UNL     1      35.753 -17.493 -20.284  0.00  0.00    -0.455 OA
BRANCH  30  32
ATOM     31  N   UNL     1      35.442 -16.667 -22.430  0.00  0.00    -0.210 NA
ATOM     32  C   UNL     1      35.341 -16.469 -21.096  0.00  0.00    +0.225 C 
ATOM     33  C   UNL     1      34.850 -15.310 -20.519  0.00  0.00    +0.058 C 
ATOM     34  C   UNL     1      34.436 -14.286 -21.365  0.00  0.00    +0.006 C 
ATOM     35  C   UNL     1      35.030 -15.651 -23.221  0.00  0.00    +0.102 C 
ATOM     36  C   UNL     1      34.524 -14.452 -22.743  0.00  0.00    +0.021 C 
ENDBRANCH  30  32
ENDBRANCH  29  30
ENDBRANCH  26  29
ENDBRANCH  22  23
ENDBRANCH   3  22
TORSDOF 11
ENDMDL
MODEL 3
REMARK VINA RESULT:     -12.1      3.577     10.501
REMARK  Name = 44123754
REMARK  11 active torsions:
REMARK  status: ('A' for Active; 'I' for Inactive)
REMARK    1  A    between atoms: C_3  and  C_22
REMARK    2  A    between atoms: C_4  and  C_7
REMARK    3  A    between atoms: N_6  and  C_15
REMARK    4  A    between atoms: C_8  and  N_12
REMARK    5  A    between atoms: C_15  and  O_16
REMARK    6  A    between atoms: O_16  and  P_17
REMARK    7  A    between atoms: P_17  and  O_20
REMARK    8  A    between atoms: C_22  and  C_23
REMARK    9  A    between atoms: C_26  and  C_29
REMARK   10  A    between atoms: C_29  and  O_30
REMARK   11  A    between atoms: O_30  and  C_32
REMARK                            x       y       z     vdW  Elec       q    Type
REMARK                         _______ _______ _______ _____ _____    ______ ____
ROOT
ATOM      1  O   UNL     1      33.850 -23.210 -17.901  0.00  0.00    -0.354 OA
ATOM      2  N   UNL     1      34.694 -22.676 -18.868  0.00  0.00    -0.081 NA
ATOM      3  C   UNL     1      35.633 -22.019 -18.181  0.00  0.00    +0.105 C 
ATOM      4  C   UNL     1      34.302 -22.861 -16.669  0.00  0.00    +0.175 C 
ATOM      5  C   UNL     1      35.435 -22.102 -16.792  0.00  0.00    +0.058 C 
ENDROOT
BRANCH   4   7
ATOM      6  N   UNL     1      31.461 -23.632 -14.433  0.00  0.00    -0.266 N 
ATOM      7  C   UNL     1      33.521 -23.348 -15.556  0.00  0.00    +0.048 C 
ATOM      8  C   UNL     1      32.147 -23.164 -15.484  0.00  0.00    +0.156 C 
ATOM      9  C   UNL     1      34.161 -24.023 -14.521  0.00  0.00    +0.003 C 
ATOM     10  C   UNL     1      32.052 -24.285 -13.424  0.00  0.00    +0.064 C 
ATOM     11  C   UNL     1      33.423 -24.498 -13.441  0.00  0.00    +0.016 C 
BRANCH   8  12
ATOM     12  N   UNL     1      31.459 -22.484 -16.513  0.00  0.00    -0.303 NA
ATOM     13  H   UNL     1      30.593 -22.825 -16.834  0.00  0.00    +0.121 HD
ATOM     14  H   UNL     1      31.847 -21.671 -16.909  0.00  0.00    +0.121 HD
ENDBRANCH   8  12
BRANCH   6  15
ATOM     15  C   UNL     1      30.011 -23.438 -14.359  0.00  0.00    +0.251 C 
BRANCH  15  16
ATOM     16  O   UNL     1      29.403 -24.135 -15.437  0.00  0.00    -0.250 OA
BRANCH  16  17
ATOM     17  P   UNL     1      28.151 -23.447 -16.230  0.00  0.00    +0.504 P 
ATOM     18  O   UNL     1      27.482 -24.472 -17.119  0.00  0.00    -0.225 OA
ATOM     19  O   UNL     1      28.614 -22.123 -16.799  0.00  0.00    -0.116 OA
BRANCH  17  20
ATOM     20  O   UNL     1      27.169 -23.138 -14.962  0.00  0.00    -0.301 OA
ATOM     21  H   UNL     1      27.686 -23.147 -14.142  0.00  0.00    +0.222 HD
ENDBRANCH  17  20
ENDBRANCH  16  17
ENDBRANCH  15  16
ENDBRANCH   6  15
ENDBRANCH   4   7
BRANCH   3  22
ATOM     22  C   UNL     1      36.711 -21.318 -18.898  0.00  0.00    +0.075 C 
BRANCH  22  23
ATOM     23  C   UNL     1      36.233 -20.271 -19.896  0.00  0.00    -0.016 C 
ATOM     24  C   UNL     1      37.129 -19.327 -20.398  0.00  0.00    -0.004 C 
ATOM     25  C   UNL     1      34.901 -20.258 -20.309  0.00  0.00    -0.004 C 
ATOM     26  C   UNL     1      35.359 -18.355 -21.725  0.00  0.00    +0.021 C 
ATOM     27  C   UNL     1      36.692 -18.368 -21.312  0.00  0.00    -0.001 C 
ATOM     28  C   UNL     1      34.464 -19.300 -21.223  0.00  0.00    -0.001 C 
BRANCH  26  29
ATOM     29  C   UNL     1      34.893 -17.332 -22.704  0.00  0.00    +0.234 C 
BRANCH  29  30
ATOM     30  O   UNL     1      35.452 -16.068 -22.369  0.00  0.00    -0.455 OA
BRANCH  30  32
ATOM     31  N   UNL     1      33.959 -14.543 -23.281  0.00  0.00    -0.210 NA
ATOM     32  C   UNL     1      34.572 -15.035 -22.180  0.00  0.00    +0.225 C 
ATOM     33  C   UNL     1      34.360 -14.559 -20.896  0.00  0.00    +0.058 C 
ATOM     34  C   UNL     1      33.461 -13.511 -20.730  0.00  0.00    +0.006 C 
ATOM     35  C   UNL     1      33.091 -13.526 -23.080  0.00  0.00    +0.102 C 
ATOM     36  C   UNL     1      32.810 -12.979 -21.838  0.00  0.00    +0.021 C 
ENDBRANCH  30  32
ENDBRANCH  29  30
ENDBRANCH  26  29
ENDBRANCH  22  23
ENDBRANCH   3  22
TORSDOF 11
ENDMDL
MODEL 4
REMARK VINA RESULT:     -12.0      5.835     12.166
REMARK  Name = 44123754
REMARK  11 active torsions:
REMARK  status: ('A' for Active; 'I' for Inactive)
REMARK    1  A    between atoms: C_3  and  C_22
REMARK    2  A    between atoms: C_4  and  C_7
REMARK    3  A    between atoms: N_6  and  C_15
REMARK    4  A    between atoms: C_8  and  N_12
REMARK    5  A    between atoms: C_15  and  O_16
REMARK    6  A    between atoms: O_16  and  P_17
REMARK    7  A    between atoms: P_17  and  O_20
REMARK    8  A    between atoms: C_22  and  C_23
REMARK    9  A    between atoms: C_26  and  C_29
REMARK   10  A    between atoms: C_29  and  O_30
REMARK   11  A    between atoms: O_30  and  C_32
REMARK                            x       y       z     vdW  Elec       q    Type
REMARK                         _______ _______ _______ _____ _____    ______ ____
ROOT
ATOM      1  O   UNL     1      36.345 -22.430 -16.086  0.00  0.00    -0.354 OA
ATOM      2  N   UNL     1      35.890 -21.948 -17.308  0.00  0.00    -0.081 NA
ATOM      3  C   UNL     1      34.643 -22.414 -17.420  0.00  0.00    +0.105 C 
ATOM      4  C   UNL     1      35.366 -23.167 -15.502  0.00  0.00    +0.175 C 
ATOM      5  C   UNL     1      34.261 -23.188 -16.310  0.00  0.00    +0.058 C 
ENDROOT
BRANCH   4   7
ATOM      6  N   UNL     1      37.254 -24.617 -12.674  0.00  0.00    -0.266 N 
ATOM      7  C   UNL     1      35.695 -23.736 -14.216  0.00  0.00    +0.048 C 
ATOM      8  C   UNL     1      36.993 -24.092 -13.879  0.00  0.00    +0.156 C 
ATOM      9  C   UNL     1      34.682 -23.936 -13.283  0.00  0.00    +0.003 C 
ATOM     10  C   UNL     1      36.298 -24.821 -11.758  0.00  0.00    +0.064 C 
ATOM     11  C   UNL     1      34.982 -24.484 -12.039  0.00  0.00    +0.016 C 
BRANCH   8  12
ATOM     12  N   UNL     1      38.049 -23.906 -14.797  0.00  0.00    -0.303 NA
ATOM     13  H   UNL     1      38.604 -24.672 -15.072  0.00  0.00    +0.121 HD
ATOM     14  H   UNL     1      38.231 -23.010 -15.161  0.00  0.00    +0.121 HD
ENDBRANCH   8  12
BRANCH   6  15
ATOM     15  C   UNL     1      38.625 -24.992 -12.320  0.00  0.00    +0.251 C 
BRANCH  15  16
ATOM     16  O   UNL     1      39.074 -25.986 -13.231  0.00  0.00    -0.250 OA
BRANCH  16  17
ATOM     17  P   UNL     1      40.550 -25.833 -13.916  0.00  0.00    +0.504 P 
ATOM     18  O   UNL     1      41.408 -27.026 -13.553  0.00  0.00    -0.225 OA
ATOM     19  O   UNL     1      41.049 -24.426 -13.671  0.00  0.00    -0.116 OA
BRANCH  17  20
ATOM     20  O   UNL     1      40.129 -25.956 -15.489  0.00  0.00    -0.301 OA
ATOM     21  H   UNL     1      39.570 -25.201 -15.734  0.00  0.00    +0.222 HD
ENDBRANCH  17  20
ENDBRANCH  16  17
ENDBRANCH  15  16
ENDBRANCH   6  15
ENDBRANCH   4   7
BRANCH   3  22
ATOM     22  C   UNL     1      33.844 -22.093 -18.614  0.00  0.00    +0.075 C 
BRANCH  22  23
ATOM     23  C   UNL     1      34.428 -20.994 -19.491  0.00  0.00    -0.016 C 
ATOM     24  C   UNL     1      35.807 -20.791 -19.530  0.00  0.00    -0.004 C 
ATOM     25  C   UNL     1      33.583 -20.189 -20.257  0.00  0.00    -0.004 C 
ATOM     26  C   UNL     1      35.497 -18.980 -21.099  0.00  0.00    +0.021 C 
ATOM     27  C   UNL     1      36.342 -19.785 -20.334  0.00  0.00    -0.001 C 
ATOM     28  C   UNL     1      34.118 -19.182 -21.060  0.00  0.00    -0.001 C 
BRANCH  26  29
ATOM     29  C   UNL     1      36.070 -17.906 -21.960  0.00  0.00    +0.234 C 
BRANCH  29  30
ATOM     30  O   UNL     1      35.406 -17.905 -23.218  0.00  0.00    -0.455 OA
BRANCH  30  32
ATOM     31  N   UNL     1      34.195 -16.722 -24.805  0.00  0.00    -0.210 NA
ATOM     32  C   UNL     1      34.817 -16.730 -23.604  0.00  0.00    +0.225 C 
ATOM     33  C   UNL     1      34.885 -15.634 -22.759  0.00  0.00    +0.058 C 
ATOM     34  C   UNL     1      34.278 -14.454 -23.173  0.00  0.00    +0.006 C 
ATOM     35  C   UNL     1      33.615 -15.557 -25.173  0.00  0.00    +0.102 C 
ATOM     36  C   UNL     1      33.628 -14.406 -24.401  0.00  0.00    +0.021 C 
ENDBRANCH  30  32
ENDBRANCH  29  30
ENDBRANCH  26  29
ENDBRANCH  22  23
ENDBRANCH   3  22
TORSDOF 11
ENDMDL
MODEL 5
REMARK VINA RESULT:     -11.7      1.928      2.576
REMARK  Name = 44123754
REMARK  11 active torsions:
REMARK  status: ('A' for Active; 'I' for Inactive)
REMARK    1  A    between atoms: C_3  and  C_22
REMARK    2  A    between atoms: C_4  and  C_7
REMARK    3  A    between atoms: N_6  and  C_15
REMARK    4  A    between atoms: C_8  and  N_12
REMARK    5  A    between atoms: C_15  and  O_16
REMARK    6  A    between atoms: O_16  and  P_17
REMARK    7  A    between atoms: P_17  and  O_20
REMARK    8  A    between atoms: C_22  and  C_23
REMARK    9  A    between atoms: C_26  and  C_29
REMARK   10  A    between atoms: C_29  and  O_30
REMARK   11  A    between atoms: O_30  and  C_32
REMARK                            x       y       z     vdW  Elec       q    Type
REMARK                         _______ _______ _______ _____ _____    ______ ____
ROOT
ATOM      1  O   UNL     1      34.934 -15.492 -20.392  0.00  0.00    -0.354 OA
ATOM      2  N   UNL     1      35.416 -16.777 -20.169  0.00  0.00    -0.081 NA
ATOM      3  C   UNL     1      35.395 -17.367 -21.367  0.00  0.00    +0.105 C 
ATOM      4  C   UNL     1      34.639 -15.347 -21.709  0.00  0.00    +0.175 C 
ATOM      5  C   UNL     1      34.914 -16.512 -22.375  0.00  0.00    +0.058 C 
ENDROOT
BRANCH   4   7
ATOM      6  N   UNL     1      32.741 -12.175 -21.721  0.00  0.00    -0.266 N 
ATOM      7  C   UNL     1      34.123 -14.054 -22.096  0.00  0.00    +0.048 C 
ATOM      8  C   UNL     1      33.192 -13.373 -21.325  0.00  0.00    +0.156 C 
ATOM      9  C   UNL     1      34.571 -13.471 -23.277  0.00  0.00    +0.003 C 
ATOM     10  C   UNL     1      33.156 -11.590 -22.853  0.00  0.00    +0.064 C 
ATOM     11  C   UNL     1      34.085 -12.225 -23.663  0.00  0.00    +0.016 C 
BRANCH   8  12
ATOM     12  N   UNL     1      32.712 -13.930 -20.120  0.00  0.00    -0.303 NA
ATOM     13  H   UNL     1      33.310 -14.471 -19.555  0.00  0.00    +0.121 HD
ATOM     14  H   UNL     1      31.779 -13.778 -19.846  0.00  0.00    +0.121 HD
ENDBRANCH   8  12
BRANCH   6  15
ATOM     15  C   UNL     1      31.759 -11.456 -20.906  0.00  0.00    +0.251 C 
BRANCH  15  16
ATOM     16  O   UNL     1      32.079 -10.072 -20.925  0.00  0.00    -0.250 OA
BRANCH  16  17
ATOM     17  P   UNL     1      31.865  -9.184 -19.570  0.00  0.00    +0.504 P 
ATOM     18  O   UNL     1      31.557  -7.749 -19.941  0.00  0.00    -0.225 OA
ATOM     19  O   UNL     1      32.987  -9.502 -18.606  0.00  0.00    -0.116 OA
BRANCH  17  20
ATOM     20  O   UNL     1      30.499  -9.879 -19.006  0.00  0.00    -0.301 OA
ATOM     21  H   UNL     1      30.041 -10.330 -19.733  0.00  0.00    +0.222 HD
ENDBRANCH  17  20
ENDBRANCH  16  17
ENDBRANCH  15  16
ENDBRANCH   6  15
ENDBRANCH   4   7
BRANCH   3  22
ATOM     22  C   UNL     1      35.847 -18.761 -21.507  0.00  0.00    +0.075 C 
BRANCH  22  23
ATOM     23  C   UNL     1      35.160 -19.747 -20.572  0.00  0.00    -0.016 C 
ATOM     24  C   UNL     1      33.768 -19.826 -20.541  0.00  0.00    -0.004 C 
ATOM     25  C   UNL     1      35.924 -20.573 -19.746  0.00  0.00    -0.004 C 
ATOM     26  C   UNL     1      33.902 -21.554 -18.859  0.00  0.00    +0.021 C 
ATOM     27  C   UNL     1      33.139 -20.728 -19.685  0.00  0.00    -0.001 C 
ATOM     28  C   UNL     1      35.294 -21.476 -18.889  0.00  0.00    -0.001 C 
BRANCH  26  29
ATOM     29  C   UNL     1      33.229 -22.522 -17.946  0.00  0.00    +0.234 C 
BRANCH  29  30
ATOM     30  O   UNL     1      34.212 -23.314 -17.289  0.00  0.00    -0.455 OA
BRANCH  30  32
ATOM     31  N   UNL     1      35.071 -24.048 -15.263  0.00  0.00    -0.210 NA
ATOM     32  C   UNL     1      34.019 -23.554 -15.954  0.00  0.00    +0.225 C 
ATOM     33  C   UNL     1      32.783 -23.279 -15.393  0.00  0.00    +0.058 C 
ATOM     34  C   UNL     1      32.613 -23.530 -14.036  0.00  0.00    +0.006 C 
ATOM     35  C   UNL     1      34.869 -24.278 -13.946  0.00  0.00    +0.102 C 
ATOM     36  C   UNL     1      33.672 -24.038 -13.291  0.00  0.00    +0.021 C 
ENDBRANCH  30  32
ENDBRANCH  29  30
ENDBRANCH  26  29
ENDBRANCH  22  23
ENDBRANCH   3  22
TORSDOF 11
ENDMDL
MODEL 6
REMARK VINA RESULT:     -11.6      4.655     11.612
REMARK  Name = 44123754
REMARK  11 active torsions:
REMARK  status: ('A' for Active; 'I' for Inactive)
REMARK    1  A    between atoms: C_3  and  C_22
REMARK    2  A    between atoms: C_4  and  C_7
REMARK    3  A    between atoms: N_6  and  C_15
REMARK    4  A    between atoms: C_8  and  N_12
REMARK    5  A    between atoms: C_15  and  O_16
REMARK    6  A    between atoms: O_16  and  P_17
REMARK    7  A    between atoms: P_17  and  O_20
REMARK    8  A    between atoms: C_22  and  C_23
REMARK    9  A    between atoms: C_26  and  C_29
REMARK   10  A    between atoms: C_29  and  O_30
REMARK   11  A    between atoms: O_30  and  C_32
REMARK                            x       y       z     vdW  Elec       q    Type
REMARK                         _______ _______ _______ _____ _____    ______ ____
ROOT
ATOM      1  O   UNL     1      34.031 -23.185 -17.890  0.00  0.00    -0.354 OA
ATOM      2  N   UNL     1      34.848 -22.654 -18.881  0.00  0.00    -0.081 NA
ATOM      3  C   UNL     1      35.750 -21.917 -18.227  0.00  0.00    +0.105 C 
ATOM      4  C   UNL     1      34.462 -22.755 -16.676  0.00  0.00    +0.175 C 
ATOM      5  C   UNL     1      35.554 -21.945 -16.835  0.00  0.00    +0.058 C 
ENDROOT
BRANCH   4   7
ATOM      6  N   UNL     1      33.581 -24.147 -13.367  0.00  0.00    -0.266 N 
ATOM      7  C   UNL     1      33.705 -23.229 -15.540  0.00  0.00    +0.048 C 
ATOM      8  C   UNL     1      34.322 -23.719 -14.398  0.00  0.00    +0.156 C 
ATOM      9  C   UNL     1      32.315 -23.195 -15.589  0.00  0.00    +0.003 C 
ATOM     10  C   UNL     1      32.242 -24.126 -13.388  0.00  0.00    +0.064 C 
ATOM     11  C   UNL     1      31.571 -23.647 -14.503  0.00  0.00    +0.016 C 
BRANCH   8  12
ATOM     12  N   UNL     1      35.730 -23.770 -14.308  0.00  0.00    -0.303 NA
ATOM     13  H   UNL     1      36.264 -24.032 -15.093  0.00  0.00    +0.121 HD
ATOM     14  H   UNL     1      36.177 -23.544 -13.461  0.00  0.00    +0.121 HD
ENDBRANCH   8  12
BRANCH   6  15
ATOM     15  C   UNL     1      34.233 -24.664 -12.161  0.00  0.00    +0.251 C 
BRANCH  15  16
ATOM     16  O   UNL     1      34.942 -23.602 -11.538  0.00  0.00    -0.250 OA
BRANCH  16  17
ATOM     17  P   UNL     1      36.131 -23.951 -10.473  0.00  0.00    +0.504 P 
ATOM     18  O   UNL     1      35.528 -24.440  -9.174  0.00  0.00    -0.225 OA
ATOM     19  O   UNL     1      37.127 -22.812 -10.475  0.00  0.00    -0.116 OA
BRANCH  17  20
ATOM     20  O   UNL     1      36.813 -25.222 -11.240  0.00  0.00    -0.301 OA
ATOM     21  H   UNL     1      36.421 -26.047 -10.911  0.00  0.00    +0.222 HD
ENDBRANCH  17  20
ENDBRANCH  16  17
ENDBRANCH  15  16
ENDBRANCH   6  15
ENDBRANCH   4   7
BRANCH   3  22
ATOM     22  C   UNL     1      36.792 -21.196 -18.977  0.00  0.00    +0.075 C 
BRANCH  22  23
ATOM     23  C   UNL     1      36.262 -20.182 -19.983  0.00  0.00    -0.016 C 
ATOM     24  C   UNL     1      37.119 -19.225 -20.525  0.00  0.00    -0.004 C 
ATOM     25  C   UNL     1      34.919 -20.211 -20.362  0.00  0.00    -0.004 C 
ATOM     26  C   UNL     1      35.292 -18.325 -21.825  0.00  0.00    +0.021 C 
ATOM     27  C   UNL     1      36.635 -18.296 -21.446  0.00  0.00    -0.001 C 
ATOM     28  C   UNL     1      34.435 -19.282 -21.282  0.00  0.00    -0.001 C 
BRANCH  26  29
ATOM     29  C   UNL     1      34.775 -17.334 -22.812  0.00  0.00    +0.234 C 
BRANCH  29  30
ATOM     30  O   UNL     1      35.198 -16.029 -22.436  0.00  0.00    -0.455 OA
BRANCH  30  32
ATOM     31  N   UNL     1      34.759 -13.752 -22.535  0.00  0.00    -0.210 NA
ATOM     32  C   UNL     1      34.605 -14.978 -23.086  0.00  0.00    +0.225 C 
ATOM     33  C   UNL     1      33.896 -15.221 -24.250  0.00  0.00    +0.058 C 
ATOM     34  C   UNL     1      33.306 -14.138 -24.892  0.00  0.00    +0.006 C 
ATOM     35  C   UNL     1      34.172 -12.723 -23.187  0.00  0.00    +0.102 C 
ATOM     36  C   UNL     1      33.442 -12.861 -24.356  0.00  0.00    +0.021 C 
ENDBRANCH  30  32
ENDBRANCH  29  30
ENDBRANCH  26  29
ENDBRANCH  22  23
ENDBRANCH   3  22
TORSDOF 11
ENDMDL
MODEL 7
REMARK VINA RESULT:     -11.6      3.003      4.418
REMARK  Name = 44123754
REMARK  11 active torsions:
REMARK  status: ('A' for Active; 'I' for Inactive)
REMARK    1  A    between atoms: C_3  and  C_22
REMARK    2  A    between atoms: C_4  and  C_7
REMARK    3  A    between atoms: N_6  and  C_15
REMARK    4  A    between atoms: C_8  and  N_12
REMARK    5  A    between atoms: C_15  and  O_16
REMARK    6  A    between atoms: O_16  and  P_17
REMARK    7  A    between atoms: P_17  and  O_20
REMARK    8  A    between atoms: C_22  and  C_23
REMARK    9  A    between atoms: C_26  and  C_29
REMARK   10  A    between atoms: C_29  and  O_30
REMARK   11  A    between atoms: O_30  and  C_32
REMARK                            x       y       z     vdW  Elec       q    Type
REMARK                         _______ _______ _______ _____ _____    ______ ____
ROOT
ATOM      1  O   UNL     1      33.072 -14.320 -23.741  0.00  0.00    -0.354 OA
ATOM      2  N   UNL     1      33.775 -15.420 -24.217  0.00  0.00    -0.081 NA
ATOM      3  C   UNL     1      34.681 -15.687 -23.273  0.00  0.00    +0.105 C 
ATOM      4  C   UNL     1      33.573 -13.957 -22.532  0.00  0.00    +0.175 C 
ATOM      5  C   UNL     1      34.600 -14.796 -22.188  0.00  0.00    +0.058 C 
ENDROOT
BRANCH   4   7
ATOM      6  N   UNL     1      32.410 -10.517 -21.840  0.00  0.00    -0.266 N 
ATOM      7  C   UNL     1      32.938 -12.819 -21.908  0.00  0.00    +0.048 C 
ATOM      8  C   UNL     1      33.015 -11.545 -22.451  0.00  0.00    +0.156 C 
ATOM      9  C   UNL     1      32.227 -13.003 -20.727  0.00  0.00    +0.003 C 
ATOM     10  C   UNL     1      31.720 -10.666 -20.701  0.00  0.00    +0.064 C 
ATOM     11  C   UNL     1      31.610 -11.917 -20.113  0.00  0.00    +0.016 C 
BRANCH   8  12
ATOM     12  N   UNL     1      33.726 -11.316 -23.649  0.00  0.00    -0.303 NA
ATOM     13  H   UNL     1      34.158 -10.445 -23.807  0.00  0.00    +0.121 HD
ATOM     14  H   UNL     1      33.791 -12.028 -24.326  0.00  0.00    +0.121 HD
ENDBRANCH   8  12
BRANCH   6  15
ATOM     15  C   UNL     1      32.491  -9.172 -22.414  0.00  0.00    +0.251 C 
BRANCH  15  16
ATOM     16  O   UNL     1      32.032  -8.237 -21.447  0.00  0.00    -0.250 OA
BRANCH  16  17
ATOM     17  P   UNL     1      33.027  -7.036 -20.962  0.00  0.00    +0.504 P 
ATOM     18  O   UNL     1      32.249  -5.744 -20.840  0.00  0.00    -0.225 OA
ATOM     19  O   UNL     1      34.291  -7.094 -21.792  0.00  0.00    -0.116 OA
BRANCH  17  20
ATOM     20  O   UNL     1      33.382  -7.572 -19.460  0.00  0.00    -0.301 OA
ATOM     21  H   UNL     1      34.220  -8.061 -19.481  0.00  0.00    +0.222 HD
ENDBRANCH  17  20
ENDBRANCH  16  17
ENDBRANCH  15  16
ENDBRANCH   6  15
ENDBRANCH   4   7
BRANCH   3  22
ATOM     22  C   UNL     1      35.616 -16.811 -23.448  0.00  0.00    +0.075 C 
BRANCH  22  23
ATOM     23  C   UNL     1      35.490 -17.908 -22.399  0.00  0.00    -0.016 C 
ATOM     24  C   UNL     1      36.520 -18.116 -21.481  0.00  0.00    -0.004 C 
ATOM     25  C   UNL     1      34.345 -18.705 -22.356  0.00  0.00    -0.004 C 
ATOM     26  C   UNL     1      35.261 -19.918 -20.478  0.00  0.00    +0.021 C 
ATOM     27  C   UNL     1      36.405 -19.121 -20.521  0.00  0.00    -0.001 C 
ATOM     28  C   UNL     1      34.231 -19.710 -21.396  0.00  0.00    -0.001 C 
BRANCH  26  29
ATOM     29  C   UNL     1      35.138 -20.990 -19.449  0.00  0.00    +0.234 C 
BRANCH  29  30
ATOM     30  O   UNL     1      36.282 -20.969 -18.605  0.00  0.00    -0.455 OA
BRANCH  30  32
ATOM     31  N   UNL     1      35.060 -22.372 -17.219  0.00  0.00    -0.210 NA
ATOM     32  C   UNL     1      36.202 -21.682 -17.438  0.00  0.00    +0.225 C 
ATOM     33  C   UNL     1      37.274 -21.659 -16.561  0.00  0.00    +0.058 C 
ATOM     34  C   UNL     1      37.169 -22.392 -15.384  0.00  0.00    +0.006 C 
ATOM     35  C   UNL     1      34.993 -23.073 -16.065  0.00  0.00    +0.102 C 
ATOM     36  C   UNL     1      36.010 -23.115 -15.124  0.00  0.00    +0.021 C 
ENDBRANCH  30  32
ENDBRANCH  29  30
ENDBRANCH  26  29
ENDBRANCH  22  23
ENDBRANCH   3  22
TORSDOF 11
ENDMDL
MODEL 8
REMARK VINA RESULT:     -11.6      2.264      3.206
REMARK  Name = 44123754
REMARK  11 active torsions:
REMARK  status: ('A' for Active; 'I' for Inactive)
REMARK    1  A    between atoms: C_3  and  C_22
REMARK    2  A    between atoms: C_4  and  C_7
REMARK    3  A    between atoms: N_6  and  C_15
REMARK    4  A    between atoms: C_8  and  N_12
REMARK    5  A    between atoms: C_15  and  O_16
REMARK    6  A    between atoms: O_16  and  P_17
REMARK    7  A    between atoms: P_17  and  O_20
REMARK    8  A    between atoms: C_22  and  C_23
REMARK    9  A    between atoms: C_26  and  C_29
REMARK   10  A    between atoms: C_29  and  O_30
REMARK   11  A    between atoms: O_30  and  C_32
REMARK                            x       y       z     vdW  Elec       q    Type
REMARK                         _______ _______ _______ _____ _____    ______ ____
ROOT
ATOM      1  O   UNL     1      34.227 -15.346 -23.155  0.00  0.00    -0.354 OA
ATOM      2  N   UNL     1      34.982 -16.511 -23.235  0.00  0.00    -0.081 NA
ATOM      3  C   UNL     1      35.413 -16.730 -21.990  0.00  0.00    +0.105 C 
ATOM      4  C   UNL     1      34.225 -14.901 -21.872  0.00  0.00    +0.175 C 
ATOM      5  C   UNL     1      34.966 -15.746 -21.090  0.00  0.00    +0.058 C 
ENDROOT
BRANCH   4   7
ATOM      6  N   UNL     1      32.898 -11.464 -22.177  0.00  0.00    -0.266 N 
ATOM      7  C   UNL     1      33.475 -13.690 -21.632  0.00  0.00    +0.048 C 
ATOM      8  C   UNL     1      33.614 -12.567 -22.435  0.00  0.00    +0.156 C 
ATOM      9  C   UNL     1      32.585 -13.643 -20.564  0.00  0.00    +0.003 C 
ATOM     10  C   UNL     1      32.035 -11.393 -21.155  0.00  0.00    +0.064 C 
ATOM     11  C   UNL     1      31.855 -12.484 -20.319  0.00  0.00    +0.016 C 
BRANCH   8  12
ATOM     12  N   UNL     1      34.507 -12.573 -23.529  0.00  0.00    -0.303 NA
ATOM     13  H   UNL     1      35.448 -12.829 -23.395  0.00  0.00    +0.121 HD
ATOM     14  H   UNL     1      34.187 -12.320 -24.425  0.00  0.00    +0.121 HD
ENDBRANCH   8  12
BRANCH   6  15
ATOM     15  C   UNL     1      33.045 -10.279 -23.026  0.00  0.00    +0.251 C 
BRANCH  15  16
ATOM     16  O   UNL     1      32.080  -9.315 -22.630  0.00  0.00    -0.250 OA
BRANCH  16  17
ATOM     17  P   UNL     1      32.569  -7.799 -22.262  0.00  0.00    +0.504 P 
ATOM     18  O   UNL     1      33.293  -7.194 -23.444  0.00  0.00    -0.225 OA
ATOM     19  O   UNL     1      33.217  -7.824 -20.895  0.00  0.00    -0.116 OA
BRANCH  17  20
ATOM     20  O   UNL     1      31.111  -7.075 -22.119  0.00  0.00    -0.301 OA
ATOM     21  H   UNL     1      31.192  -6.138 -22.355  0.00  0.00    +0.222 HD
ENDBRANCH  17  20
ENDBRANCH  16  17
ENDBRANCH  15  16
ENDBRANCH   6  15
ENDBRANCH   4   7
BRANCH   3  22
ATOM     22  C   UNL     1      36.257 -17.900 -21.700  0.00  0.00    +0.075 C 
BRANCH  22  23
ATOM     23  C   UNL     1      35.562 -19.004 -20.913  0.00  0.00    -0.016 C 
ATOM     24  C   UNL     1      34.179 -19.160 -21.004  0.00  0.00    -0.004 C 
ATOM     25  C   UNL     1      36.309 -19.860 -20.103  0.00  0.00    -0.004 C 
ATOM     26  C   UNL     1      34.289 -21.026 -19.474  0.00  0.00    +0.021 C 
ATOM     27  C   UNL     1      33.542 -20.170 -20.284  0.00  0.00    -0.001 C 
ATOM     28  C   UNL     1      35.672 -20.871 -19.384  0.00  0.00    -0.001 C 
BRANCH  26  29
ATOM     29  C   UNL     1      33.608 -22.109 -18.707  0.00  0.00    +0.234 C 
BRANCH  29  30
ATOM     30  O   UNL     1      34.549 -22.743 -17.849  0.00  0.00    -0.455 OA
BRANCH  30  32
ATOM     31  N   UNL     1      35.043 -23.433 -15.689  0.00  0.00    -0.210 NA
ATOM     32  C   UNL     1      34.104 -23.103 -16.604  0.00  0.00    +0.225 C 
ATOM     33  C   UNL     1      32.741 -23.107 -16.353  0.00  0.00    +0.058 C 
ATOM     34  C   UNL     1      32.315 -23.474 -15.081  0.00  0.00    +0.006 C 
ATOM     35  C   UNL     1      34.591 -23.784 -14.464  0.00  0.00    +0.102 C 
ATOM     36  C   UNL     1      33.251 -23.820 -14.113  0.00  0.00    +0.021 C 
ENDBRANCH  30  32
ENDBRANCH  29  30
ENDBRANCH  26  29
ENDBRANCH  22  23
ENDBRANCH   3  22
TORSDOF 11
ENDMDL
MODEL 9
REMARK VINA RESULT:     -11.5      4.460     11.139
REMARK  Name = 44123754
REMARK  11 active torsions:
REMARK  status: ('A' for Active; 'I' for Inactive)
REMARK    1  A    between atoms: C_3  and  C_22
REMARK    2  A    between atoms: C_4  and  C_7
REMARK    3  A    between atoms: N_6  and  C_15
REMARK    4  A    between atoms: C_8  and  N_12
REMARK    5  A    between atoms: C_15  and  O_16
REMARK    6  A    between atoms: O_16  and  P_17
REMARK    7  A    between atoms: P_17  and  O_20
REMARK    8  A    between atoms: C_22  and  C_23
REMARK    9  A    between atoms: C_26  and  C_29
REMARK   10  A    between atoms: C_29  and  O_30
REMARK   11  A    between atoms: O_30  and  C_32
REMARK                            x       y       z     vdW  Elec       q    Type
REMARK                         _______ _______ _______ _____ _____    ______ ____
ROOT
ATOM      1  O   UNL     1      36.470 -20.528 -18.786  0.00  0.00    -0.354 OA
ATOM      2  N   UNL     1      36.777 -19.748 -19.894  0.00  0.00    -0.081 NA
ATOM      3  C   UNL     1      35.710 -19.847 -20.692  0.00  0.00    +0.105 C 
ATOM      4  C   UNL     1      35.236 -21.071 -18.947  0.00  0.00    +0.175 C 
ATOM      5  C   UNL     1      34.709 -20.668 -20.145  0.00  0.00    +0.058 C 
ENDROOT
BRANCH   4   7
ATOM      6  N   UNL     1      35.123 -23.018 -15.807  0.00  0.00    -0.266 N 
ATOM      7  C   UNL     1      34.777 -21.913 -17.867  0.00  0.00    +0.048 C 
ATOM      8  C   UNL     1      35.589 -22.234 -16.788  0.00  0.00    +0.156 C 
ATOM      9  C   UNL     1      33.483 -22.421 -17.905  0.00  0.00    +0.003 C 
ATOM     10  C   UNL     1      33.881 -23.520 -15.819  0.00  0.00    +0.064 C 
ATOM     11  C   UNL     1      33.025 -23.234 -16.872  0.00  0.00    +0.016 C 
BRANCH   8  12
ATOM     12  N   UNL     1      36.909 -21.739 -16.711  0.00  0.00    -0.303 NA
ATOM     13  H   UNL     1      37.258 -21.398 -15.856  0.00  0.00    +0.121 HD
ATOM     14  H   UNL     1      37.480 -21.735 -17.513  0.00  0.00    +0.121 HD
ENDBRANCH   8  12
BRANCH   6  15
ATOM     15  C   UNL     1      35.980 -23.355 -14.668  0.00  0.00    +0.251 C 
BRANCH  15  16
ATOM     16  O   UNL     1      36.878 -24.382 -15.065  0.00  0.00    -0.250 OA
BRANCH  16  17
ATOM     17  P   UNL     1      36.890 -25.795 -14.243  0.00  0.00    +0.504 P 
ATOM     18  O   UNL     1      38.191 -25.934 -13.483  0.00  0.00    -0.225 OA
ATOM     19  O   UNL     1      36.423 -26.894 -15.172  0.00  0.00    -0.116 OA
BRANCH  17  20
ATOM     20  O   UNL     1      35.693 -25.492 -13.173  0.00  0.00    -0.301 OA
ATOM     21  H   UNL     1      36.022 -25.634 -12.271  0.00  0.00    +0.222 HD
ENDBRANCH  17  20
ENDBRANCH  16  17
ENDBRANCH  15  16
ENDBRANCH   6  15
ENDBRANCH   4   7
BRANCH   3  22
ATOM     22  C   UNL     1      35.688 -19.135 -21.980  0.00  0.00    +0.075 C 
BRANCH  22  23
ATOM     23  C   UNL     1      35.372 -17.648 -21.878  0.00  0.00    -0.016 C 
ATOM     24  C   UNL     1      35.233 -17.050 -20.625  0.00  0.00    -0.004 C 
ATOM     25  C   UNL     1      35.224 -16.885 -23.036  0.00  0.00    -0.004 C 
ATOM     26  C   UNL     1      34.795 -14.925 -21.689  0.00  0.00    +0.021 C 
ATOM     27  C   UNL     1      34.944 -15.689 -20.531  0.00  0.00    -0.001 C 
ATOM     28  C   UNL     1      34.935 -15.524 -22.941  0.00  0.00    -0.001 C 
BRANCH  26  29
ATOM     29  C   UNL     1      34.489 -13.470 -21.588  0.00  0.00    +0.234 C 
BRANCH  29  30
ATOM     30  O   UNL     1      33.168 -13.231 -22.058  0.00  0.00    -0.455 OA
BRANCH  30  32
ATOM     31  N   UNL     1      32.847 -10.974 -22.491  0.00  0.00    -0.210 NA
ATOM     32  C   UNL     1      32.591 -12.040 -21.700  0.00  0.00    +0.225 C 
ATOM     33  C   UNL     1      31.791 -11.995 -20.570  0.00  0.00    +0.058 C 
ATOM     34  C   UNL     1      31.216 -10.776 -20.228  0.00  0.00    +0.006 C 
ATOM     35  C   UNL     1      32.270  -9.806 -22.128  0.00  0.00    +0.102 C 
ATOM     36  C   UNL     1      31.454  -9.656 -21.018  0.00  0.00    +0.021 C 
ENDBRANCH  30  32
ENDBRANCH  29  30
ENDBRANCH  26  29
ENDBRANCH  22  23
ENDBRANCH   3  22
TORSDOF 11
ENDMDL
