MODEL 1
REMARK VINA RESULT:     -12.1      0.000      0.000
REMARK  Name = 16048422
REMARK  11 active torsions:
REMARK  status: ('A' for Active; 'I' for Inactive)
REMARK    1  A    between atoms: C_1  and  C_4
REMARK    2  A    between atoms: C_1  and  N_18
REMARK    3  A    between atoms: C_1  and  C_33
REMARK    4  A    between atoms: N_3  and  C_6
REMARK    5  A    between atoms: C_6  and  C_9
REMARK    6  A    between atoms: C_9  and  C_11
REMARK    7  A    between atoms: C_19  and  C_21
REMARK    8  A    between atoms: C_24  and  C_27
REMARK    9  A    between atoms: C_33  and  C_34
REMARK   10  A    between atoms: C_34  and  C_36
REMARK   11  A    between atoms: C_36  and  O_37
REMARK                            x       y       z     vdW  Elec       q    Type
REMARK                         _______ _______ _______ _____ _____    ______ ____
ROOT
ATOM      1  C   UNL     1      34.712 -23.919 -15.372  0.00  0.00    +0.149 C 
ENDROOT
BRANCH   1   4
ATOM      2  O   UNL     1      33.581 -22.902 -13.491  0.00  0.00    -0.273 OA
ATOM      3  N   UNL     1      32.327 -24.125 -15.016  0.00  0.00    -0.306 N 
ATOM      4  C   UNL     1      33.498 -23.573 -14.518  0.00  0.00    +0.240 C 
ATOM      5  H   UNL     1      32.373 -24.647 -15.850  0.00  0.00    +0.149 HD
BRANCH   3   6
ATOM      6  C   UNL     1      31.043 -23.971 -14.371  0.00  0.00    +0.061 C 
ATOM      7  C   UNL     1      31.100 -24.608 -12.974  0.00  0.00    +0.020 C 
ATOM      8  C   UNL     1      30.768 -22.466 -14.213  0.00  0.00    +0.020 C 
BRANCH   6   9
ATOM      9  C   UNL     1      29.917 -24.588 -15.240  0.00  0.00    +0.044 C 
BRANCH   9  11
ATOM     10  F   UNL     1      25.597 -21.176 -16.471  0.00  0.00    -0.204 F 
ATOM     11  C   UNL     1      28.759 -23.674 -15.570  0.00  0.00    -0.020 C 
ATOM     12  C   UNL     1      28.070 -23.024 -14.546  0.00  0.00    -0.002 C 
ATOM     13  C   UNL     1      28.380 -23.480 -16.898  0.00  0.00    -0.002 C 
ATOM     14  C   UNL     1      27.002 -22.179 -14.851  0.00  0.00    +0.029 C 
ATOM     15  C   UNL     1      27.312 -22.636 -17.203  0.00  0.00    +0.029 C 
ATOM     16  C   UNL     1      26.623 -21.986 -16.179  0.00  0.00    +0.140 C 
ENDBRANCH   9  11
ENDBRANCH   6   9
ENDBRANCH   3   6
ENDBRANCH   1   4
BRANCH   1  18
ATOM     17  O   UNL     1      33.481 -24.055 -17.962  0.00  0.00    -0.270 OA
ATOM     18  N   UNL     1      34.761 -22.912 -16.403  0.00  0.00    -0.295 N 
ATOM     19  C   UNL     1      34.132 -23.068 -17.629  0.00  0.00    +0.246 C 
ATOM     20  H   UNL     1      35.261 -22.082 -16.230  0.00  0.00    +0.150 HD
BRANCH  19  21
ATOM     21  C   UNL     1      34.301 -21.951 -18.593  0.00  0.00    +0.053 C 
ATOM     22  C   UNL     1      33.180 -21.322 -19.136  0.00  0.00    +0.005 C 
ATOM     23  C   UNL     1      35.580 -21.530 -18.955  0.00  0.00    +0.005 C 
ATOM     24  C   UNL     1      34.619 -19.853 -20.404  0.00  0.00    +0.000 C 
ATOM     25  C   UNL     1      33.340 -20.273 -20.042  0.00  0.00    +0.000 C 
ATOM     26  C   UNL     1      35.740 -20.481 -19.861  0.00  0.00    +0.000 C 
BRANCH  24  27
ATOM     27  C   UNL     1      34.785 -18.765 -21.343  0.00  0.00    +0.000 C 
ATOM     28  C   UNL     1      34.436 -18.940 -22.682  0.00  0.00    +0.000 C 
ATOM     29  C   UNL     1      35.292 -17.539 -20.909  0.00  0.00    +0.000 C 
ATOM     30  C   UNL     1      34.595 -17.890 -23.587  0.00  0.00    +0.000 C 
ATOM     31  C   UNL     1      35.451 -16.490 -21.815  0.00  0.00    +0.000 C 
ATOM     32  C   UNL     1      35.102 -16.666 -23.154  0.00  0.00    +0.000 C 
ENDBRANCH  24  27
ENDBRANCH  19  21
ENDBRANCH   1  18
BRANCH   1  33
ATOM     33  C   UNL     1      36.006 -23.918 -14.549  0.00  0.00    +0.041 C 
BRANCH  33  34
ATOM     34  C   UNL     1      36.306 -25.242 -13.844  0.00  0.00    +0.112 C 
BRANCH  34  36
ATOM     35  O   UNL     1      36.300 -27.079 -15.445  0.00  0.00    -0.250 OA
ATOM     36  C   UNL     1      36.921 -26.280 -14.758  0.00  0.00    +0.314 C 
BRANCH  36  37
ATOM     37  O   UNL     1      38.277 -26.204 -14.754  0.00  0.00    -0.480 OA
ATOM     38  H   UNL     1      38.720 -25.751 -14.064  0.00  0.00    +0.295 HD
ENDBRANCH  36  37
ENDBRANCH  34  36
ENDBRANCH  33  34
ENDBRANCH   1  33
TORSDOF 11
ENDMDL
MODEL 2
REMARK VINA RESULT:     -11.5      1.272      2.151
REMARK  Name = 16048422
REMARK  11 active torsions:
REMARK  status: ('A' for Active; 'I' for Inactive)
REMARK    1  A    between atoms: C_1  and  C_4
REMARK    2  A    between atoms: C_1  and  N_18
REMARK    3  A    between atoms: C_1  and  C_33
REMARK    4  A    between atoms: N_3  and  C_6
REMARK    5  A    between atoms: C_6  and  C_9
REMARK    6  A    between atoms: C_9  and  C_11
REMARK    7  A    between atoms: C_19  and  C_21
REMARK    8  A    between atoms: C_24  and  C_27
REMARK    9  A    between atoms: C_33  and  C_34
REMARK   10  A    between atoms: C_34  and  C_36
REMARK   11  A    between atoms: C_36  and  O_37
REMARK                            x       y       z     vdW  Elec       q    Type
REMARK                         _______ _______ _______ _____ _____    ______ ____
ROOT
ATOM      1  C   UNL     1      36.065 -23.508 -15.586  0.00  0.00    +0.149 C 
ENDROOT
BRANCH   1   4
ATOM      2  O   UNL     1      35.034 -22.040 -13.964  0.00  0.00    -0.273 OA
ATOM      3  N   UNL     1      34.094 -24.131 -14.329  0.00  0.00    -0.306 N 
ATOM      4  C   UNL     1      35.019 -23.121 -14.548  0.00  0.00    +0.240 C 
ATOM      5  H   UNL     1      34.173 -24.961 -14.853  0.00  0.00    +0.149 HD
BRANCH   3   6
ATOM      6  C   UNL     1      33.020 -24.025 -13.368  0.00  0.00    +0.061 C 
ATOM      7  C   UNL     1      32.102 -25.250 -13.498  0.00  0.00    +0.020 C 
ATOM      8  C   UNL     1      33.639 -24.022 -11.960  0.00  0.00    +0.020 C 
BRANCH   6   9
ATOM      9  C   UNL     1      32.240 -22.698 -13.565  0.00  0.00    +0.044 C 
BRANCH   9  11
ATOM     10  F   UNL     1      27.858 -22.912 -17.109  0.00  0.00    -0.204 F 
ATOM     11  C   UNL     1      31.065 -22.756 -14.515  0.00  0.00    -0.020 C 
ATOM     12  C   UNL     1      29.763 -22.782 -14.014  0.00  0.00    -0.002 C 
ATOM     13  C   UNL     1      31.283 -22.782 -15.892  0.00  0.00    -0.002 C 
ATOM     14  C   UNL     1      28.680 -22.834 -14.890  0.00  0.00    +0.029 C 
ATOM     15  C   UNL     1      30.200 -22.834 -16.769  0.00  0.00    +0.029 C 
ATOM     16  C   UNL     1      28.898 -22.860 -16.268  0.00  0.00    +0.140 C 
ENDBRANCH   9  11
ENDBRANCH   6   9
ENDBRANCH   3   6
ENDBRANCH   1   4
BRANCH   1  18
ATOM     17  O   UNL     1      33.998 -23.504 -17.579  0.00  0.00    -0.270 OA
ATOM     18  N   UNL     1      35.910 -22.562 -16.664  0.00  0.00    -0.295 N 
ATOM     19  C   UNL     1      34.873 -22.642 -17.582  0.00  0.00    +0.246 C 
ATOM     20  H   UNL     1      36.564 -21.832 -16.752  0.00  0.00    +0.150 HD
BRANCH  19  21
ATOM     21  C   UNL     1      34.869 -21.608 -18.649  0.00  0.00    +0.053 C 
ATOM     22  C   UNL     1      36.073 -21.070 -19.103  0.00  0.00    +0.005 C 
ATOM     23  C   UNL     1      33.661 -21.178 -19.197  0.00  0.00    +0.005 C 
ATOM     24  C   UNL     1      34.860 -19.668 -20.653  0.00  0.00    +0.000 C 
ATOM     25  C   UNL     1      36.068 -20.098 -20.105  0.00  0.00    +0.000 C 
ATOM     26  C   UNL     1      33.656 -20.207 -20.200  0.00  0.00    +0.000 C 
BRANCH  24  27
ATOM     27  C   UNL     1      34.855 -18.661 -21.692  0.00  0.00    +0.000 C 
ATOM     28  C   UNL     1      35.361 -17.387 -21.432  0.00  0.00    +0.000 C 
ATOM     29  C   UNL     1      34.347 -18.964 -22.955  0.00  0.00    +0.000 C 
ATOM     30  C   UNL     1      35.357 -16.417 -22.434  0.00  0.00    +0.000 C 
ATOM     31  C   UNL     1      34.343 -17.993 -23.957  0.00  0.00    +0.000 C 
ATOM     32  C   UNL     1      34.848 -16.720 -23.696  0.00  0.00    +0.000 C 
ENDBRANCH  24  27
ENDBRANCH  19  21
ENDBRANCH   1  18
BRANCH   1  33
ATOM     33  C   UNL     1      37.486 -23.447 -15.012  0.00  0.00    +0.041 C 
BRANCH  33  34
ATOM     34  C   UNL     1      37.707 -24.332 -13.783  0.00  0.00    +0.112 C 
BRANCH  34  36
ATOM     35  O   UNL     1      38.516 -26.554 -14.369  0.00  0.00    -0.250 OA
ATOM     36  C   UNL     1      37.588 -25.811 -14.082  0.00  0.00    +0.314 C 
BRANCH  36  37
ATOM     37  O   UNL     1      36.305 -26.240 -13.963  0.00  0.00    -0.480 OA
ATOM     38  H   UNL     1      35.916 -26.752 -14.644  0.00  0.00    +0.295 HD
ENDBRANCH  36  37
ENDBRANCH  34  36
ENDBRANCH  33  34
ENDBRANCH   1  33
TORSDOF 11
ENDMDL
MODEL 3
REMARK VINA RESULT:     -11.4      1.518      1.939
REMARK  Name = 16048422
REMARK  11 active torsions:
REMARK  status: ('A' for Active; 'I' for Inactive)
REMARK    1  A    between atoms: C_1  and  C_4
REMARK    2  A    between atoms: C_1  and  N_18
REMARK    3  A    between atoms: C_1  and  C_33
REMARK    4  A    between atoms: N_3  and  C_6
REMARK    5  A    between atoms: C_6  and  C_9
REMARK    6  A    between atoms: C_9  and  C_11
REMARK    7  A    between atoms: C_19  and  C_21
REMARK    8  A    between atoms: C_24  and  C_27
REMARK    9  A    between atoms: C_33  and  C_34
REMARK   10  A    between atoms: C_34  and  C_36
REMARK   11  A    between atoms: C_36  and  O_37
REMARK                            x       y       z     vdW  Elec       q    Type
REMARK                         _______ _______ _______ _____ _____    ______ ____
ROOT
ATOM      1  C   UNL     1      33.969 -23.175 -16.512  0.00  0.00    +0.149 C 
ENDROOT
BRANCH   1   4
ATOM      2  O   UNL     1      31.615 -22.672 -16.752  0.00  0.00    -0.273 OA
ATOM      3  N   UNL     1      32.309 -23.902 -14.908  0.00  0.00    -0.306 N 
ATOM      4  C   UNL     1      32.503 -23.218 -16.099  0.00  0.00    +0.240 C 
ATOM      5  H   UNL     1      33.092 -24.303 -14.465  0.00  0.00    +0.149 HD
BRANCH   3   6
ATOM      6  C   UNL     1      31.013 -24.056 -14.287  0.00  0.00    +0.061 C 
ATOM      7  C   UNL     1      31.146 -24.974 -13.062  0.00  0.00    +0.020 C 
ATOM      8  C   UNL     1      30.547 -22.669 -13.811  0.00  0.00    +0.020 C 
BRANCH   6   9
ATOM      9  C   UNL     1      29.979 -24.600 -15.306  0.00  0.00    +0.044 C 
BRANCH   9  11
ATOM     10  F   UNL     1      25.569 -21.249 -16.376  0.00  0.00    -0.204 F 
ATOM     11  C   UNL     1      28.796 -23.702 -15.593  0.00  0.00    -0.020 C 
ATOM     12  C   UNL     1      28.167 -23.023 -14.549  0.00  0.00    -0.002 C 
ATOM     13  C   UNL     1      28.336 -23.552 -16.900  0.00  0.00    -0.002 C 
ATOM     14  C   UNL     1      27.077 -22.194 -14.814  0.00  0.00    +0.029 C 
ATOM     15  C   UNL     1      27.246 -22.723 -17.165  0.00  0.00    +0.029 C 
ATOM     16  C   UNL     1      26.617 -22.044 -16.122  0.00  0.00    +0.140 C 
ENDBRANCH   9  11
ENDBRANCH   6   9
ENDBRANCH   3   6
ENDBRANCH   1   4
BRANCH   1  18
ATOM     17  O   UNL     1      36.335 -22.334 -17.903  0.00  0.00    -0.270 OA
ATOM     18  N   UNL     1      34.037 -22.237 -17.605  0.00  0.00    -0.295 N 
ATOM     19  C   UNL     1      35.233 -21.892 -18.217  0.00  0.00    +0.246 C 
ATOM     20  H   UNL     1      33.204 -21.826 -17.929  0.00  0.00    +0.150 HD
BRANCH  19  21
ATOM     21  C   UNL     1      35.138 -20.890 -19.310  0.00  0.00    +0.053 C 
ATOM     22  C   UNL     1      33.907 -20.627 -19.911  0.00  0.00    +0.005 C 
ATOM     23  C   UNL     1      36.281 -20.213 -19.736  0.00  0.00    +0.005 C 
ATOM     24  C   UNL     1      34.961 -19.010 -21.363  0.00  0.00    +0.000 C 
ATOM     25  C   UNL     1      33.818 -19.687 -20.938  0.00  0.00    +0.000 C 
ATOM     26  C   UNL     1      36.192 -19.272 -20.763  0.00  0.00    +0.000 C 
BRANCH  24  27
ATOM     27  C   UNL     1      34.869 -18.035 -22.428  0.00  0.00    +0.000 C 
ATOM     28  C   UNL     1      35.350 -16.740 -22.231  0.00  0.00    +0.000 C 
ATOM     29  C   UNL     1      34.301 -18.389 -23.652  0.00  0.00    +0.000 C 
ATOM     30  C   UNL     1      35.263 -15.800 -23.259  0.00  0.00    +0.000 C 
ATOM     31  C   UNL     1      34.213 -17.448 -24.678  0.00  0.00    +0.000 C 
ATOM     32  C   UNL     1      34.694 -16.154 -24.481  0.00  0.00    +0.000 C 
ENDBRANCH  24  27
ENDBRANCH  19  21
ENDBRANCH   1  18
BRANCH   1  33
ATOM     33  C   UNL     1      34.873 -22.728 -15.356  0.00  0.00    +0.041 C 
BRANCH  33  34
ATOM     34  C   UNL     1      35.792 -23.825 -14.814  0.00  0.00    +0.112 C 
BRANCH  34  36
ATOM     35  O   UNL     1      37.779 -23.360 -13.484  0.00  0.00    -0.250 OA
ATOM     36  C   UNL     1      37.207 -23.351 -14.565  0.00  0.00    +0.314 C 
BRANCH  36  37
ATOM     37  O   UNL     1      37.799 -22.930 -15.712  0.00  0.00    -0.480 OA
ATOM     38  H   UNL     1      38.550 -22.371 -15.675  0.00  0.00    +0.295 HD
ENDBRANCH  36  37
ENDBRANCH  34  36
ENDBRANCH  33  34
ENDBRANCH   1  33
TORSDOF 11
ENDMDL
MODEL 4
REMARK VINA RESULT:     -10.9      5.620     11.051
REMARK  Name = 16048422
REMARK  11 active torsions:
REMARK  status: ('A' for Active; 'I' for Inactive)
REMARK    1  A    between atoms: C_1  and  C_4
REMARK    2  A    between atoms: C_1  and  N_18
REMARK    3  A    between atoms: C_1  and  C_33
REMARK    4  A    between atoms: N_3  and  C_6
REMARK    5  A    between atoms: C_6  and  C_9
REMARK    6  A    between atoms: C_9  and  C_11
REMARK    7  A    between atoms: C_19  and  C_21
REMARK    8  A    between atoms: C_24  and  C_27
REMARK    9  A    between atoms: C_33  and  C_34
REMARK   10  A    between atoms: C_34  and  C_36
REMARK   11  A    between atoms: C_36  and  O_37
REMARK                            x       y       z     vdW  Elec       q    Type
REMARK                         _______ _______ _______ _____ _____    ______ ____
ROOT
ATOM      1  C   UNL     1      35.436 -16.151 -23.295  0.00  0.00    +0.149 C 
ENDROOT
BRANCH   1   4
ATOM      2  O   UNL     1      34.582 -14.653 -21.597  0.00  0.00    -0.273 OA
ATOM      3  N   UNL     1      34.257 -14.106 -23.831  0.00  0.00    -0.306 N 
ATOM      4  C   UNL     1      34.729 -14.897 -22.794  0.00  0.00    +0.240 C 
ATOM      5  H   UNL     1      34.430 -14.395 -24.756  0.00  0.00    +0.149 HD
BRANCH   3   6
ATOM      6  C   UNL     1      33.523 -12.880 -23.619  0.00  0.00    +0.061 C 
ATOM      7  C   UNL     1      34.498 -11.775 -23.187  0.00  0.00    +0.020 C 
ATOM      8  C   UNL     1      32.882 -12.472 -24.957  0.00  0.00    +0.020 C 
BRANCH   6   9
ATOM      9  C   UNL     1      32.394 -13.092 -22.577  0.00  0.00    +0.044 C 
BRANCH   9  11
ATOM     10  F   UNL     1      31.562  -8.858 -18.944  0.00  0.00    -0.204 F 
ATOM     11  C   UNL     1      32.171 -11.957 -21.603  0.00  0.00    -0.020 C 
ATOM     12  C   UNL     1      32.222 -12.196 -20.230  0.00  0.00    -0.002 C 
ATOM     13  C   UNL     1      31.914 -10.671 -22.078  0.00  0.00    -0.002 C 
ATOM     14  C   UNL     1      32.017 -11.149 -19.332  0.00  0.00    +0.029 C 
ATOM     15  C   UNL     1      31.709  -9.624 -21.180  0.00  0.00    +0.029 C 
ATOM     16  C   UNL     1      31.760  -9.863 -19.807  0.00  0.00    +0.140 C 
ENDBRANCH   9  11
ENDBRANCH   6   9
ENDBRANCH   3   6
ENDBRANCH   1   4
BRANCH   1  18
ATOM     17  O   UNL     1      37.251 -18.217 -22.469  0.00  0.00    -0.270 OA
ATOM     18  N   UNL     1      35.194 -17.159 -22.292  0.00  0.00    -0.295 N 
ATOM     19  C   UNL     1      36.137 -18.121 -21.960  0.00  0.00    +0.246 C 
ATOM     20  H   UNL     1      34.328 -17.165 -21.826  0.00  0.00    +0.150 HD
BRANCH  19  21
ATOM     21  C   UNL     1      35.725 -19.105 -20.927  0.00  0.00    +0.053 C 
ATOM     22  C   UNL     1      36.677 -19.659 -20.071  0.00  0.00    +0.005 C 
ATOM     23  C   UNL     1      34.385 -19.475 -20.812  0.00  0.00    +0.005 C 
ATOM     24  C   UNL     1      34.950 -20.954 -18.987  0.00  0.00    +0.000 C 
ATOM     25  C   UNL     1      36.290 -20.585 -19.102  0.00  0.00    +0.000 C 
ATOM     26  C   UNL     1      33.997 -20.400 -19.842  0.00  0.00    +0.000 C 
BRANCH  24  27
ATOM     27  C   UNL     1      34.548 -21.913 -17.981  0.00  0.00    +0.000 C 
ATOM     28  C   UNL     1      35.456 -22.324 -17.006  0.00  0.00    +0.000 C 
ATOM     29  C   UNL     1      33.250 -22.426 -17.985  0.00  0.00    +0.000 C 
ATOM     30  C   UNL     1      35.068 -23.248 -16.035  0.00  0.00    +0.000 C 
ATOM     31  C   UNL     1      32.862 -23.350 -17.015  0.00  0.00    +0.000 C 
ATOM     32  C   UNL     1      33.771 -23.761 -16.040  0.00  0.00    +0.000 C 
ENDBRANCH  24  27
ENDBRANCH  19  21
ENDBRANCH   1  18
BRANCH   1  33
ATOM     33  C   UNL     1      34.897 -16.601 -24.658  0.00  0.00    +0.041 C 
BRANCH  33  34
ATOM     34  C   UNL     1      33.434 -17.050 -24.640  0.00  0.00    +0.112 C 
BRANCH  34  36
ATOM     35  O   UNL     1      34.118 -19.377 -24.416  0.00  0.00    -0.250 OA
ATOM     36  C   UNL     1      33.267 -18.551 -24.716  0.00  0.00    +0.314 C 
BRANCH  36  37
ATOM     37  O   UNL     1      32.022 -18.892 -25.140  0.00  0.00    -0.480 OA
ATOM     38  H   UNL     1      31.706 -18.581 -25.965  0.00  0.00    +0.295 HD
ENDBRANCH  36  37
ENDBRANCH  34  36
ENDBRANCH  33  34
ENDBRANCH   1  33
TORSDOF 11
ENDMDL
MODEL 5
REMARK VINA RESULT:     -10.8      1.638      2.392
REMARK  Name = 16048422
REMARK  11 active torsions:
REMARK  status: ('A' for Active; 'I' for Inactive)
REMARK    1  A    between atoms: C_1  and  C_4
REMARK    2  A    between atoms: C_1  and  N_18
REMARK    3  A    between atoms: C_1  and  C_33
REMARK    4  A    between atoms: N_3  and  C_6
REMARK    5  A    between atoms: C_6  and  C_9
REMARK    6  A    between atoms: C_9  and  C_11
REMARK    7  A    between atoms: C_19  and  C_21
REMARK    8  A    between atoms: C_24  and  C_27
REMARK    9  A    between atoms: C_33  and  C_34
REMARK   10  A    between atoms: C_34  and  C_36
REMARK   11  A    between atoms: C_36  and  O_37
REMARK                            x       y       z     vdW  Elec       q    Type
REMARK                         _______ _______ _______ _____ _____    ______ ____
ROOT
ATOM      1  C   UNL     1      36.448 -23.233 -15.194  0.00  0.00    +0.149 C 
ENDROOT
BRANCH   1   4
ATOM      2  O   UNL     1      34.934 -25.118 -15.260  0.00  0.00    -0.273 OA
ATOM      3  N   UNL     1      34.168 -23.104 -14.396  0.00  0.00    -0.306 N 
ATOM      4  C   UNL     1      35.121 -23.942 -14.955  0.00  0.00    +0.240 C 
ATOM      5  H   UNL     1      34.423 -22.175 -14.189  0.00  0.00    +0.149 HD
BRANCH   3   6
ATOM      6  C   UNL     1      32.818 -23.526 -14.102  0.00  0.00    +0.061 C 
ATOM      7  C   UNL     1      32.858 -24.682 -13.090  0.00  0.00    +0.020 C 
ATOM      8  C   UNL     1      32.076 -22.341 -13.462  0.00  0.00    +0.020 C 
BRANCH   6   9
ATOM      9  C   UNL     1      32.075 -23.926 -15.404  0.00  0.00    +0.044 C 
BRANCH   9  11
ATOM     10  F   UNL     1      26.558 -22.760 -15.555  0.00  0.00    -0.204 F 
ATOM     11  C   UNL     1      30.596 -23.614 -15.444  0.00  0.00    -0.020 C 
ATOM     12  C   UNL     1      29.695 -24.410 -14.737  0.00  0.00    -0.002 C 
ATOM     13  C   UNL     1      30.133 -22.530 -16.189  0.00  0.00    -0.002 C 
ATOM     14  C   UNL     1      28.331 -24.121 -14.774  0.00  0.00    +0.029 C 
ATOM     15  C   UNL     1      28.769 -22.241 -16.226  0.00  0.00    +0.029 C 
ATOM     16  C   UNL     1      27.868 -23.037 -15.519  0.00  0.00    +0.140 C 
ENDBRANCH   9  11
ENDBRANCH   6   9
ENDBRANCH   3   6
ENDBRANCH   1   4
BRANCH   1  18
ATOM     17  O   UNL     1      34.506 -23.590 -17.279  0.00  0.00    -0.270 OA
ATOM     18  N   UNL     1      36.225 -22.361 -16.321  0.00  0.00    -0.295 N 
ATOM     19  C   UNL     1      35.257 -22.618 -17.282  0.00  0.00    +0.246 C 
ATOM     20  H   UNL     1      36.779 -21.553 -16.412  0.00  0.00    +0.150 HD
BRANCH  19  21
ATOM     21  C   UNL     1      35.170 -21.638 -18.395  0.00  0.00    +0.053 C 
ATOM     22  C   UNL     1      33.930 -21.312 -18.942  0.00  0.00    +0.005 C 
ATOM     23  C   UNL     1      36.330 -21.043 -18.892  0.00  0.00    +0.005 C 
ATOM     24  C   UNL     1      35.008 -19.798 -20.485  0.00  0.00    +0.000 C 
ATOM     25  C   UNL     1      33.848 -20.392 -19.988  0.00  0.00    +0.000 C 
ATOM     26  C   UNL     1      36.249 -20.123 -19.937  0.00  0.00    +0.000 C 
BRANCH  24  27
ATOM     27  C   UNL     1      34.924 -18.843 -21.569  0.00  0.00    +0.000 C 
ATOM     28  C   UNL     1      35.418 -17.549 -21.399  0.00  0.00    +0.000 C 
ATOM     29  C   UNL     1      34.352 -19.217 -22.785  0.00  0.00    +0.000 C 
ATOM     30  C   UNL     1      35.338 -16.630 -22.445  0.00  0.00    +0.000 C 
ATOM     31  C   UNL     1      34.272 -18.296 -23.830  0.00  0.00    +0.000 C 
ATOM     32  C   UNL     1      34.765 -17.003 -23.660  0.00  0.00    +0.000 C 
ENDBRANCH  24  27
ENDBRANCH  19  21
ENDBRANCH   1  18
BRANCH   1  33
ATOM     33  C   UNL     1      36.894 -22.429 -13.967  0.00  0.00    +0.041 C 
BRANCH  33  34
ATOM     34  C   UNL     1      37.467 -23.279 -12.831  0.00  0.00    +0.112 C 
BRANCH  34  36
ATOM     35  O   UNL     1      37.369 -22.702 -10.466  0.00  0.00    -0.250 OA
ATOM     36  C   UNL     1      36.798 -23.026 -11.498  0.00  0.00    +0.314 C 
BRANCH  36  37
ATOM     37  O   UNL     1      35.450 -23.174 -11.583  0.00  0.00    -0.480 OA
ATOM     38  H   UNL     1      34.900 -22.877 -10.885  0.00  0.00    +0.295 HD
ENDBRANCH  36  37
ENDBRANCH  34  36
ENDBRANCH  33  34
ENDBRANCH   1  33
TORSDOF 11
ENDMDL
MODEL 6
REMARK VINA RESULT:     -10.6      8.683     13.790
REMARK  Name = 16048422
REMARK  11 active torsions:
REMARK  status: ('A' for Active; 'I' for Inactive)
REMARK    1  A    between atoms: C_1  and  C_4
REMARK    2  A    between atoms: C_1  and  N_18
REMARK    3  A    between atoms: C_1  and  C_33
REMARK    4  A    between atoms: N_3  and  C_6
REMARK    5  A    between atoms: C_6  and  C_9
REMARK    6  A    between atoms: C_9  and  C_11
REMARK    7  A    between atoms: C_19  and  C_21
REMARK    8  A    between atoms: C_24  and  C_27
REMARK    9  A    between atoms: C_33  and  C_34
REMARK   10  A    between atoms: C_34  and  C_36
REMARK   11  A    between atoms: C_36  and  O_37
REMARK                            x       y       z     vdW  Elec       q    Type
REMARK                         _______ _______ _______ _____ _____    ______ ____
ROOT
ATOM      1  C   UNL     1      33.863 -12.325 -22.797  0.00  0.00    +0.149 C 
ENDROOT
BRANCH   1   4
ATOM      2  O   UNL     1      31.681 -12.333 -21.754  0.00  0.00    -0.273 OA
ATOM      3  N   UNL     1      32.962 -10.400 -21.641  0.00  0.00    -0.306 N 
ATOM      4  C   UNL     1      32.714 -11.715 -22.004  0.00  0.00    +0.240 C 
ATOM      5  H   UNL     1      33.826  -9.999 -21.893  0.00  0.00    +0.149 HD
BRANCH   3   6
ATOM      6  C   UNL     1      32.015  -9.588 -20.912  0.00  0.00    +0.061 C 
ATOM      7  C   UNL     1      30.837  -9.235 -21.833  0.00  0.00    +0.020 C 
ATOM      8  C   UNL     1      31.482 -10.421 -19.734  0.00  0.00    +0.020 C 
BRANCH   6   9
ATOM      9  C   UNL     1      32.704  -8.319 -20.345  0.00  0.00    +0.044 C 
BRANCH   9  11
ATOM     10  F   UNL     1      32.818  -3.836 -23.765  0.00  0.00    -0.204 F 
ATOM     11  C   UNL     1      32.734  -7.117 -21.262  0.00  0.00    -0.020 C 
ATOM     12  C   UNL     1      31.808  -6.088 -21.093  0.00  0.00    -0.002 C 
ATOM     13  C   UNL     1      33.688  -7.039 -22.276  0.00  0.00    -0.002 C 
ATOM     14  C   UNL     1      31.837  -4.979 -21.938  0.00  0.00    +0.029 C 
ATOM     15  C   UNL     1      33.717  -5.930 -23.122  0.00  0.00    +0.029 C 
ATOM     16  C   UNL     1      32.791  -4.900 -22.952  0.00  0.00    +0.140 C 
ENDBRANCH   9  11
ENDBRANCH   6   9
ENDBRANCH   3   6
ENDBRANCH   1   4
BRANCH   1  18
ATOM     17  O   UNL     1      35.313 -14.494 -23.997  0.00  0.00    -0.270 OA
ATOM     18  N   UNL     1      34.066 -13.639 -22.237  0.00  0.00    -0.295 N 
ATOM     19  C   UNL     1      34.785 -14.626 -22.895  0.00  0.00    +0.246 C 
ATOM     20  H   UNL     1      33.680 -13.843 -21.356  0.00  0.00    +0.150 HD
BRANCH  19  21
ATOM     21  C   UNL     1      34.880 -15.935 -22.198  0.00  0.00    +0.053 C 
ATOM     22  C   UNL     1      35.031 -15.978 -20.812  0.00  0.00    +0.005 C 
ATOM     23  C   UNL     1      34.817 -17.120 -22.930  0.00  0.00    +0.005 C 
ATOM     24  C   UNL     1      35.058 -18.392 -20.890  0.00  0.00    +0.000 C 
ATOM     25  C   UNL     1      35.121 -17.207 -20.158  0.00  0.00    +0.000 C 
ATOM     26  C   UNL     1      34.906 -18.350 -22.276  0.00  0.00    +0.000 C 
BRANCH  24  27
ATOM     27  C   UNL     1      35.150 -19.667 -20.212  0.00  0.00    +0.000 C 
ATOM     28  C   UNL     1      36.399 -20.189 -19.876  0.00  0.00    +0.000 C 
ATOM     29  C   UNL     1      33.990 -20.373 -19.892  0.00  0.00    +0.000 C 
ATOM     30  C   UNL     1      36.488 -21.418 -19.221  0.00  0.00    +0.000 C 
ATOM     31  C   UNL     1      34.080 -21.602 -19.238  0.00  0.00    +0.000 C 
ATOM     32  C   UNL     1      35.329 -22.124 -18.903  0.00  0.00    +0.000 C 
ENDBRANCH  24  27
ENDBRANCH  19  21
ENDBRANCH   1  18
BRANCH   1  33
ATOM     33  C   UNL     1      33.537 -12.417 -24.292  0.00  0.00    +0.041 C 
BRANCH  33  34
ATOM     34  C   UNL     1      33.604 -11.081 -25.035  0.00  0.00    +0.112 C 
BRANCH  34  36
ATOM     35  O   UNL     1      35.731 -10.185 -25.814  0.00  0.00    -0.250 OA
ATOM     36  C   UNL     1      34.942 -10.388 -24.902  0.00  0.00    +0.314 C 
BRANCH  36  37
ATOM     37  O   UNL     1      35.165  -9.979 -23.626  0.00  0.00    -0.480 OA
ATOM     38  H   UNL     1      35.722  -9.244 -23.459  0.00  0.00    +0.295 HD
ENDBRANCH  36  37
ENDBRANCH  34  36
ENDBRANCH  33  34
ENDBRANCH   1  33
TORSDOF 11
ENDMDL
MODEL 7
REMARK VINA RESULT:     -10.4      5.707     11.069
REMARK  Name = 16048422
REMARK  11 active torsions:
REMARK  status: ('A' for Active; 'I' for Inactive)
REMARK    1  A    between atoms: C_1  and  C_4
REMARK    2  A    between atoms: C_1  and  N_18
REMARK    3  A    between atoms: C_1  and  C_33
REMARK    4  A    between atoms: N_3  and  C_6
REMARK    5  A    between atoms: C_6  and  C_9
REMARK    6  A    between atoms: C_9  and  C_11
REMARK    7  A    between atoms: C_19  and  C_21
REMARK    8  A    between atoms: C_24  and  C_27
REMARK    9  A    between atoms: C_33  and  C_34
REMARK   10  A    between atoms: C_34  and  C_36
REMARK   11  A    between atoms: C_36  and  O_37
REMARK                            x       y       z     vdW  Elec       q    Type
REMARK                         _______ _______ _______ _____ _____    ______ ____
ROOT
ATOM      1  C   UNL     1      35.139 -16.975 -22.305  0.00  0.00    +0.149 C 
ENDROOT
BRANCH   1   4
ATOM      2  O   UNL     1      35.097 -15.405 -20.466  0.00  0.00    -0.273 OA
ATOM      3  N   UNL     1      34.419 -14.680 -22.565  0.00  0.00    -0.306 N 
ATOM      4  C   UNL     1      34.902 -15.615 -21.662  0.00  0.00    +0.240 C 
ATOM      5  H   UNL     1      34.298 -14.954 -23.503  0.00  0.00    +0.149 HD
BRANCH   3   6
ATOM      6  C   UNL     1      34.083 -13.324 -22.196  0.00  0.00    +0.061 C 
ATOM      7  C   UNL     1      35.056 -12.839 -21.111  0.00  0.00    +0.020 C 
ATOM      8  C   UNL     1      34.254 -12.436 -23.440  0.00  0.00    +0.020 C 
BRANCH   6   9
ATOM      9  C   UNL     1      32.607 -13.234 -21.727  0.00  0.00    +0.044 C 
BRANCH   9  11
ATOM     10  F   UNL     1      31.143  -8.479 -19.070  0.00  0.00    -0.204 F 
ATOM     11  C   UNL     1      32.214 -11.959 -21.015  0.00  0.00    -0.020 C 
ATOM     12  C   UNL     1      31.901 -10.817 -21.752  0.00  0.00    -0.002 C 
ATOM     13  C   UNL     1      32.166 -11.926 -19.622  0.00  0.00    -0.002 C 
ATOM     14  C   UNL     1      31.539  -9.642 -21.095  0.00  0.00    +0.029 C 
ATOM     15  C   UNL     1      31.803 -10.751 -18.964  0.00  0.00    +0.029 C 
ATOM     16  C   UNL     1      31.490  -9.609 -19.701  0.00  0.00    +0.140 C 
ENDBRANCH   9  11
ENDBRANCH   6   9
ENDBRANCH   3   6
ENDBRANCH   1   4
BRANCH   1  18
ATOM     17  O   UNL     1      34.983 -19.824 -22.622  0.00  0.00    -0.270 OA
ATOM     18  N   UNL     1      34.886 -17.944 -21.268  0.00  0.00    -0.295 N 
ATOM     19  C   UNL     1      34.829 -19.308 -21.519  0.00  0.00    +0.246 C 
ATOM     20  H   UNL     1      34.748 -17.627 -20.346  0.00  0.00    +0.150 HD
BRANCH  19  21
ATOM     21  C   UNL     1      34.532 -20.172 -20.348  0.00  0.00    +0.053 C 
ATOM     22  C   UNL     1      33.211 -20.389 -19.958  0.00  0.00    +0.005 C 
ATOM     23  C   UNL     1      35.575 -20.768 -19.639  0.00  0.00    +0.005 C 
ATOM     24  C   UNL     1      33.975 -21.797 -18.150  0.00  0.00    +0.000 C 
ATOM     25  C   UNL     1      32.932 -21.201 -18.858  0.00  0.00    +0.000 C 
ATOM     26  C   UNL     1      35.297 -21.581 -18.539  0.00  0.00    +0.000 C 
BRANCH  24  27
ATOM     27  C   UNL     1      33.687 -22.639 -17.009  0.00  0.00    +0.000 C 
ATOM     28  C   UNL     1      34.730 -23.139 -16.230  0.00  0.00    +0.000 C 
ATOM     29  C   UNL     1      32.365 -22.950 -16.688  0.00  0.00    +0.000 C 
ATOM     30  C   UNL     1      34.452 -23.950 -15.129  0.00  0.00    +0.000 C 
ATOM     31  C   UNL     1      32.088 -23.762 -15.587  0.00  0.00    +0.000 C 
ATOM     32  C   UNL     1      33.131 -24.262 -14.809  0.00  0.00    +0.000 C 
ENDBRANCH  24  27
ENDBRANCH  19  21
ENDBRANCH   1  18
BRANCH   1  33
ATOM     33  C   UNL     1      34.210 -17.208 -23.503  0.00  0.00    +0.041 C 
BRANCH  33  34
ATOM     34  C   UNL     1      34.764 -16.705 -24.838  0.00  0.00    +0.112 C 
BRANCH  34  36
ATOM     35  O   UNL     1      34.279 -14.856 -26.347  0.00  0.00    -0.250 OA
ATOM     36  C   UNL     1      33.913 -15.626 -25.470  0.00  0.00    +0.314 C 
BRANCH  36  37
ATOM     37  O   UNL     1      32.653 -15.626 -24.964  0.00  0.00    -0.480 OA
ATOM     38  H   UNL     1      32.095 -16.368 -25.092  0.00  0.00    +0.295 HD
ENDBRANCH  36  37
ENDBRANCH  34  36
ENDBRANCH  33  34
ENDBRANCH   1  33
TORSDOF 11
ENDMDL
MODEL 8
REMARK VINA RESULT:     -10.3      3.786      5.447
REMARK  Name = 16048422
REMARK  11 active torsions:
REMARK  status: ('A' for Active; 'I' for Inactive)
REMARK    1  A    between atoms: C_1  and  C_4
REMARK    2  A    between atoms: C_1  and  N_18
REMARK    3  A    between atoms: C_1  and  C_33
REMARK    4  A    between atoms: N_3  and  C_6
REMARK    5  A    between atoms: C_6  and  C_9
REMARK    6  A    between atoms: C_9  and  C_11
REMARK    7  A    between atoms: C_19  and  C_21
REMARK    8  A    between atoms: C_24  and  C_27
REMARK    9  A    between atoms: C_33  and  C_34
REMARK   10  A    between atoms: C_34  and  C_36
REMARK   11  A    between atoms: C_36  and  O_37
REMARK                            x       y       z     vdW  Elec       q    Type
REMARK                         _______ _______ _______ _____ _____    ______ ____
ROOT
ATOM      1  C   UNL     1      36.220 -23.620 -15.636  0.00  0.00    +0.149 C 
ENDROOT
BRANCH   1   4
ATOM      2  O   UNL     1      35.136 -22.085 -14.113  0.00  0.00    -0.273 OA
ATOM      3  N   UNL     1      34.421 -24.294 -14.166  0.00  0.00    -0.306 N 
ATOM      4  C   UNL     1      35.207 -23.225 -14.569  0.00  0.00    +0.240 C 
ATOM      5  H   UNL     1      34.561 -25.168 -14.598  0.00  0.00    +0.149 HD
BRANCH   3   6
ATOM      6  C   UNL     1      33.407 -24.188 -13.142  0.00  0.00    +0.061 C 
ATOM      7  C   UNL     1      32.800 -22.777 -13.175  0.00  0.00    +0.020 C 
ATOM      8  C   UNL     1      32.298 -25.205 -13.462  0.00  0.00    +0.020 C 
BRANCH   6   9
ATOM      9  C   UNL     1      33.998 -24.527 -11.749  0.00  0.00    +0.044 C 
BRANCH   9  11
ATOM     10  F   UNL     1      39.511 -23.525 -11.098  0.00  0.00    -0.204 F 
ATOM     11  C   UNL     1      35.476 -24.259 -11.574  0.00  0.00    -0.020 C 
ATOM     12  C   UNL     1      36.395 -25.299 -11.713  0.00  0.00    -0.002 C 
ATOM     13  C   UNL     1      35.920 -22.971 -11.275  0.00  0.00    -0.002 C 
ATOM     14  C   UNL     1      37.758 -25.051 -11.552  0.00  0.00    +0.029 C 
ATOM     15  C   UNL     1      37.283 -22.723 -11.115  0.00  0.00    +0.029 C 
ATOM     16  C   UNL     1      38.202 -23.763 -11.253  0.00  0.00    +0.140 C 
ENDBRANCH   9  11
ENDBRANCH   6   9
ENDBRANCH   3   6
ENDBRANCH   1   4
BRANCH   1  18
ATOM     17  O   UNL     1      34.019 -23.450 -17.471  0.00  0.00    -0.270 OA
ATOM     18  N   UNL     1      36.059 -22.660 -16.700  0.00  0.00    -0.295 N 
ATOM     19  C   UNL     1      34.954 -22.656 -17.539  0.00  0.00    +0.246 C 
ATOM     20  H   UNL     1      36.758 -21.981 -16.836  0.00  0.00    +0.150 HD
BRANCH  19  21
ATOM     21  C   UNL     1      34.949 -21.620 -18.603  0.00  0.00    +0.053 C 
ATOM     22  C   UNL     1      33.743 -21.197 -19.160  0.00  0.00    +0.005 C 
ATOM     23  C   UNL     1      36.152 -21.069 -19.044  0.00  0.00    +0.005 C 
ATOM     24  C   UNL     1      34.942 -19.673 -20.601  0.00  0.00    +0.000 C 
ATOM     25  C   UNL     1      33.739 -20.224 -20.160  0.00  0.00    +0.000 C 
ATOM     26  C   UNL     1      36.149 -20.095 -20.043  0.00  0.00    +0.000 C 
BRANCH  24  27
ATOM     27  C   UNL     1      34.938 -18.663 -21.637  0.00  0.00    +0.000 C 
ATOM     28  C   UNL     1      35.416 -17.381 -21.363  0.00  0.00    +0.000 C 
ATOM     29  C   UNL     1      34.459 -18.971 -22.910  0.00  0.00    +0.000 C 
ATOM     30  C   UNL     1      35.414 -16.408 -22.363  0.00  0.00    +0.000 C 
ATOM     31  C   UNL     1      34.456 -17.997 -23.909  0.00  0.00    +0.000 C 
ATOM     32  C   UNL     1      34.934 -16.716 -23.635  0.00  0.00    +0.000 C 
ENDBRANCH  24  27
ENDBRANCH  19  21
ENDBRANCH   1  18
BRANCH   1  33
ATOM     33  C   UNL     1      37.655 -23.594 -15.095  0.00  0.00    +0.041 C 
BRANCH  33  34
ATOM     34  C   UNL     1      38.210 -24.967 -14.712  0.00  0.00    +0.112 C 
BRANCH  34  36
ATOM     35  O   UNL     1      40.442 -24.487 -13.862  0.00  0.00    -0.250 OA
ATOM     36  C   UNL     1      39.722 -25.019 -14.695  0.00  0.00    +0.314 C 
BRANCH  36  37
ATOM     37  O   UNL     1      40.205 -25.768 -15.721  0.00  0.00    -0.480 OA
ATOM     38  H   UNL     1      39.615 -26.157 -16.336  0.00  0.00    +0.295 HD
ENDBRANCH  36  37
ENDBRANCH  34  36
ENDBRANCH  33  34
ENDBRANCH   1  33
TORSDOF 11
ENDMDL
MODEL 9
REMARK VINA RESULT:     -10.1      5.579     11.321
REMARK  Name = 16048422
REMARK  11 active torsions:
REMARK  status: ('A' for Active; 'I' for Inactive)
REMARK    1  A    between atoms: C_1  and  C_4
REMARK    2  A    between atoms: C_1  and  N_18
REMARK    3  A    between atoms: C_1  and  C_33
REMARK    4  A    between atoms: N_3  and  C_6
REMARK    5  A    between atoms: C_6  and  C_9
REMARK    6  A    between atoms: C_9  and  C_11
REMARK    7  A    between atoms: C_19  and  C_21
REMARK    8  A    between atoms: C_24  and  C_27
REMARK    9  A    between atoms: C_33  and  C_34
REMARK   10  A    between atoms: C_34  and  C_36
REMARK   11  A    between atoms: C_36  and  O_37
REMARK                            x       y       z     vdW  Elec       q    Type
REMARK                         _______ _______ _______ _____ _____    ______ ____
ROOT
ATOM      1  C   UNL     1      35.433 -17.338 -21.718  0.00  0.00    +0.149 C 
ENDROOT
BRANCH   1   4
ATOM      2  O   UNL     1      35.030 -15.809 -19.887  0.00  0.00    -0.273 OA
ATOM      3  N   UNL     1      34.362 -15.189 -22.023  0.00  0.00    -0.306 N 
ATOM      4  C   UNL     1      34.940 -16.039 -21.092  0.00  0.00    +0.240 C 
ATOM      5  H   UNL     1      34.342 -15.472 -22.966  0.00  0.00    +0.149 HD
BRANCH   3   6
ATOM      6  C   UNL     1      33.789 -13.909 -21.676  0.00  0.00    +0.061 C 
ATOM      7  C   UNL     1      32.734 -14.108 -20.577  0.00  0.00    +0.020 C 
ATOM      8  C   UNL     1      34.913 -13.018 -21.121  0.00  0.00    +0.020 C 
BRANCH   6   9
ATOM      9  C   UNL     1      33.189 -13.221 -22.930  0.00  0.00    +0.044 C 
BRANCH   9  11
ATOM     10  F   UNL     1      33.778  -7.617 -23.191  0.00  0.00    -0.204 F 
ATOM     11  C   UNL     1      33.347 -11.718 -23.000  0.00  0.00    -0.020 C 
ATOM     12  C   UNL     1      32.554 -10.896 -22.200  0.00  0.00    -0.002 C 
ATOM     13  C   UNL     1      34.286 -11.156 -23.865  0.00  0.00    -0.002 C 
ATOM     14  C   UNL     1      32.700  -9.511 -22.264  0.00  0.00    +0.029 C 
ATOM     15  C   UNL     1      34.432  -9.770 -23.928  0.00  0.00    +0.029 C 
ATOM     16  C   UNL     1      33.639  -8.948 -23.128  0.00  0.00    +0.140 C 
ENDBRANCH   9  11
ENDBRANCH   6   9
ENDBRANCH   3   6
ENDBRANCH   1   4
BRANCH   1  18
ATOM     17  O   UNL     1      34.966 -20.162 -21.936  0.00  0.00    -0.270 OA
ATOM     18  N   UNL     1      35.461 -18.300 -20.644  0.00  0.00    -0.295 N 
ATOM     19  C   UNL     1      35.222 -19.652 -20.848  0.00  0.00    +0.246 C 
ATOM     20  H   UNL     1      35.658 -17.987 -19.733  0.00  0.00    +0.150 HD
BRANCH  19  21
ATOM     21  C   UNL     1      35.260 -20.509 -19.635  0.00  0.00    +0.053 C 
ATOM     22  C   UNL     1      34.103 -21.153 -19.200  0.00  0.00    +0.005 C 
ATOM     23  C   UNL     1      36.455 -20.669 -18.933  0.00  0.00    +0.005 C 
ATOM     24  C   UNL     1      35.334 -22.118 -17.358  0.00  0.00    +0.000 C 
ATOM     25  C   UNL     1      34.139 -21.958 -18.060  0.00  0.00    +0.000 C 
ATOM     26  C   UNL     1      36.492 -21.474 -17.794  0.00  0.00    +0.000 C 
BRANCH  24  27
ATOM     27  C   UNL     1      35.372 -22.952 -16.177  0.00  0.00    +0.000 C 
ATOM     28  C   UNL     1      36.578 -23.156 -15.505  0.00  0.00    +0.000 C 
ATOM     29  C   UNL     1      34.203 -23.552 -15.707  0.00  0.00    +0.000 C 
ATOM     30  C   UNL     1      36.614 -23.959 -14.365  0.00  0.00    +0.000 C 
ATOM     31  C   UNL     1      34.241 -24.356 -14.568  0.00  0.00    +0.000 C 
ATOM     32  C   UNL     1      35.446 -24.559 -13.897  0.00  0.00    +0.000 C 
ENDBRANCH  24  27
ENDBRANCH  19  21
ENDBRANCH   1  18
BRANCH   1  33
ATOM     33  C   UNL     1      34.509 -17.812 -22.847  0.00  0.00    +0.041 C 
BRANCH  33  34
ATOM     34  C   UNL     1      34.838 -17.223 -24.220  0.00  0.00    +0.112 C 
BRANCH  34  36
ATOM     35  O   UNL     1      33.383 -15.838 -25.598  0.00  0.00    -0.250 OA
ATOM     36  C   UNL     1      33.611 -16.905 -25.045  0.00  0.00    +0.314 C 
BRANCH  36  37
ATOM     37  O   UNL     1      32.779 -17.976 -25.132  0.00  0.00    -0.480 OA
ATOM     38  H   UNL     1      33.017 -18.788 -24.730  0.00  0.00    +0.295 HD
ENDBRANCH  36  37
ENDBRANCH  34  36
ENDBRANCH  33  34
ENDBRANCH   1  33
TORSDOF 11
ENDMDL
