MODEL 1
REMARK VINA RESULT:     -11.5      0.000      0.000
REMARK  Name = 10430040
REMARK  12 active torsions:
REMARK  status: ('A' for Active; 'I' for Inactive)
REMARK    1  A    between atoms: C_1  and  N_3
REMARK    2  A    between atoms: C_1  and  C_12
REMARK    3  A    between atoms: C_1  and  C_19
REMARK    4  A    between atoms: C_4  and  C_6
REMARK    5  A    between atoms: C_6  and  C_7
REMARK    6  A    between atoms: C_7  and  C_9
REMARK    7  A    between atoms: C_9  and  O_10
REMARK    8  A    between atoms: C_12  and  C_13
REMARK    9  A    between atoms: C_13  and  C_16
REMARK   10  A    between atoms: C_16  and  O_17
REMARK   11  A    between atoms: C_19  and  C_20
REMARK   12  A    between atoms: C_23  and  C_26
REMARK                            x       y       z     vdW  Elec       q    Type
REMARK                         _______ _______ _______ _____ _____    ______ ____
ROOT
ATOM      1  C   UNL     1      33.358 -22.834 -16.068  0.00  0.00    +0.076 C 
ENDROOT
BRANCH   1   3
ATOM      2  O   UNL     1      30.600 -22.224 -16.693  0.00  0.00    -0.275 OA
ATOM      3  N   UNL     1      32.178 -23.541 -15.610  0.00  0.00    -0.306 N 
ATOM      4  C   UNL     1      30.892 -23.170 -15.967  0.00  0.00    +0.223 C 
ATOM      5  H   UNL     1      32.295 -24.321 -15.020  0.00  0.00    +0.149 HD
BRANCH   4   6
ATOM      6  C   UNL     1      29.858 -24.087 -15.341  0.00  0.00    +0.097 C 
BRANCH   6   7
ATOM      7  C   UNL     1      28.526 -23.385 -15.099  0.00  0.00    +0.119 C 
BRANCH   7   9
ATOM      8  O   UNL     1      27.431 -23.935 -17.201  0.00  0.00    -0.250 OA
ATOM      9  C   UNL     1      27.795 -23.096 -16.389  0.00  0.00    +0.314 C 
BRANCH   9  10
ATOM     10  O   UNL     1      27.581 -21.764 -16.550  0.00  0.00    -0.480 OA
ATOM     11  H   UNL     1      27.989 -21.150 -15.973  0.00  0.00    +0.295 HD
ENDBRANCH   9  10
ENDBRANCH   7   9
ENDBRANCH   6   7
ENDBRANCH   4   6
ENDBRANCH   1   3
BRANCH   1  12
ATOM     12  C   UNL     1      34.472 -23.008 -15.015  0.00  0.00    +0.031 C 
BRANCH  12  13
ATOM     13  C   UNL     1      34.407 -24.315 -14.204  0.00  0.00    +0.101 C 
ATOM     14  C   UNL     1      35.735 -25.064 -14.286  0.00  0.00    +0.012 C 
BRANCH  13  16
ATOM     15  O   UNL     1      34.748 -24.489 -11.799  0.00  0.00    -0.250 OA
ATOM     16  C   UNL     1      34.099 -24.051 -12.740  0.00  0.00    +0.313 C 
BRANCH  16  17
ATOM     17  O   UNL     1      32.987 -23.288 -12.576  0.00  0.00    -0.480 OA
ATOM     18  H   UNL     1      32.650 -23.131 -11.717  0.00  0.00    +0.295 HD
ENDBRANCH  16  17
ENDBRANCH  13  16
ENDBRANCH  12  13
ENDBRANCH   1  12
BRANCH   1  19
ATOM     19  C   UNL     1      33.774 -23.335 -17.462  0.00  0.00    +0.046 C 
BRANCH  19  20
ATOM     20  C   UNL     1      34.029 -22.212 -18.441  0.00  0.00    -0.021 C 
ATOM     21  C   UNL     1      32.957 -21.494 -18.974  0.00  0.00    -0.004 C 
ATOM     22  C   UNL     1      35.335 -21.894 -18.814  0.00  0.00    -0.004 C 
ATOM     23  C   UNL     1      34.499 -20.139 -20.249  0.00  0.00    -0.000 C 
ATOM     24  C   UNL     1      33.192 -20.458 -19.876  0.00  0.00    -0.000 C 
ATOM     25  C   UNL     1      35.570 -20.858 -19.717  0.00  0.00    -0.000 C 
BRANCH  23  26
ATOM     26  C   UNL     1      34.743 -19.065 -21.185  0.00  0.00    -0.000 C 
ATOM     27  C   UNL     1      35.318 -17.873 -20.745  0.00  0.00    -0.000 C 
ATOM     28  C   UNL     1      34.404 -19.221 -22.530  0.00  0.00    -0.000 C 
ATOM     29  C   UNL     1      35.555 -16.837 -21.648  0.00  0.00    +0.000 C 
ATOM     30  C   UNL     1      34.641 -18.184 -23.433  0.00  0.00    +0.000 C 
ATOM     31  C   UNL     1      35.216 -16.992 -22.992  0.00  0.00    +0.000 C 
ENDBRANCH  23  26
ENDBRANCH  19  20
ENDBRANCH   1  19
TORSDOF 12
ENDMDL
MODEL 2
REMARK VINA RESULT:     -11.2      1.330      2.545
REMARK  Name = 10430040
REMARK  12 active torsions:
REMARK  status: ('A' for Active; 'I' for Inactive)
REMARK    1  A    between atoms: C_1  and  N_3
REMARK    2  A    between atoms: C_1  and  C_12
REMARK    3  A    between atoms: C_1  and  C_19
REMARK    4  A    between atoms: C_4  and  C_6
REMARK    5  A    between atoms: C_6  and  C_7
REMARK    6  A    between atoms: C_7  and  C_9
REMARK    7  A    between atoms: C_9  and  O_10
REMARK    8  A    between atoms: C_12  and  C_13
REMARK    9  A    between atoms: C_13  and  C_16
REMARK   10  A    between atoms: C_16  and  O_17
REMARK   11  A    between atoms: C_19  and  C_20
REMARK   12  A    between atoms: C_23  and  C_26
REMARK                            x       y       z     vdW  Elec       q    Type
REMARK                         _______ _______ _______ _____ _____    ______ ____
ROOT
ATOM      1  C   UNL     1      33.199 -22.825 -15.903  0.00  0.00    +0.076 C 
ENDROOT
BRANCH   1   3
ATOM      2  O   UNL     1      30.401 -22.384 -16.493  0.00  0.00    -0.275 OA
ATOM      3  N   UNL     1      32.066 -23.564 -15.382  0.00  0.00    -0.306 N 
ATOM      4  C   UNL     1      30.756 -23.276 -15.727  0.00  0.00    +0.223 C 
ATOM      5  H   UNL     1      32.234 -24.306 -14.757  0.00  0.00    +0.149 HD
BRANCH   4   6
ATOM      6  C   UNL     1      29.782 -24.209 -15.032  0.00  0.00    +0.097 C 
BRANCH   6   7
ATOM      7  C   UNL     1      30.488 -25.321 -14.262  0.00  0.00    +0.119 C 
BRANCH   7   9
ATOM      8  O   UNL     1      30.369 -24.208 -12.102  0.00  0.00    -0.250 OA
ATOM      9  C   UNL     1      31.010 -24.842 -12.928  0.00  0.00    +0.314 C 
BRANCH   9  10
ATOM     10  O   UNL     1      32.305 -25.207 -12.742  0.00  0.00    -0.480 OA
ATOM     11  H   UNL     1      32.960 -24.940 -13.356  0.00  0.00    +0.295 HD
ENDBRANCH   9  10
ENDBRANCH   7   9
ENDBRANCH   6   7
ENDBRANCH   4   6
ENDBRANCH   1   3
BRANCH   1  12
ATOM     12  C   UNL     1      34.352 -22.911 -14.881  0.00  0.00    +0.031 C 
BRANCH  12  13
ATOM     13  C   UNL     1      35.592 -23.687 -15.360  0.00  0.00    +0.101 C 
ATOM     14  C   UNL     1      36.853 -22.843 -15.186  0.00  0.00    +0.012 C 
BRANCH  13  16
ATOM     15  O   UNL     1      36.496 -25.909 -14.938  0.00  0.00    -0.250 OA
ATOM     16  C   UNL     1      35.776 -24.983 -14.589  0.00  0.00    +0.313 C 
BRANCH  16  17
ATOM     17  O   UNL     1      35.020 -25.023 -13.461  0.00  0.00    -0.480 OA
ATOM     18  H   UNL     1      35.259 -24.504 -12.718  0.00  0.00    +0.295 HD
ENDBRANCH  16  17
ENDBRANCH  13  16
ENDBRANCH  12  13
ENDBRANCH   1  12
BRANCH   1  19
ATOM     19  C   UNL     1      33.594 -23.359 -17.291  0.00  0.00    +0.046 C 
BRANCH  19  20
ATOM     20  C   UNL     1      33.886 -22.259 -18.285  0.00  0.00    -0.021 C 
ATOM     21  C   UNL     1      35.205 -21.970 -18.639  0.00  0.00    -0.004 C 
ATOM     22  C   UNL     1      32.837 -21.530 -18.848  0.00  0.00    -0.004 C 
ATOM     23  C   UNL     1      34.426 -20.228 -20.121  0.00  0.00    -0.000 C 
ATOM     24  C   UNL     1      35.474 -20.956 -19.557  0.00  0.00    -0.000 C 
ATOM     25  C   UNL     1      33.107 -20.516 -19.767  0.00  0.00    -0.000 C 
BRANCH  23  26
ATOM     26  C   UNL     1      34.705 -19.176 -21.072  0.00  0.00    -0.000 C 
ATOM     27  C   UNL     1      35.358 -18.015 -20.657  0.00  0.00    -0.000 C 
ATOM     28  C   UNL     1      34.322 -19.321 -22.406  0.00  0.00    -0.000 C 
ATOM     29  C   UNL     1      35.629 -17.000 -21.575  0.00  0.00    +0.000 C 
ATOM     30  C   UNL     1      34.593 -18.306 -23.324  0.00  0.00    +0.000 C 
ATOM     31  C   UNL     1      35.246 -17.145 -22.908  0.00  0.00    +0.000 C 
ENDBRANCH  23  26
ENDBRANCH  19  20
ENDBRANCH   1  19
TORSDOF 12
ENDMDL
MODEL 3
REMARK VINA RESULT:     -11.0      1.039      1.635
REMARK  Name = 10430040
REMARK  12 active torsions:
REMARK  status: ('A' for Active; 'I' for Inactive)
REMARK    1  A    between atoms: C_1  and  N_3
REMARK    2  A    between atoms: C_1  and  C_12
REMARK    3  A    between atoms: C_1  and  C_19
REMARK    4  A    between atoms: C_4  and  C_6
REMARK    5  A    between atoms: C_6  and  C_7
REMARK    6  A    between atoms: C_7  and  C_9
REMARK    7  A    between atoms: C_9  and  O_10
REMARK    8  A    between atoms: C_12  and  C_13
REMARK    9  A    between atoms: C_13  and  C_16
REMARK   10  A    between atoms: C_16  and  O_17
REMARK   11  A    between atoms: C_19  and  C_20
REMARK   12  A    between atoms: C_23  and  C_26
REMARK                            x       y       z     vdW  Elec       q    Type
REMARK                         _______ _______ _______ _____ _____    ______ ____
ROOT
ATOM      1  C   UNL     1      33.093 -22.840 -15.972  0.00  0.00    +0.076 C 
ENDROOT
BRANCH   1   3
ATOM      2  O   UNL     1      30.399 -22.157 -16.778  0.00  0.00    -0.275 OA
ATOM      3  N   UNL     1      31.867 -23.515 -15.595  0.00  0.00    -0.306 N 
ATOM      4  C   UNL     1      30.618 -23.111 -16.036  0.00  0.00    +0.223 C 
ATOM      5  H   UNL     1      31.924 -24.298 -15.000  0.00  0.00    +0.149 HD
BRANCH   4   6
ATOM      6  C   UNL     1      29.520 -24.001 -15.482  0.00  0.00    +0.097 C 
BRANCH   6   7
ATOM      7  C   UNL     1      28.195 -23.817 -16.215  0.00  0.00    +0.119 C 
BRANCH   7   9
ATOM      8  O   UNL     1      27.292 -22.092 -14.755  0.00  0.00    -0.250 OA
ATOM      9  C   UNL     1      27.543 -22.496 -15.882  0.00  0.00    +0.314 C 
BRANCH   9  10
ATOM     10  O   UNL     1      27.260 -21.785 -17.005  0.00  0.00    -0.480 OA
ATOM     11  H   UNL     1      27.956 -21.463 -17.543  0.00  0.00    +0.295 HD
ENDBRANCH   9  10
ENDBRANCH   7   9
ENDBRANCH   6   7
ENDBRANCH   4   6
ENDBRANCH   1   3
BRANCH   1  12
ATOM     12  C   UNL     1      34.123 -23.025 -14.839  0.00  0.00    +0.031 C 
BRANCH  12  13
ATOM     13  C   UNL     1      35.402 -23.783 -15.237  0.00  0.00    +0.101 C 
ATOM     14  C   UNL     1      36.607 -22.845 -15.226  0.00  0.00    +0.012 C 
BRANCH  13  16
ATOM     15  O   UNL     1      35.942 -24.818 -13.099  0.00  0.00    -0.250 OA
ATOM     16  C   UNL     1      35.688 -24.937 -14.291  0.00  0.00    +0.313 C 
BRANCH  16  17
ATOM     17  O   UNL     1      35.662 -26.140 -14.921  0.00  0.00    -0.480 OA
ATOM     18  H   UNL     1      35.791 -26.185 -15.848  0.00  0.00    +0.295 HD
ENDBRANCH  16  17
ENDBRANCH  13  16
ENDBRANCH  12  13
ENDBRANCH   1  12
BRANCH   1  19
ATOM     19  C   UNL     1      33.598 -23.365 -17.327  0.00  0.00    +0.046 C 
BRANCH  19  20
ATOM     20  C   UNL     1      33.897 -22.261 -18.315  0.00  0.00    -0.021 C 
ATOM     21  C   UNL     1      35.216 -21.985 -18.676  0.00  0.00    -0.004 C 
ATOM     22  C   UNL     1      32.853 -21.516 -18.866  0.00  0.00    -0.004 C 
ATOM     23  C   UNL     1      34.447 -20.222 -20.139  0.00  0.00    -0.000 C 
ATOM     24  C   UNL     1      35.491 -20.966 -19.588  0.00  0.00    -0.000 C 
ATOM     25  C   UNL     1      33.128 -20.498 -19.778  0.00  0.00    -0.000 C 
BRANCH  23  26
ATOM     26  C   UNL     1      34.732 -19.166 -21.084  0.00  0.00    -0.000 C 
ATOM     27  C   UNL     1      35.319 -17.978 -20.647  0.00  0.00    -0.000 C 
ATOM     28  C   UNL     1      34.423 -19.335 -22.434  0.00  0.00    -0.000 C 
ATOM     29  C   UNL     1      35.595 -16.959 -21.558  0.00  0.00    +0.000 C 
ATOM     30  C   UNL     1      34.699 -18.316 -23.346  0.00  0.00    +0.000 C 
ATOM     31  C   UNL     1      35.285 -17.128 -22.908  0.00  0.00    +0.000 C 
ENDBRANCH  23  26
ENDBRANCH  19  20
ENDBRANCH   1  19
TORSDOF 12
ENDMDL
MODEL 4
REMARK VINA RESULT:      -9.9      2.239      5.188
REMARK  Name = 10430040
REMARK  12 active torsions:
REMARK  status: ('A' for Active; 'I' for Inactive)
REMARK    1  A    between atoms: C_1  and  N_3
REMARK    2  A    between atoms: C_1  and  C_12
REMARK    3  A    between atoms: C_1  and  C_19
REMARK    4  A    between atoms: C_4  and  C_6
REMARK    5  A    between atoms: C_6  and  C_7
REMARK    6  A    between atoms: C_7  and  C_9
REMARK    7  A    between atoms: C_9  and  O_10
REMARK    8  A    between atoms: C_12  and  C_13
REMARK    9  A    between atoms: C_13  and  C_16
REMARK   10  A    between atoms: C_16  and  O_17
REMARK   11  A    between atoms: C_19  and  C_20
REMARK   12  A    between atoms: C_23  and  C_26
REMARK                            x       y       z     vdW  Elec       q    Type
REMARK                         _______ _______ _______ _____ _____    ______ ____
ROOT
ATOM      1  C   UNL     1      33.255 -23.495 -15.205  0.00  0.00    +0.076 C 
ENDROOT
BRANCH   1   3
ATOM      2  O   UNL     1      34.815 -24.269 -12.895  0.00  0.00    -0.275 OA
ATOM      3  N   UNL     1      34.621 -23.115 -14.902  0.00  0.00    -0.306 N 
ATOM      4  C   UNL     1      35.285 -23.540 -13.764  0.00  0.00    +0.223 C 
ATOM      5  H   UNL     1      35.098 -22.530 -15.534  0.00  0.00    +0.149 HD
BRANCH   4   6
ATOM      6  C   UNL     1      36.698 -22.988 -13.709  0.00  0.00    +0.097 C 
BRANCH   6   7
ATOM      7  C   UNL     1      37.606 -23.798 -12.791  0.00  0.00    +0.119 C 
BRANCH   7   9
ATOM      8  O   UNL     1      37.276 -23.837 -10.381  0.00  0.00    -0.250 OA
ATOM      9  C   UNL     1      37.634 -23.242 -11.387  0.00  0.00    +0.314 C 
BRANCH   9  10
ATOM     10  O   UNL     1      38.115 -21.971 -11.366  0.00  0.00    -0.480 OA
ATOM     11  H   UNL     1      37.994 -21.436 -10.607  0.00  0.00    +0.295 HD
ENDBRANCH   9  10
ENDBRANCH   7   9
ENDBRANCH   6   7
ENDBRANCH   4   6
ENDBRANCH   1   3
BRANCH   1  12
ATOM     12  C   UNL     1      32.324 -22.325 -14.821  0.00  0.00    +0.031 C 
BRANCH  12  13
ATOM     13  C   UNL     1      31.049 -22.729 -14.060  0.00  0.00    +0.101 C 
ATOM     14  C   UNL     1      30.161 -23.615 -14.932  0.00  0.00    +0.012 C 
BRANCH  13  16
ATOM     15  O   UNL     1      30.862 -24.549 -12.453  0.00  0.00    -0.250 OA
ATOM     16  C   UNL     1      31.373 -23.488 -12.785  0.00  0.00    +0.313 C 
BRANCH  16  17
ATOM     17  O   UNL     1      32.288 -22.840 -12.018  0.00  0.00    -0.480 OA
ATOM     18  H   UNL     1      33.176 -22.770 -12.307  0.00  0.00    +0.295 HD
ENDBRANCH  16  17
ENDBRANCH  13  16
ENDBRANCH  12  13
ENDBRANCH   1  12
BRANCH   1  19
ATOM     19  C   UNL     1      33.127 -23.895 -16.685  0.00  0.00    +0.046 C 
BRANCH  19  20
ATOM     20  C   UNL     1      33.697 -22.861 -17.629  0.00  0.00    -0.021 C 
ATOM     21  C   UNL     1      35.077 -22.668 -17.701  0.00  0.00    -0.004 C 
ATOM     22  C   UNL     1      32.843 -22.099 -18.427  0.00  0.00    -0.004 C 
ATOM     23  C   UNL     1      34.750 -20.952 -19.370  0.00  0.00    -0.000 C 
ATOM     24  C   UNL     1      35.603 -21.714 -18.571  0.00  0.00    -0.000 C 
ATOM     25  C   UNL     1      33.369 -21.146 -19.298  0.00  0.00    -0.000 C 
BRANCH  23  26
ATOM     26  C   UNL     1      35.295 -19.963 -20.273  0.00  0.00    -0.000 C 
ATOM     27  C   UNL     1      34.479 -19.378 -21.241  0.00  0.00    -0.000 C 
ATOM     28  C   UNL     1      36.636 -19.593 -20.175  0.00  0.00    -0.000 C 
ATOM     29  C   UNL     1      35.004 -18.423 -22.112  0.00  0.00    +0.000 C 
ATOM     30  C   UNL     1      37.161 -18.638 -21.046  0.00  0.00    +0.000 C 
ATOM     31  C   UNL     1      36.345 -18.053 -22.014  0.00  0.00    +0.000 C 
ENDBRANCH  23  26
ENDBRANCH  19  20
ENDBRANCH   1  19
TORSDOF 12
ENDMDL
MODEL 5
REMARK VINA RESULT:      -9.8      7.309     11.642
REMARK  Name = 10430040
REMARK  12 active torsions:
REMARK  status: ('A' for Active; 'I' for Inactive)
REMARK    1  A    between atoms: C_1  and  N_3
REMARK    2  A    between atoms: C_1  and  C_12
REMARK    3  A    between atoms: C_1  and  C_19
REMARK    4  A    between atoms: C_4  and  C_6
REMARK    5  A    between atoms: C_6  and  C_7
REMARK    6  A    between atoms: C_7  and  C_9
REMARK    7  A    between atoms: C_9  and  O_10
REMARK    8  A    between atoms: C_12  and  C_13
REMARK    9  A    between atoms: C_13  and  C_16
REMARK   10  A    between atoms: C_16  and  O_17
REMARK   11  A    between atoms: C_19  and  C_20
REMARK   12  A    between atoms: C_23  and  C_26
REMARK                            x       y       z     vdW  Elec       q    Type
REMARK                         _______ _______ _______ _____ _____    ______ ____
ROOT
ATOM      1  C   UNL     1      33.110 -13.368 -22.804  0.00  0.00    +0.076 C 
ENDROOT
BRANCH   1   3
ATOM      2  O   UNL     1      31.909 -13.824 -20.212  0.00  0.00    -0.275 OA
ATOM      3  N   UNL     1      32.752 -12.370 -21.815  0.00  0.00    -0.306 N 
ATOM      4  C   UNL     1      32.179 -12.689 -20.596  0.00  0.00    +0.223 C 
ATOM      5  H   UNL     1      32.925 -11.422 -22.019  0.00  0.00    +0.149 HD
BRANCH   4   6
ATOM      6  C   UNL     1      31.912 -11.446 -19.767  0.00  0.00    +0.097 C 
BRANCH   6   7
ATOM      7  C   UNL     1      30.910 -10.507 -20.429  0.00  0.00    +0.119 C 
BRANCH   7   9
ATOM      8  O   UNL     1      31.716  -8.243 -20.048  0.00  0.00    -0.250 OA
ATOM      9  C   UNL     1      31.538  -9.185 -20.806  0.00  0.00    +0.314 C 
BRANCH   9  10
ATOM     10  O   UNL     1      31.894  -9.162 -22.117  0.00  0.00    -0.480 OA
ATOM     11  H   UNL     1      32.044  -9.964 -22.577  0.00  0.00    +0.295 HD
ENDBRANCH   9  10
ENDBRANCH   7   9
ENDBRANCH   6   7
ENDBRANCH   4   6
ENDBRANCH   1   3
BRANCH   1  12
ATOM     12  C   UNL     1      32.752 -12.823 -24.202  0.00  0.00    +0.031 C 
BRANCH  12  13
ATOM     13  C   UNL     1      33.947 -12.324 -25.034  0.00  0.00    +0.101 C 
ATOM     14  C   UNL     1      33.654 -12.456 -26.527  0.00  0.00    +0.012 C 
BRANCH  13  16
ATOM     15  O   UNL     1      33.673 -10.172 -23.926  0.00  0.00    -0.250 OA
ATOM     16  C   UNL     1      34.268 -10.869 -24.739  0.00  0.00    +0.313 C 
BRANCH  16  17
ATOM     17  O   UNL     1      35.285 -10.399 -25.506  0.00  0.00    -0.480 OA
ATOM     18  H   UNL     1      35.452  -9.478 -25.549  0.00  0.00    +0.295 HD
ENDBRANCH  16  17
ENDBRANCH  13  16
ENDBRANCH  12  13
ENDBRANCH   1  12
BRANCH   1  19
ATOM     19  C   UNL     1      34.597 -13.740 -22.674  0.00  0.00    +0.046 C 
BRANCH  19  20
ATOM     20  C   UNL     1      34.812 -15.116 -22.086  0.00  0.00    -0.021 C 
ATOM     21  C   UNL     1      34.889 -15.279 -20.702  0.00  0.00    -0.004 C 
ATOM     22  C   UNL     1      34.935 -16.223 -22.927  0.00  0.00    -0.004 C 
ATOM     23  C   UNL     1      35.209 -17.655 -21.000  0.00  0.00    -0.000 C 
ATOM     24  C   UNL     1      35.087 -16.548 -20.160  0.00  0.00    -0.000 C 
ATOM     25  C   UNL     1      35.133 -17.492 -22.384  0.00  0.00    -0.000 C 
BRANCH  23  26
ATOM     26  C   UNL     1      35.415 -18.971 -20.438  0.00  0.00    -0.000 C 
ATOM     27  C   UNL     1      36.695 -19.374 -20.055  0.00  0.00    -0.000 C 
ATOM     28  C   UNL     1      34.333 -19.838 -20.275  0.00  0.00    -0.000 C 
ATOM     29  C   UNL     1      36.893 -20.644 -19.512  0.00  0.00    +0.000 C 
ATOM     30  C   UNL     1      34.532 -21.107 -19.732  0.00  0.00    +0.000 C 
ATOM     31  C   UNL     1      35.812 -21.510 -19.350  0.00  0.00    +0.000 C 
ENDBRANCH  23  26
ENDBRANCH  19  20
ENDBRANCH   1  19
TORSDOF 12
ENDMDL
MODEL 6
REMARK VINA RESULT:      -9.6      1.670      5.019
REMARK  Name = 10430040
REMARK  12 active torsions:
REMARK  status: ('A' for Active; 'I' for Inactive)
REMARK    1  A    between atoms: C_1  and  N_3
REMARK    2  A    between atoms: C_1  and  C_12
REMARK    3  A    between atoms: C_1  and  C_19
REMARK    4  A    between atoms: C_4  and  C_6
REMARK    5  A    between atoms: C_6  and  C_7
REMARK    6  A    between atoms: C_7  and  C_9
REMARK    7  A    between atoms: C_9  and  O_10
REMARK    8  A    between atoms: C_12  and  C_13
REMARK    9  A    between atoms: C_13  and  C_16
REMARK   10  A    between atoms: C_16  and  O_17
REMARK   11  A    between atoms: C_19  and  C_20
REMARK   12  A    between atoms: C_23  and  C_26
REMARK                            x       y       z     vdW  Elec       q    Type
REMARK                         _______ _______ _______ _____ _____    ______ ____
ROOT
ATOM      1  C   UNL     1      33.405 -23.466 -16.596  0.00  0.00    +0.076 C 
ENDROOT
BRANCH   1   3
ATOM      2  O   UNL     1      35.593 -24.655 -15.123  0.00  0.00    -0.275 OA
ATOM      3  N   UNL     1      34.482 -22.774 -15.916  0.00  0.00    -0.306 N 
ATOM      4  C   UNL     1      35.490 -23.436 -15.235  0.00  0.00    +0.223 C 
ATOM      5  H   UNL     1      34.500 -21.790 -15.941  0.00  0.00    +0.149 HD
BRANCH   4   6
ATOM      6  C   UNL     1      36.477 -22.460 -14.622  0.00  0.00    +0.097 C 
BRANCH   6   7
ATOM      7  C   UNL     1      37.468 -23.142 -13.685  0.00  0.00    +0.119 C 
BRANCH   7   9
ATOM      8  O   UNL     1      36.024 -23.203 -11.728  0.00  0.00    -0.250 OA
ATOM      9  C   UNL     1      37.105 -22.938 -12.233  0.00  0.00    +0.314 C 
BRANCH   9  10
ATOM     10  O   UNL     1      38.144 -22.414 -11.531  0.00  0.00    -0.480 OA
ATOM     11  H   UNL     1      39.025 -22.578 -11.805  0.00  0.00    +0.295 HD
ENDBRANCH   9  10
ENDBRANCH   7   9
ENDBRANCH   6   7
ENDBRANCH   4   6
ENDBRANCH   1   3
BRANCH   1  12
ATOM     12  C   UNL     1      32.112 -22.641 -16.433  0.00  0.00    +0.031 C 
BRANCH  12  13
ATOM     13  C   UNL     1      31.072 -23.240 -15.468  0.00  0.00    +0.101 C 
ATOM     14  C   UNL     1      31.193 -22.601 -14.086  0.00  0.00    +0.012 C 
BRANCH  13  16
ATOM     15  O   UNL     1      29.263 -22.028 -16.558  0.00  0.00    -0.250 OA
ATOM     16  C   UNL     1      29.654 -23.027 -15.969  0.00  0.00    +0.313 C 
BRANCH  16  17
ATOM     17  O   UNL     1      28.838 -24.069 -15.665  0.00  0.00    -0.480 OA
ATOM     18  H   UNL     1      28.520 -24.174 -14.790  0.00  0.00    +0.295 HD
ENDBRANCH  16  17
ENDBRANCH  13  16
ENDBRANCH  12  13
ENDBRANCH   1  12
BRANCH   1  19
ATOM     19  C   UNL     1      33.772 -23.710 -18.070  0.00  0.00    +0.046 C 
BRANCH  19  20
ATOM     20  C   UNL     1      34.044 -22.433 -18.831  0.00  0.00    -0.021 C 
ATOM     21  C   UNL     1      32.982 -21.625 -19.240  0.00  0.00    -0.004 C 
ATOM     22  C   UNL     1      35.356 -22.061 -19.126  0.00  0.00    -0.004 C 
ATOM     23  C   UNL     1      34.544 -20.074 -20.235  0.00  0.00    -0.000 C 
ATOM     24  C   UNL     1      33.233 -20.446 -19.941  0.00  0.00    -0.000 C 
ATOM     25  C   UNL     1      35.606 -20.882 -19.827  0.00  0.00    -0.000 C 
BRANCH  23  26
ATOM     26  C   UNL     1      34.804 -18.852 -20.962  0.00  0.00    -0.000 C 
ATOM     27  C   UNL     1      35.106 -17.679 -20.270  0.00  0.00    -0.000 C 
ATOM     28  C   UNL     1      34.756 -18.846 -22.357  0.00  0.00    -0.000 C 
ATOM     29  C   UNL     1      35.358 -16.500 -20.972  0.00  0.00    +0.000 C 
ATOM     30  C   UNL     1      35.008 -17.666 -23.058  0.00  0.00    +0.000 C 
ATOM     31  C   UNL     1      35.309 -16.493 -22.365  0.00  0.00    +0.000 C 
ENDBRANCH  23  26
ENDBRANCH  19  20
ENDBRANCH   1  19
TORSDOF 12
ENDMDL
MODEL 7
REMARK VINA RESULT:      -9.6      1.541      2.432
REMARK  Name = 10430040
REMARK  12 active torsions:
REMARK  status: ('A' for Active; 'I' for Inactive)
REMARK    1  A    between atoms: C_1  and  N_3
REMARK    2  A    between atoms: C_1  and  C_12
REMARK    3  A    between atoms: C_1  and  C_19
REMARK    4  A    between atoms: C_4  and  C_6
REMARK    5  A    between atoms: C_6  and  C_7
REMARK    6  A    between atoms: C_7  and  C_9
REMARK    7  A    between atoms: C_9  and  O_10
REMARK    8  A    between atoms: C_12  and  C_13
REMARK    9  A    between atoms: C_13  and  C_16
REMARK   10  A    between atoms: C_16  and  O_17
REMARK   11  A    between atoms: C_19  and  C_20
REMARK   12  A    between atoms: C_23  and  C_26
REMARK                            x       y       z     vdW  Elec       q    Type
REMARK                         _______ _______ _______ _____ _____    ______ ____
ROOT
ATOM      1  C   UNL     1      34.393 -23.313 -14.399  0.00  0.00    +0.076 C 
ENDROOT
BRANCH   1   3
ATOM      2  O   UNL     1      31.774 -22.248 -13.787  0.00  0.00    -0.275 OA
ATOM      3  N   UNL     1      33.130 -23.690 -15.003  0.00  0.00    -0.306 N 
ATOM      4  C   UNL     1      31.922 -23.118 -14.641  0.00  0.00    +0.223 C 
ATOM      5  H   UNL     1      33.131 -24.382 -15.704  0.00  0.00    +0.149 HD
BRANCH   4   6
ATOM      6  C   UNL     1      30.771 -23.706 -15.437  0.00  0.00    +0.097 C 
BRANCH   6   7
ATOM      7  C   UNL     1      29.415 -23.189 -14.969  0.00  0.00    +0.119 C 
BRANCH   7   9
ATOM      8  O   UNL     1      28.042 -24.072 -16.774  0.00  0.00    -0.250 OA
ATOM      9  C   UNL     1      28.414 -23.123 -16.099  0.00  0.00    +0.314 C 
BRANCH   9  10
ATOM     10  O   UNL     1      27.961 -21.856 -16.286  0.00  0.00    -0.480 OA
ATOM     11  H   UNL     1      28.478 -21.238 -16.765  0.00  0.00    +0.295 HD
ENDBRANCH   9  10
ENDBRANCH   7   9
ENDBRANCH   6   7
ENDBRANCH   4   6
ENDBRANCH   1   3
BRANCH   1  12
ATOM     12  C   UNL     1      34.520 -24.032 -13.040  0.00  0.00    +0.031 C 
BRANCH  12  13
ATOM     13  C   UNL     1      35.956 -24.153 -12.498  0.00  0.00    +0.101 C 
ATOM     14  C   UNL     1      36.717 -22.844 -12.697  0.00  0.00    +0.012 C 
BRANCH  13  16
ATOM     15  O   UNL     1      36.859 -24.178 -10.236  0.00  0.00    -0.250 OA
ATOM     16  C   UNL     1      35.970 -24.491 -11.017  0.00  0.00    +0.313 C 
BRANCH  16  17
ATOM     17  O   UNL     1      34.884 -25.216 -10.643  0.00  0.00    -0.480 OA
ATOM     18  H   UNL     1      34.112 -25.211 -11.174  0.00  0.00    +0.295 HD
ENDBRANCH  16  17
ENDBRANCH  13  16
ENDBRANCH  12  13
ENDBRANCH   1  12
BRANCH   1  19
ATOM     19  C   UNL     1      35.558 -23.632 -15.352  0.00  0.00    +0.046 C 
BRANCH  19  20
ATOM     20  C   UNL     1      35.593 -22.732 -16.565  0.00  0.00    -0.021 C 
ATOM     21  C   UNL     1      36.716 -21.943 -16.817  0.00  0.00    -0.004 C 
ATOM     22  C   UNL     1      34.501 -22.688 -17.433  0.00  0.00    -0.004 C 
ATOM     23  C   UNL     1      35.657 -21.068 -18.805  0.00  0.00    -0.000 C 
ATOM     24  C   UNL     1      36.748 -21.112 -17.937  0.00  0.00    -0.000 C 
ATOM     25  C   UNL     1      34.534 -21.857 -18.553  0.00  0.00    -0.000 C 
BRANCH  23  26
ATOM     26  C   UNL     1      35.690 -20.207 -19.966  0.00  0.00    -0.000 C 
ATOM     27  C   UNL     1      34.584 -20.136 -20.813  0.00  0.00    -0.000 C 
ATOM     28  C   UNL     1      36.827 -19.445 -20.237  0.00  0.00    -0.000 C 
ATOM     29  C   UNL     1      34.615 -19.304 -21.933  0.00  0.00    +0.000 C 
ATOM     30  C   UNL     1      36.857 -18.614 -21.357  0.00  0.00    +0.000 C 
ATOM     31  C   UNL     1      35.751 -18.543 -22.205  0.00  0.00    +0.000 C 
ENDBRANCH  23  26
ENDBRANCH  19  20
ENDBRANCH   1  19
TORSDOF 12
ENDMDL
MODEL 8
REMARK VINA RESULT:      -9.6      2.715      5.461
REMARK  Name = 10430040
REMARK  12 active torsions:
REMARK  status: ('A' for Active; 'I' for Inactive)
REMARK    1  A    between atoms: C_1  and  N_3
REMARK    2  A    between atoms: C_1  and  C_12
REMARK    3  A    between atoms: C_1  and  C_19
REMARK    4  A    between atoms: C_4  and  C_6
REMARK    5  A    between atoms: C_6  and  C_7
REMARK    6  A    between atoms: C_7  and  C_9
REMARK    7  A    between atoms: C_9  and  O_10
REMARK    8  A    between atoms: C_12  and  C_13
REMARK    9  A    between atoms: C_13  and  C_16
REMARK   10  A    between atoms: C_16  and  O_17
REMARK   11  A    between atoms: C_19  and  C_20
REMARK   12  A    between atoms: C_23  and  C_26
REMARK                            x       y       z     vdW  Elec       q    Type
REMARK                         _______ _______ _______ _____ _____    ______ ____
ROOT
ATOM      1  C   UNL     1      35.615 -24.321 -15.354  0.00  0.00    +0.076 C 
ENDROOT
BRANCH   1   3
ATOM      2  O   UNL     1      36.564 -27.040 -15.619  0.00  0.00    -0.275 OA
ATOM      3  N   UNL     1      36.343 -25.095 -14.369  0.00  0.00    -0.306 N 
ATOM      4  C   UNL     1      36.757 -26.398 -14.591  0.00  0.00    +0.223 C 
ATOM      5  H   UNL     1      36.554 -24.676 -13.503  0.00  0.00    +0.149 HD
BRANCH   4   6
ATOM      6  C   UNL     1      37.494 -26.957 -13.388  0.00  0.00    +0.097 C 
BRANCH   6   7
ATOM      7  C   UNL     1      38.297 -25.892 -12.648  0.00  0.00    +0.119 C 
BRANCH   7   9
ATOM      8  O   UNL     1      37.902 -24.392 -10.773  0.00  0.00    -0.250 OA
ATOM      9  C   UNL     1      37.540 -25.332 -11.466  0.00  0.00    +0.314 C 
BRANCH   9  10
ATOM     10  O   UNL     1      36.380 -26.007 -11.255  0.00  0.00    -0.480 OA
ATOM     11  H   UNL     1      36.346 -26.934 -11.387  0.00  0.00    +0.295 HD
ENDBRANCH   9  10
ENDBRANCH   7   9
ENDBRANCH   6   7
ENDBRANCH   4   6
ENDBRANCH   1   3
BRANCH   1  12
ATOM     12  C   UNL     1      34.111 -24.627 -15.206  0.00  0.00    +0.031 C 
BRANCH  12  13
ATOM     13  C   UNL     1      33.326 -23.636 -14.326  0.00  0.00    +0.101 C 
ATOM     14  C   UNL     1      32.064 -23.163 -15.045  0.00  0.00    +0.012 C 
BRANCH  13  16
ATOM     15  O   UNL     1      31.760 -24.372 -12.612  0.00  0.00    -0.250 OA
ATOM     16  C   UNL     1      32.915 -24.263 -13.005  0.00  0.00    +0.313 C 
BRANCH  16  17
ATOM     17  O   UNL     1      33.983 -24.674 -12.274  0.00  0.00    -0.480 OA
ATOM     18  H   UNL     1      33.920 -25.443 -11.743  0.00  0.00    +0.295 HD
ENDBRANCH  16  17
ENDBRANCH  13  16
ENDBRANCH  12  13
ENDBRANCH   1  12
BRANCH   1  19
ATOM     19  C   UNL     1      35.935 -22.823 -15.200  0.00  0.00    +0.046 C 
BRANCH  19  20
ATOM     20  C   UNL     1      35.929 -22.080 -16.516  0.00  0.00    -0.021 C 
ATOM     21  C   UNL     1      36.993 -21.239 -16.847  0.00  0.00    -0.004 C 
ATOM     22  C   UNL     1      34.860 -22.233 -17.400  0.00  0.00    -0.004 C 
ATOM     23  C   UNL     1      35.920 -20.707 -18.945  0.00  0.00    -0.000 C 
ATOM     24  C   UNL     1      36.988 -20.554 -18.061  0.00  0.00    -0.000 C 
ATOM     25  C   UNL     1      34.856 -21.547 -18.614  0.00  0.00    -0.000 C 
BRANCH  23  26
ATOM     26  C   UNL     1      35.914 -19.996 -20.204  0.00  0.00    -0.000 C 
ATOM     27  C   UNL     1      36.979 -19.159 -20.537  0.00  0.00    -0.000 C 
ATOM     28  C   UNL     1      34.845 -20.148 -21.087  0.00  0.00    -0.000 C 
ATOM     29  C   UNL     1      36.975 -18.474 -21.752  0.00  0.00    +0.000 C 
ATOM     30  C   UNL     1      34.841 -19.463 -22.302  0.00  0.00    +0.000 C 
ATOM     31  C   UNL     1      35.906 -18.625 -22.635  0.00  0.00    +0.000 C 
ENDBRANCH  23  26
ENDBRANCH  19  20
ENDBRANCH   1  19
TORSDOF 12
ENDMDL
MODEL 9
REMARK VINA RESULT:      -9.5      7.367     11.635
REMARK  Name = 10430040
REMARK  12 active torsions:
REMARK  status: ('A' for Active; 'I' for Inactive)
REMARK    1  A    between atoms: C_1  and  N_3
REMARK    2  A    between atoms: C_1  and  C_12
REMARK    3  A    between atoms: C_1  and  C_19
REMARK    4  A    between atoms: C_4  and  C_6
REMARK    5  A    between atoms: C_6  and  C_7
REMARK    6  A    between atoms: C_7  and  C_9
REMARK    7  A    between atoms: C_9  and  O_10
REMARK    8  A    between atoms: C_12  and  C_13
REMARK    9  A    between atoms: C_13  and  C_16
REMARK   10  A    between atoms: C_16  and  O_17
REMARK   11  A    between atoms: C_19  and  C_20
REMARK   12  A    between atoms: C_23  and  C_26
REMARK                            x       y       z     vdW  Elec       q    Type
REMARK                         _______ _______ _______ _____ _____    ______ ____
ROOT
ATOM      1  C   UNL     1      34.025 -13.202 -22.435  0.00  0.00    +0.076 C 
ENDROOT
BRANCH   1   3
ATOM      2  O   UNL     1      33.476 -12.112 -25.058  0.00  0.00    -0.275 OA
ATOM      3  N   UNL     1      34.422 -11.906 -22.946  0.00  0.00    -0.306 N 
ATOM      4  C   UNL     1      34.110 -11.471 -24.223  0.00  0.00    +0.223 C 
ATOM      5  H   UNL     1      34.937 -11.306 -22.359  0.00  0.00    +0.149 HD
BRANCH   4   6
ATOM      6  C   UNL     1      34.654 -10.079 -24.483  0.00  0.00    +0.097 C 
BRANCH   6   7
ATOM      7  C   UNL     1      34.589  -9.187 -23.248  0.00  0.00    +0.119 C 
BRANCH   7   9
ATOM      8  O   UNL     1      32.207  -8.998 -22.790  0.00  0.00    -0.250 OA
ATOM      9  C   UNL     1      33.259  -8.478 -23.132  0.00  0.00    +0.314 C 
BRANCH   9  10
ATOM     10  O   UNL     1      33.368  -7.164 -23.457  0.00  0.00    -0.480 OA
ATOM     11  H   UNL     1      33.163  -6.505 -22.822  0.00  0.00    +0.295 HD
ENDBRANCH   9  10
ENDBRANCH   7   9
ENDBRANCH   6   7
ENDBRANCH   4   6
ENDBRANCH   1   3
BRANCH   1  12
ATOM     12  C   UNL     1      32.485 -13.245 -22.350  0.00  0.00    +0.031 C 
BRANCH  12  13
ATOM     13  C   UNL     1      31.906 -13.141 -20.927  0.00  0.00    +0.101 C 
ATOM     14  C   UNL     1      32.883 -13.724 -19.908  0.00  0.00    +0.012 C 
BRANCH  13  16
ATOM     15  O   UNL     1      32.169 -11.096 -19.631  0.00  0.00    -0.250 OA
ATOM     16  C   UNL     1      31.619 -11.700 -20.543  0.00  0.00    +0.313 C 
BRANCH  16  17
ATOM     17  O   UNL     1      30.646 -11.146 -21.311  0.00  0.00    -0.480 OA
ATOM     18  H   UNL     1      30.765 -11.072 -22.237  0.00  0.00    +0.295 HD
ENDBRANCH  16  17
ENDBRANCH  13  16
ENDBRANCH  12  13
ENDBRANCH   1  12
BRANCH   1  19
ATOM     19  C   UNL     1      34.603 -14.325 -23.315  0.00  0.00    +0.046 C 
BRANCH  19  20
ATOM     20  C   UNL     1      34.792 -15.624 -22.567  0.00  0.00    -0.021 C 
ATOM     21  C   UNL     1      35.011 -15.610 -21.189  0.00  0.00    -0.004 C 
ATOM     22  C   UNL     1      34.748 -16.838 -23.254  0.00  0.00    -0.004 C 
ATOM     23  C   UNL     1      35.141 -18.023 -21.185  0.00  0.00    -0.000 C 
ATOM     24  C   UNL     1      35.185 -16.809 -20.499  0.00  0.00    -0.000 C 
ATOM     25  C   UNL     1      34.922 -18.037 -22.563  0.00  0.00    -0.000 C 
BRANCH  23  26
ATOM     26  C   UNL     1      35.322 -19.266 -20.470  0.00  0.00    -0.000 C 
ATOM     27  C   UNL     1      36.604 -19.686 -20.114  0.00  0.00    -0.000 C 
ATOM     28  C   UNL     1      34.214 -20.045 -20.133  0.00  0.00    -0.000 C 
ATOM     29  C   UNL     1      36.778 -20.885 -19.422  0.00  0.00    +0.000 C 
ATOM     30  C   UNL     1      34.389 -21.244 -19.442  0.00  0.00    +0.000 C 
ATOM     31  C   UNL     1      35.671 -21.664 -19.087  0.00  0.00    +0.000 C 
ENDBRANCH  23  26
ENDBRANCH  19  20
ENDBRANCH   1  19
TORSDOF 12
ENDMDL
