MODEL 1
REMARK VINA RESULT:     -10.6      0.000      0.000
REMARK  Name = 25093369
REMARK  5 active torsions:
REMARK  status: ('A' for Active; 'I' for Inactive)
REMARK    1  A    between atoms: C_1  and  C_3
REMARK    2  A    between atoms: C_1  and  C_17
REMARK    3  A    between atoms: C_4  and  C_9
REMARK    4  A    between atoms: C_7  and  O_15
REMARK    5  A    between atoms: C_18  and  C_23
REMARK                            x       y       z     vdW  Elec       q    Type
REMARK                         _______ _______ _______ _____ _____    ______ ____
ROOT
ATOM      1  C   UNL     1      33.671 -11.064 -24.099  0.00  0.00    +0.086 C 
ATOM      2  C   UNL     1      34.947 -10.373 -24.620  0.00  0.00    +0.019 C 
ENDROOT
BRANCH   1   3
ATOM      3  C   UNL     1      32.977 -10.265 -23.048  0.00  0.00    -0.007 C 
ATOM      4  C   UNL     1      32.206  -8.136 -22.206  0.00  0.00    +0.003 C 
ATOM      5  C   UNL     1      32.855  -8.882 -23.189  0.00  0.00    -0.003 C 
ATOM      6  C   UNL     1      32.451 -10.901 -21.923  0.00  0.00    +0.034 C 
ATOM      7  C   UNL     1      31.803 -10.154 -20.940  0.00  0.00    +0.138 C 
ATOM      8  C   UNL     1      31.681  -8.771 -21.081  0.00  0.00    +0.037 C 
BRANCH   4   9
ATOM      9  C   UNL     1      32.078  -6.703 -22.352  0.00  0.00    +0.000 C 
ATOM     10  C   UNL     1      32.869  -6.021 -23.276  0.00  0.00    +0.000 C 
ATOM     11  C   UNL     1      31.162  -6.001 -21.568  0.00  0.00    +0.000 C 
ATOM     12  C   UNL     1      32.746  -4.640 -23.418  0.00  0.00    +0.000 C 
ATOM     13  C   UNL     1      31.037  -4.619 -21.709  0.00  0.00    +0.000 C 
ATOM     14  C   UNL     1      31.829  -3.938 -22.634  0.00  0.00    +0.000 C 
ENDBRANCH   4   9
BRANCH   7  15
ATOM     15  O   UNL     1      31.288 -10.775 -19.843  0.00  0.00    -0.471 OA
ATOM     16  C   UNL     1      31.849 -10.429 -18.578  0.00  0.00    +0.252 C 
ENDBRANCH   7  15
ENDBRANCH   1   3
BRANCH   1  17
ATOM     17  C   UNL     1      33.999 -12.438 -23.641  0.00  0.00    -0.087 C 
ATOM     18  C   UNL     1      34.280 -13.550 -23.286  0.00  0.00    -0.076 C 
BRANCH  18  23
ATOM     19  N   UNL     1      35.161 -16.414 -21.096  0.00  0.00    -0.336 NA
ATOM     20  N   UNL     1      35.084 -17.180 -23.379  0.00  0.00    -0.317 NA
ATOM     21  N   UNL     1      34.557 -15.682 -25.132  0.00  0.00    -0.334 N 
ATOM     22  N   UNL     1      35.605 -18.655 -21.631  0.00  0.00    -0.283 N 
ATOM     23  C   UNL     1      34.623 -14.874 -22.865  0.00  0.00    +0.179 C 
ATOM     24  C   UNL     1      34.837 -15.181 -21.537  0.00  0.00    +0.120 C 
ATOM     25  C   UNL     1      34.761 -15.923 -23.751  0.00  0.00    +0.186 C 
ATOM     26  C   UNL     1      34.719 -14.134 -20.476  0.00  0.00    +0.064 C 
ATOM     27  C   UNL     1      35.267 -17.352 -22.056  0.00  0.00    +0.196 C 
ATOM     28  H   UNL     1      34.650 -16.418 -25.779  0.00  0.00    +0.144 HD
ATOM     29  H   UNL     1      34.319 -14.778 -25.444  0.00  0.00    +0.144 HD
ATOM     30  H   UNL     1      35.751 -18.838 -20.675  0.00  0.00    +0.156 HD
ATOM     31  H   UNL     1      35.696 -19.381 -22.291  0.00  0.00    +0.156 HD
ENDBRANCH  18  23
ENDBRANCH   1  17
TORSDOF 5
ENDMDL
MODEL 2
REMARK VINA RESULT:     -10.3      9.737     13.424
REMARK  Name = 25093369
REMARK  5 active torsions:
REMARK  status: ('A' for Active; 'I' for Inactive)
REMARK    1  A    between atoms: C_1  and  C_3
REMARK    2  A    between atoms: C_1  and  C_17
REMARK    3  A    between atoms: C_4  and  C_9
REMARK    4  A    between atoms: C_7  and  O_15
REMARK    5  A    between atoms: C_18  and  C_23
REMARK                            x       y       z     vdW  Elec       q    Type
REMARK                         _______ _______ _______ _____ _____    ______ ____
ROOT
ATOM      1  C   UNL     1      37.267 -22.018 -16.775  0.00  0.00    +0.086 C 
ATOM      2  C   UNL     1      38.112 -20.752 -16.535  0.00  0.00    +0.019 C 
ENDROOT
BRANCH   1   3
ATOM      3  C   UNL     1      36.085 -21.761 -17.646  0.00  0.00    -0.007 C 
ATOM      4  C   UNL     1      35.094 -20.667 -19.559  0.00  0.00    +0.003 C 
ATOM      5  C   UNL     1      36.200 -20.908 -18.745  0.00  0.00    -0.003 C 
ATOM      6  C   UNL     1      34.863 -22.371 -17.361  0.00  0.00    +0.034 C 
ATOM      7  C   UNL     1      33.757 -22.128 -18.176  0.00  0.00    +0.138 C 
ATOM      8  C   UNL     1      33.872 -21.277 -19.274  0.00  0.00    +0.037 C 
BRANCH   4   9
ATOM      9  C   UNL     1      35.213 -19.784 -20.699  0.00  0.00    +0.000 C 
ATOM     10  C   UNL     1      36.360 -19.009 -20.865  0.00  0.00    +0.000 C 
ATOM     11  C   UNL     1      34.180 -19.709 -21.633  0.00  0.00    +0.000 C 
ATOM     12  C   UNL     1      36.475 -18.159 -21.964  0.00  0.00    +0.000 C 
ATOM     13  C   UNL     1      34.294 -18.859 -22.733  0.00  0.00    +0.000 C 
ATOM     14  C   UNL     1      35.442 -18.084 -22.899  0.00  0.00    +0.000 C 
ENDBRANCH   4   9
BRANCH   7  15
ATOM     15  O   UNL     1      32.565 -22.725 -17.899  0.00  0.00    -0.471 OA
ATOM     16  C   UNL     1      32.320 -23.086 -16.541  0.00  0.00    +0.252 C 
ENDBRANCH   7  15
ENDBRANCH   1   3
BRANCH   1  17
ATOM     17  C   UNL     1      36.890 -22.621 -15.471  0.00  0.00    -0.087 C 
ATOM     18  C   UNL     1      36.600 -23.096 -14.407  0.00  0.00    -0.076 C 
BRANCH  18  23
ATOM     19  N   UNL     1      36.929 -24.784 -11.118  0.00  0.00    -0.336 NA
ATOM     20  N   UNL     1      34.622 -24.170 -11.447  0.00  0.00    -0.317 NA
ATOM     21  N   UNL     1      33.942 -23.063 -13.423  0.00  0.00    -0.334 N 
ATOM     22  N   UNL     1      35.310 -25.270  -9.491  0.00  0.00    -0.283 N 
ATOM     23  C   UNL     1      36.258 -23.657 -13.136  0.00  0.00    +0.179 C 
ATOM     24  C   UNL     1      37.206 -24.244 -12.323  0.00  0.00    +0.120 C 
ATOM     25  C   UNL     1      34.970 -23.649 -12.642  0.00  0.00    +0.186 C 
ATOM     26  C   UNL     1      38.640 -24.318 -12.741  0.00  0.00    +0.064 C 
ATOM     27  C   UNL     1      35.636 -24.714 -10.748  0.00  0.00    +0.196 C 
ATOM     28  H   UNL     1      33.017 -23.046 -13.087  0.00  0.00    +0.144 HD
ATOM     29  H   UNL     1      34.155 -22.670 -14.301  0.00  0.00    +0.144 HD
ATOM     30  H   UNL     1      36.012 -25.681  -8.937  0.00  0.00    +0.156 HD
ATOM     31  H   UNL     1      34.379 -25.246  -9.170  0.00  0.00    +0.156 HD
ENDBRANCH  18  23
ENDBRANCH   1  17
TORSDOF 5
ENDMDL
MODEL 3
REMARK VINA RESULT:     -10.3      4.776      8.007
REMARK  Name = 25093369
REMARK  5 active torsions:
REMARK  status: ('A' for Active; 'I' for Inactive)
REMARK    1  A    between atoms: C_1  and  C_3
REMARK    2  A    between atoms: C_1  and  C_17
REMARK    3  A    between atoms: C_4  and  C_9
REMARK    4  A    between atoms: C_7  and  O_15
REMARK    5  A    between atoms: C_18  and  C_23
REMARK                            x       y       z     vdW  Elec       q    Type
REMARK                         _______ _______ _______ _____ _____    ______ ____
ROOT
ATOM      1  C   UNL     1      36.034 -18.534 -22.408  0.00  0.00    +0.086 C 
ATOM      2  C   UNL     1      37.033 -17.566 -21.745  0.00  0.00    +0.019 C 
ENDROOT
BRANCH   1   3
ATOM      3  C   UNL     1      35.013 -17.826 -23.233  0.00  0.00    -0.007 C 
ATOM      4  C   UNL     1      34.013 -15.769 -24.011  0.00  0.00    +0.003 C 
ATOM      5  C   UNL     1      34.968 -16.431 -23.240  0.00  0.00    -0.003 C 
ATOM      6  C   UNL     1      34.104 -18.558 -23.996  0.00  0.00    +0.034 C 
ATOM      7  C   UNL     1      33.149 -17.895 -24.767  0.00  0.00    +0.138 C 
ATOM      8  C   UNL     1      33.103 -16.501 -24.775  0.00  0.00    +0.037 C 
BRANCH   4   9
ATOM      9  C   UNL     1      33.965 -14.323 -24.020  0.00  0.00    +0.000 C 
ATOM     10  C   UNL     1      33.571 -13.644 -25.173  0.00  0.00    +0.000 C 
ATOM     11  C   UNL     1      34.313 -13.607 -22.874  0.00  0.00    +0.000 C 
ATOM     12  C   UNL     1      33.525 -12.251 -25.181  0.00  0.00    +0.000 C 
ATOM     13  C   UNL     1      34.267 -12.213 -22.882  0.00  0.00    +0.000 C 
ATOM     14  C   UNL     1      33.873 -11.535 -24.035  0.00  0.00    +0.000 C 
ENDBRANCH   4   9
BRANCH   7  15
ATOM     15  O   UNL     1      32.262 -18.609 -25.514  0.00  0.00    -0.471 OA
ATOM     16  C   UNL     1      32.053 -19.971 -25.146  0.00  0.00    +0.252 C 
ENDBRANCH   7  15
ENDBRANCH   1   3
BRANCH   1  17
ATOM     17  C   UNL     1      35.420 -19.404 -21.373  0.00  0.00    -0.087 C 
ATOM     18  C   UNL     1      34.943 -20.111 -20.526  0.00  0.00    -0.076 C 
BRANCH  18  23
ATOM     19  N   UNL     1      34.689 -22.461 -17.666  0.00  0.00    -0.336 NA
ATOM     20  N   UNL     1      32.466 -21.894 -18.402  0.00  0.00    -0.317 NA
ATOM     21  N   UNL     1      32.142 -20.411 -20.216  0.00  0.00    -0.334 N 
ATOM     22  N   UNL     1      32.802 -23.363 -16.604  0.00  0.00    -0.283 N 
ATOM     23  C   UNL     1      34.381 -20.951 -19.514  0.00  0.00    +0.179 C 
ATOM     24  C   UNL     1      35.175 -21.659 -18.635  0.00  0.00    +0.120 C 
ATOM     25  C   UNL     1      33.020 -21.108 -19.349  0.00  0.00    +0.186 C 
ATOM     26  C   UNL     1      36.666 -21.576 -18.707  0.00  0.00    +0.064 C 
ATOM     27  C   UNL     1      33.346 -22.532 -17.607  0.00  0.00    +0.196 C 
ATOM     28  H   UNL     1      31.168 -20.510 -20.114  0.00  0.00    +0.144 HD
ATOM     29  H   UNL     1      32.507 -19.827 -20.920  0.00  0.00    +0.144 HD
ATOM     30  H   UNL     1      33.398 -23.855 -15.994  0.00  0.00    +0.156 HD
ATOM     31  H   UNL     1      31.824 -23.453 -16.515  0.00  0.00    +0.156 HD
ENDBRANCH  18  23
ENDBRANCH   1  17
TORSDOF 5
ENDMDL
MODEL 4
REMARK VINA RESULT:     -10.0      4.697      9.276
REMARK  Name = 25093369
REMARK  5 active torsions:
REMARK  status: ('A' for Active; 'I' for Inactive)
REMARK    1  A    between atoms: C_1  and  C_3
REMARK    2  A    between atoms: C_1  and  C_17
REMARK    3  A    between atoms: C_4  and  C_9
REMARK    4  A    between atoms: C_7  and  O_15
REMARK    5  A    between atoms: C_18  and  C_23
REMARK                            x       y       z     vdW  Elec       q    Type
REMARK                         _______ _______ _______ _____ _____    ______ ____
ROOT
ATOM      1  C   UNL     1      31.828 -11.364 -20.928  0.00  0.00    +0.086 C 
ATOM      2  C   UNL     1      32.108 -11.764 -19.466  0.00  0.00    +0.019 C 
ENDROOT
BRANCH   1   3
ATOM      3  C   UNL     1      32.732 -12.053 -21.893  0.00  0.00    -0.007 C 
ATOM      4  C   UNL     1      34.084 -13.963 -22.496  0.00  0.00    +0.003 C 
ATOM      5  C   UNL     1      33.238 -13.319 -21.594  0.00  0.00    -0.003 C 
ATOM      6  C   UNL     1      33.074 -11.431 -23.094  0.00  0.00    +0.034 C 
ATOM      7  C   UNL     1      33.921 -12.075 -23.995  0.00  0.00    +0.138 C 
ATOM      8  C   UNL     1      34.426 -13.341 -23.697  0.00  0.00    +0.037 C 
BRANCH   4   9
ATOM      9  C   UNL     1      34.608 -15.275 -22.187  0.00  0.00    +0.000 C 
ATOM     10  C   UNL     1      34.876 -16.180 -23.214  0.00  0.00    +0.000 C 
ATOM     11  C   UNL     1      34.846 -15.636 -20.861  0.00  0.00    +0.000 C 
ATOM     12  C   UNL     1      35.381 -17.444 -22.917  0.00  0.00    +0.000 C 
ATOM     13  C   UNL     1      35.351 -16.902 -20.563  0.00  0.00    +0.000 C 
ATOM     14  C   UNL     1      35.619 -17.806 -21.591  0.00  0.00    +0.000 C 
ENDBRANCH   4   9
BRANCH   7  15
ATOM     15  O   UNL     1      34.253 -11.468 -25.169  0.00  0.00    -0.471 OA
ATOM     16  C   UNL     1      35.136 -10.351 -25.094  0.00  0.00    +0.252 C 
ENDBRANCH   7  15
ENDBRANCH   1   3
BRANCH   1  17
ATOM     17  C   UNL     1      31.880  -9.886 -21.059  0.00  0.00    -0.087 C 
ATOM     18  C   UNL     1      31.901  -8.690 -21.173  0.00  0.00    -0.076 C 
BRANCH  18  23
ATOM     19  N   UNL     1      31.184  -5.282 -22.455  0.00  0.00    -0.336 NA
ATOM     20  N   UNL     1      32.684  -5.104 -20.577  0.00  0.00    -0.317 NA
ATOM     21  N   UNL     1      33.418  -7.042 -19.436  0.00  0.00    -0.334 N 
ATOM     22  N   UNL     1      31.948  -3.190 -21.718  0.00  0.00    -0.283 N 
ATOM     23  C   UNL     1      31.918  -7.266 -21.308  0.00  0.00    +0.179 C 
ATOM     24  C   UNL     1      31.197  -6.621 -22.291  0.00  0.00    +0.120 C 
ATOM     25  C   UNL     1      32.651  -6.449 -20.471  0.00  0.00    +0.186 C 
ATOM     26  C   UNL     1      30.362  -7.391 -23.264  0.00  0.00    +0.064 C 
ATOM     27  C   UNL     1      31.938  -4.595 -21.576  0.00  0.00    +0.196 C 
ATOM     28  H   UNL     1      33.946  -6.476 -18.829  0.00  0.00    +0.144 HD
ATOM     29  H   UNL     1      33.420  -8.020 -19.325  0.00  0.00    +0.144 HD
ATOM     30  H   UNL     1      31.422  -2.763 -22.432  0.00  0.00    +0.156 HD
ATOM     31  H   UNL     1      32.483  -2.637 -21.103  0.00  0.00    +0.156 HD
ENDBRANCH  18  23
ENDBRANCH   1  17
TORSDOF 5
ENDMDL
MODEL 5
REMARK VINA RESULT:     -10.0      9.961     14.706
REMARK  Name = 25093369
REMARK  5 active torsions:
REMARK  status: ('A' for Active; 'I' for Inactive)
REMARK    1  A    between atoms: C_1  and  C_3
REMARK    2  A    between atoms: C_1  and  C_17
REMARK    3  A    between atoms: C_4  and  C_9
REMARK    4  A    between atoms: C_7  and  O_15
REMARK    5  A    between atoms: C_18  and  C_23
REMARK                            x       y       z     vdW  Elec       q    Type
REMARK                         _______ _______ _______ _____ _____    ______ ____
ROOT
ATOM      1  C   UNL     1      32.157 -23.279 -16.830  0.00  0.00    +0.086 C 
ATOM      2  C   UNL     1      30.722 -22.722 -16.753  0.00  0.00    +0.019 C 
ENDROOT
BRANCH   1   3
ATOM      3  C   UNL     1      32.775 -23.457 -15.485  0.00  0.00    -0.007 C 
ATOM      4  C   UNL     1      34.700 -23.970 -14.118  0.00  0.00    +0.003 C 
ATOM      5  C   UNL     1      34.123 -23.802 -15.376  0.00  0.00    -0.003 C 
ATOM      6  C   UNL     1      32.005 -23.280 -14.335  0.00  0.00    +0.034 C 
ATOM      7  C   UNL     1      32.583 -23.447 -13.077  0.00  0.00    +0.138 C 
ATOM      8  C   UNL     1      33.930 -23.792 -12.968  0.00  0.00    +0.037 C 
BRANCH   4   9
ATOM      9  C   UNL     1      36.096 -24.327 -14.004  0.00  0.00    +0.000 C 
ATOM     10  C   UNL     1      37.047 -23.696 -14.806  0.00  0.00    +0.000 C 
ATOM     11  C   UNL     1      36.494 -25.304 -13.091  0.00  0.00    +0.000 C 
ATOM     12  C   UNL     1      38.393 -24.039 -14.697  0.00  0.00    +0.000 C 
ATOM     13  C   UNL     1      37.842 -25.648 -12.980  0.00  0.00    +0.000 C 
ATOM     14  C   UNL     1      38.791 -25.016 -13.783  0.00  0.00    +0.000 C 
ENDBRANCH   4   9
BRANCH   7  15
ATOM     15  O   UNL     1      31.831 -23.272 -11.955  0.00  0.00    -0.471 OA
ATOM     16  C   UNL     1      30.498 -23.778 -11.981  0.00  0.00    +0.252 C 
ENDBRANCH   7  15
ENDBRANCH   1   3
BRANCH   1  17
ATOM     17  C   UNL     1      32.978 -22.420 -17.721  0.00  0.00    -0.087 C 
ATOM     18  C   UNL     1      33.625 -21.713 -18.445  0.00  0.00    -0.076 C 
BRANCH  18  23
ATOM     19  N   UNL     1      36.520 -19.971 -19.981  0.00  0.00    -0.336 NA
ATOM     20  N   UNL     1      34.512 -19.298 -21.131  0.00  0.00    -0.317 NA
ATOM     21  N   UNL     1      32.408 -20.165 -20.485  0.00  0.00    -0.334 N 
ATOM     22  N   UNL     1      36.605 -18.446 -21.762  0.00  0.00    -0.283 N 
ATOM     23  C   UNL     1      34.389 -20.865 -19.307  0.00  0.00    +0.179 C 
ATOM     24  C   UNL     1      35.760 -20.756 -19.190  0.00  0.00    +0.120 C 
ATOM     25  C   UNL     1      33.813 -20.105 -20.305  0.00  0.00    +0.186 C 
ATOM     26  C   UNL     1      36.507 -21.527 -18.149  0.00  0.00    +0.064 C 
ATOM     27  C   UNL     1      35.841 -19.279 -20.916  0.00  0.00    +0.196 C 
ATOM     28  H   UNL     1      31.979 -19.632 -21.191  0.00  0.00    +0.144 HD
ATOM     29  H   UNL     1      31.862 -20.743 -19.903  0.00  0.00    +0.144 HD
ATOM     30  H   UNL     1      37.581 -18.393 -21.649  0.00  0.00    +0.156 HD
ATOM     31  H   UNL     1      36.160 -17.917 -22.464  0.00  0.00    +0.156 HD
ENDBRANCH  18  23
ENDBRANCH   1  17
TORSDOF 5
ENDMDL
MODEL 6
REMARK VINA RESULT:      -9.9     11.785     15.182
REMARK  Name = 25093369
REMARK  5 active torsions:
REMARK  status: ('A' for Active; 'I' for Inactive)
REMARK    1  A    between atoms: C_1  and  C_3
REMARK    2  A    between atoms: C_1  and  C_17
REMARK    3  A    between atoms: C_4  and  C_9
REMARK    4  A    between atoms: C_7  and  O_15
REMARK    5  A    between atoms: C_18  and  C_23
REMARK                            x       y       z     vdW  Elec       q    Type
REMARK                         _______ _______ _______ _____ _____    ______ ____
ROOT
ATOM      1  C   UNL     1      34.288 -24.489 -13.366  0.00  0.00    +0.086 C 
ATOM      2  C   UNL     1      34.344 -23.950 -11.924  0.00  0.00    +0.019 C 
ENDROOT
BRANCH   1   3
ATOM      3  C   UNL     1      35.394 -23.964 -14.217  0.00  0.00    -0.007 C 
ATOM      4  C   UNL     1      36.136 -22.777 -16.186  0.00  0.00    +0.003 C 
ATOM      5  C   UNL     1      35.101 -23.268 -15.390  0.00  0.00    -0.003 C 
ATOM      6  C   UNL     1      36.721 -24.170 -13.840  0.00  0.00    +0.034 C 
ATOM      7  C   UNL     1      37.756 -23.679 -14.637  0.00  0.00    +0.138 C 
ATOM      8  C   UNL     1      37.463 -22.983 -15.810  0.00  0.00    +0.037 C 
BRANCH   4   9
ATOM      9  C   UNL     1      35.834 -22.055 -17.402  0.00  0.00    +0.000 C 
ATOM     10  C   UNL     1      36.806 -21.252 -17.998  0.00  0.00    +0.000 C 
ATOM     11  C   UNL     1      34.568 -22.161 -17.980  0.00  0.00    +0.000 C 
ATOM     12  C   UNL     1      36.515 -20.556 -19.170  0.00  0.00    +0.000 C 
ATOM     13  C   UNL     1      34.276 -21.465 -19.153  0.00  0.00    +0.000 C 
ATOM     14  C   UNL     1      35.249 -20.662 -19.748  0.00  0.00    +0.000 C 
ENDBRANCH   4   9
BRANCH   7  15
ATOM     15  O   UNL     1      39.051 -23.879 -14.268  0.00  0.00    -0.471 OA
ATOM     16  C   UNL     1      39.489 -25.230 -14.141  0.00  0.00    +0.252 C 
ENDBRANCH   7  15
ENDBRANCH   1   3
BRANCH   1  17
ATOM     17  C   UNL     1      32.949 -24.219 -13.948  0.00  0.00    -0.087 C 
ATOM     18  C   UNL     1      31.871 -23.979 -14.422  0.00  0.00    -0.076 C 
BRANCH  18  23
ATOM     19  N   UNL     1      29.270 -22.590 -16.676  0.00  0.00    -0.336 NA
ATOM     20  N   UNL     1      28.194 -23.915 -14.975  0.00  0.00    -0.317 NA
ATOM     21  N   UNL     1      29.474 -25.001 -13.308  0.00  0.00    -0.334 N 
ATOM     22  N   UNL     1      26.937 -22.833 -16.635  0.00  0.00    -0.283 N 
ATOM     23  C   UNL     1      30.591 -23.687 -14.989  0.00  0.00    +0.179 C 
ATOM     24  C   UNL     1      30.457 -22.891 -16.108  0.00  0.00    +0.120 C 
ATOM     25  C   UNL     1      29.414 -24.176 -14.459  0.00  0.00    +0.186 C 
ATOM     26  C   UNL     1      31.654 -22.298 -16.779  0.00  0.00    +0.064 C 
ATOM     27  C   UNL     1      28.196 -23.127 -16.067  0.00  0.00    +0.196 C 
ATOM     28  H   UNL     1      28.646 -25.360 -12.916  0.00  0.00    +0.144 HD
ATOM     29  H   UNL     1      30.345 -25.216 -12.901  0.00  0.00    +0.144 HD
ATOM     30  H   UNL     1      26.879 -22.261 -17.434  0.00  0.00    +0.156 HD
ATOM     31  H   UNL     1      26.117 -23.199 -16.230  0.00  0.00    +0.156 HD
ENDBRANCH  18  23
ENDBRANCH   1  17
TORSDOF 5
ENDMDL
MODEL 7
REMARK VINA RESULT:      -9.9      4.822      7.457
REMARK  Name = 25093369
REMARK  5 active torsions:
REMARK  status: ('A' for Active; 'I' for Inactive)
REMARK    1  A    between atoms: C_1  and  C_3
REMARK    2  A    between atoms: C_1  and  C_17
REMARK    3  A    between atoms: C_4  and  C_9
REMARK    4  A    between atoms: C_7  and  O_15
REMARK    5  A    between atoms: C_18  and  C_23
REMARK                            x       y       z     vdW  Elec       q    Type
REMARK                         _______ _______ _______ _____ _____    ______ ____
ROOT
ATOM      1  C   UNL     1      35.915 -18.217 -22.088  0.00  0.00    +0.086 C 
ATOM      2  C   UNL     1      37.445 -18.102 -21.947  0.00  0.00    +0.019 C 
ENDROOT
BRANCH   1   3
ATOM      3  C   UNL     1      35.229 -16.898 -21.971  0.00  0.00    -0.007 C 
ATOM      4  C   UNL     1      34.337 -14.905 -23.005  0.00  0.00    +0.003 C 
ATOM      5  C   UNL     1      34.978 -16.138 -23.115  0.00  0.00    -0.003 C 
ATOM      6  C   UNL     1      34.840 -16.423 -20.719  0.00  0.00    +0.034 C 
ATOM      7  C   UNL     1      34.199 -15.189 -20.610  0.00  0.00    +0.138 C 
ATOM      8  C   UNL     1      33.948 -14.430 -21.753  0.00  0.00    +0.037 C 
BRANCH   4   9
ATOM      9  C   UNL     1      34.076 -14.117 -24.189  0.00  0.00    +0.000 C 
ATOM     10  C   UNL     1      33.866 -12.743 -24.083  0.00  0.00    +0.000 C 
ATOM     11  C   UNL     1      34.034 -14.733 -25.441  0.00  0.00    +0.000 C 
ATOM     12  C   UNL     1      33.614 -11.983 -25.224  0.00  0.00    +0.000 C 
ATOM     13  C   UNL     1      33.782 -13.974 -26.584  0.00  0.00    +0.000 C 
ATOM     14  C   UNL     1      33.572 -12.599 -26.476  0.00  0.00    +0.000 C 
ENDBRANCH   4   9
BRANCH   7  15
ATOM     15  O   UNL     1      33.818 -14.726 -19.387  0.00  0.00    -0.471 OA
ATOM     16  C   UNL     1      32.429 -14.462 -19.197  0.00  0.00    +0.252 C 
ENDBRANCH   7  15
ENDBRANCH   1   3
BRANCH   1  17
ATOM     17  C   UNL     1      35.397 -19.212 -21.115  0.00  0.00    -0.087 C 
ATOM     18  C   UNL     1      34.966 -20.001 -20.318  0.00  0.00    -0.076 C 
BRANCH  18  23
ATOM     19  N   UNL     1      34.830 -22.547 -17.621  0.00  0.00    -0.336 NA
ATOM     20  N   UNL     1      32.582 -22.055 -18.336  0.00  0.00    -0.317 NA
ATOM     21  N   UNL     1      32.185 -20.476 -20.052  0.00  0.00    -0.334 N 
ATOM     22  N   UNL     1      32.991 -23.620 -16.636  0.00  0.00    -0.283 N 
ATOM     23  C   UNL     1      34.448 -20.936 -19.368  0.00  0.00    +0.179 C 
ATOM     24  C   UNL     1      35.276 -21.656 -18.531  0.00  0.00    +0.120 C 
ATOM     25  C   UNL     1      33.097 -21.179 -19.225  0.00  0.00    +0.186 C 
ATOM     26  C   UNL     1      36.760 -21.486 -18.584  0.00  0.00    +0.064 C 
ATOM     27  C   UNL     1      33.493 -22.695 -17.578  0.00  0.00    +0.196 C 
ATOM     28  H   UNL     1      31.218 -20.635 -19.964  0.00  0.00    +0.144 HD
ATOM     29  H   UNL     1      32.520 -19.827 -20.713  0.00  0.00    +0.144 HD
ATOM     30  H   UNL     1      33.611 -24.116 -16.055  0.00  0.00    +0.156 HD
ATOM     31  H   UNL     1      32.020 -23.769 -16.561  0.00  0.00    +0.156 HD
ENDBRANCH  18  23
ENDBRANCH   1  17
TORSDOF 5
ENDMDL
MODEL 8
REMARK VINA RESULT:      -9.7     10.157     14.292
REMARK  Name = 25093369
REMARK  5 active torsions:
REMARK  status: ('A' for Active; 'I' for Inactive)
REMARK    1  A    between atoms: C_1  and  C_3
REMARK    2  A    between atoms: C_1  and  C_17
REMARK    3  A    between atoms: C_4  and  C_9
REMARK    4  A    between atoms: C_7  and  O_15
REMARK    5  A    between atoms: C_18  and  C_23
REMARK                            x       y       z     vdW  Elec       q    Type
REMARK                         _______ _______ _______ _____ _____    ______ ____
ROOT
ATOM      1  C   UNL     1      37.214 -22.215 -15.646  0.00  0.00    +0.086 C 
ATOM      2  C   UNL     1      38.439 -23.089 -15.979  0.00  0.00    +0.019 C 
ENDROOT
BRANCH   1   3
ATOM      3  C   UNL     1      36.217 -22.928 -14.797  0.00  0.00    -0.007 C 
ATOM      4  C   UNL     1      33.919 -23.445 -14.256  0.00  0.00    +0.003 C 
ATOM      5  C   UNL     1      34.852 -22.779 -15.051  0.00  0.00    -0.003 C 
ATOM      6  C   UNL     1      36.647 -23.741 -13.750  0.00  0.00    +0.034 C 
ATOM      7  C   UNL     1      35.713 -24.407 -12.955  0.00  0.00    +0.138 C 
ATOM      8  C   UNL     1      34.350 -24.259 -13.209  0.00  0.00    +0.037 C 
BRANCH   4   9
ATOM      9  C   UNL     1      32.505 -23.292 -14.519  0.00  0.00    +0.000 C 
ATOM     10  C   UNL     1      31.595 -23.281 -13.462  0.00  0.00    +0.000 C 
ATOM     11  C   UNL     1      32.050 -23.155 -15.831  0.00  0.00    +0.000 C 
ATOM     12  C   UNL     1      30.233 -23.134 -13.715  0.00  0.00    +0.000 C 
ATOM     13  C   UNL     1      30.687 -23.007 -16.085  0.00  0.00    +0.000 C 
ATOM     14  C   UNL     1      29.778 -22.997 -15.027  0.00  0.00    +0.000 C 
ENDBRANCH   4   9
BRANCH   7  15
ATOM     15  O   UNL     1      36.134 -25.203 -11.933  0.00  0.00    -0.471 OA
ATOM     16  C   UNL     1      37.288 -26.007 -12.170  0.00  0.00    +0.252 C 
ENDBRANCH   7  15
ENDBRANCH   1   3
BRANCH   1  17
ATOM     17  C   UNL     1      36.618 -21.691 -16.901  0.00  0.00    -0.087 C 
ATOM     18  C   UNL     1      36.133 -21.248 -17.907  0.00  0.00    -0.076 C 
BRANCH  18  23
ATOM     19  N   UNL     1      33.666 -20.496 -20.576  0.00  0.00    -0.336 NA
ATOM     20  N   UNL     1      35.739 -19.385 -21.101  0.00  0.00    -0.317 NA
ATOM     21  N   UNL     1      37.608 -19.586 -19.666  0.00  0.00    -0.334 N 
ATOM     22  N   UNL     1      33.877 -19.194 -22.516  0.00  0.00    -0.283 N 
ATOM     23  C   UNL     1      35.556 -20.713 -19.102  0.00  0.00    +0.179 C 
ATOM     24  C   UNL     1      34.251 -20.979 -19.460  0.00  0.00    +0.120 C 
ATOM     25  C   UNL     1      36.260 -19.903 -19.968  0.00  0.00    +0.186 C 
ATOM     26  C   UNL     1      33.379 -21.844 -18.606  0.00  0.00    +0.064 C 
ATOM     27  C   UNL     1      34.456 -19.718 -21.339  0.00  0.00    +0.196 C 
ATOM     28  H   UNL     1      38.127 -19.009 -20.271  0.00  0.00    +0.144 HD
ATOM     29  H   UNL     1      38.026 -19.943 -18.848  0.00  0.00    +0.144 HD
ATOM     30  H   UNL     1      32.943 -19.405 -22.741  0.00  0.00    +0.156 HD
ATOM     31  H   UNL     1      34.410 -18.619 -23.113  0.00  0.00    +0.156 HD
ENDBRANCH  18  23
ENDBRANCH   1  17
TORSDOF 5
ENDMDL
MODEL 9
REMARK VINA RESULT:      -9.5      4.782      9.055
REMARK  Name = 25093369
REMARK  5 active torsions:
REMARK  status: ('A' for Active; 'I' for Inactive)
REMARK    1  A    between atoms: C_1  and  C_3
REMARK    2  A    between atoms: C_1  and  C_17
REMARK    3  A    between atoms: C_4  and  C_9
REMARK    4  A    between atoms: C_7  and  O_15
REMARK    5  A    between atoms: C_18  and  C_23
REMARK                            x       y       z     vdW  Elec       q    Type
REMARK                         _______ _______ _______ _____ _____    ______ ____
ROOT
ATOM      1  C   UNL     1      34.591  -9.601 -23.548  0.00  0.00    +0.086 C 
ATOM      2  C   UNL     1      35.017  -9.780 -25.018  0.00  0.00    +0.019 C 
ENDROOT
BRANCH   1   3
ATOM      3  C   UNL     1      33.850 -10.783 -23.019  0.00  0.00    -0.007 C 
ATOM      4  C   UNL     1      33.529 -13.175 -22.913  0.00  0.00    +0.003 C 
ATOM      5  C   UNL     1      34.223 -12.071 -23.407  0.00  0.00    -0.003 C 
ATOM      6  C   UNL     1      32.784 -10.600 -22.138  0.00  0.00    +0.034 C 
ATOM      7  C   UNL     1      32.090 -11.705 -21.645  0.00  0.00    +0.138 C 
ATOM      8  C   UNL     1      32.463 -12.992 -22.032  0.00  0.00    +0.037 C 
BRANCH   4   9
ATOM      9  C   UNL     1      33.915 -14.510 -23.313  0.00  0.00    +0.000 C 
ATOM     10  C   UNL     1      33.492 -15.022 -24.540  0.00  0.00    +0.000 C 
ATOM     11  C   UNL     1      34.711 -15.287 -22.472  0.00  0.00    +0.000 C 
ATOM     12  C   UNL     1      33.864 -16.308 -24.926  0.00  0.00    +0.000 C 
ATOM     13  C   UNL     1      35.085 -16.575 -22.857  0.00  0.00    +0.000 C 
ATOM     14  C   UNL     1      34.661 -17.085 -24.085  0.00  0.00    +0.000 C 
ENDBRANCH   4   9
BRANCH   7  15
ATOM     15  O   UNL     1      31.051 -11.526 -20.784  0.00  0.00    -0.471 OA
ATOM     16  C   UNL     1      31.066 -10.346 -19.984  0.00  0.00    +0.252 C 
ENDBRANCH   7  15
ENDBRANCH   1   3
BRANCH   1  17
ATOM     17  C   UNL     1      33.823  -8.339 -23.401  0.00  0.00    -0.087 C 
ATOM     18  C   UNL     1      33.209  -7.311 -23.301  0.00  0.00    -0.076 C 
BRANCH  18  23
ATOM     19  N   UNL     1      32.094  -3.827 -23.926  0.00  0.00    -0.336 NA
ATOM     20  N   UNL     1      30.754  -4.764 -22.155  0.00  0.00    -0.317 NA
ATOM     21  N   UNL     1      31.116  -6.982 -21.418  0.00  0.00    -0.334 N 
ATOM     22  N   UNL     1      30.405  -2.565 -22.896  0.00  0.00    -0.283 N 
ATOM     23  C   UNL     1      32.479  -6.086 -23.190  0.00  0.00    +0.179 C 
ATOM     24  C   UNL     1      32.756  -5.000 -23.995  0.00  0.00    +0.120 C 
ATOM     25  C   UNL     1      31.458  -5.909 -22.280  0.00  0.00    +0.186 C 
ATOM     26  C   UNL     1      33.840  -5.061 -25.024  0.00  0.00    +0.064 C 
ATOM     27  C   UNL     1      31.120  -3.779 -22.997  0.00  0.00    +0.196 C 
ATOM     28  H   UNL     1      30.391  -6.876 -20.763  0.00  0.00    +0.144 HD
ATOM     29  H   UNL     1      31.605  -7.835 -21.478  0.00  0.00    +0.144 HD
ATOM     30  H   UNL     1      30.630  -1.811 -23.487  0.00  0.00    +0.156 HD
ATOM     31  H   UNL     1      29.681  -2.474 -22.234  0.00  0.00    +0.156 HD
ENDBRANCH  18  23
ENDBRANCH   1  17
TORSDOF 5
ENDMDL
