MODEL 1
REMARK VINA RESULT:     -12.1      0.000      0.000
REMARK  Name = 5497056
REMARK  11 active torsions:
REMARK  status: ('A' for Active; 'I' for Inactive)
REMARK    1  A    between atoms: N_2  and  C_22
REMARK    2  A    between atoms: C_3  and  C_5
REMARK    3  A    between atoms: C_8  and  C_11
REMARK    4  A    between atoms: C_13  and  C_17
REMARK    5  A    between atoms: C_17  and  N_18
REMARK    6  A    between atoms: C_22  and  C_24
REMARK    7  A    between atoms: C_24  and  C_26
REMARK    8  A    between atoms: C_24  and  C_29
REMARK    9  A    between atoms: C_26  and  O_27
REMARK   10  A    between atoms: C_29  and  C_30
REMARK   11  A    between atoms: C_33  and  C_38
REMARK                            x       y       z     vdW  Elec       q    Type
REMARK                         _______ _______ _______ _____ _____    ______ ____
ROOT
ATOM      1  O   UNL     1      33.215 -24.222 -17.148  0.00  0.00    -0.270 OA
ATOM      2  N   UNL     1      31.742 -22.569 -16.459  0.00  0.00    -0.302 N 
ATOM      3  C   UNL     1      32.775 -23.079 -17.231  0.00  0.00    +0.246 C 
ATOM      4  H   UNL     1      31.461 -21.636 -16.601  0.00  0.00    +0.150 HD
ENDROOT
BRANCH   3   5
ATOM      5  C   UNL     1      33.385 -22.135 -18.202  0.00  0.00    +0.053 C 
ATOM      6  C   UNL     1      34.769 -22.112 -18.377  0.00  0.00    +0.005 C 
ATOM      7  C   UNL     1      32.575 -21.271 -18.940  0.00  0.00    +0.005 C 
ATOM      8  C   UNL     1      34.532 -20.363 -20.027  0.00  0.00    -0.000 C 
ATOM      9  C   UNL     1      35.342 -21.225 -19.289  0.00  0.00    +0.000 C 
ATOM     10  C   UNL     1      33.148 -20.385 -19.852  0.00  0.00    +0.000 C 
BRANCH   8  11
ATOM     11  C   UNL     1      35.128 -19.444 -20.974  0.00  0.00    -0.000 C 
ATOM     12  C   UNL     1      34.406 -19.028 -22.091  0.00  0.00    -0.006 C 
ATOM     13  C   UNL     1      34.981 -18.143 -23.003  0.00  0.00    -0.044 C 
ATOM     14  C   UNL     1      36.426 -18.977 -20.766  0.00  0.00    -0.000 C 
ATOM     15  C   UNL     1      36.279 -17.675 -22.796  0.00  0.00    -0.006 C 
ATOM     16  C   UNL     1      37.001 -18.092 -21.678  0.00  0.00    -0.000 C 
BRANCH  13  17
ATOM     17  C   UNL     1      34.209 -17.696 -24.197  0.00  0.00    -0.059 C 
BRANCH  17  18
ATOM     18  N   UNL     1      33.139 -18.630 -24.551  0.00  0.00    +0.383 N 
ATOM     19  H   UNL     1      32.490 -18.717 -23.769  0.00  0.00    -0.089 HD
ATOM     20  H   UNL     1      33.540 -19.544 -24.763  0.00  0.00    -0.089 HD
ATOM     21  H   UNL     1      32.640 -18.280 -25.370  0.00  0.00    -0.089 HD
ENDBRANCH  17  18
ENDBRANCH  13  17
ENDBRANCH   8  11
ENDBRANCH   3   5
BRANCH   2  22
ATOM     22  C   UNL     1      31.065 -23.355 -15.454  0.00  0.00    +0.083 C 
ATOM     23  C   UNL     1      30.140 -22.464 -14.626  0.00  0.00    +0.022 C 
BRANCH  22  24
ATOM     24  C   UNL     1      32.044 -24.163 -14.573  0.00  0.00    +0.121 C 
BRANCH  24  26
ATOM     25  O   UNL     1      31.477 -25.051 -12.376  0.00  0.00    -0.250 OA
ATOM     26  C   UNL     1      31.297 -25.054 -13.587  0.00  0.00    +0.319 C 
BRANCH  26  27
ATOM     27  O   UNL     1      30.410 -25.843 -14.261  0.00  0.00    -0.444 OA
ATOM     28  C   UNL     1      29.036 -25.674 -13.897  0.00  0.00    +0.256 C 
ENDBRANCH  26  27
ENDBRANCH  24  26
BRANCH  24  29
ATOM     29  C   UNL     1      33.029 -23.250 -13.815  0.00  0.00    +0.039 C 
BRANCH  29  30
ATOM     30  C   UNL     1      34.473 -23.525 -14.167  0.00  0.00    -0.021 C 
ATOM     31  C   UNL     1      34.962 -24.830 -14.137  0.00  0.00    -0.002 C 
ATOM     32  C   UNL     1      35.317 -22.472 -14.520  0.00  0.00    -0.004 C 
ATOM     33  C   UNL     1      36.295 -25.084 -14.461  0.00  0.00    +0.030 C 
ATOM     34  C   UNL     1      36.651 -22.725 -14.843  0.00  0.00    -0.000 C 
ATOM     35  C   UNL     1      37.140 -24.031 -14.814  0.00  0.00    +0.003 C 
BRANCH  33  38
ATOM     36  N   UNL     1      37.220 -27.036 -13.236  0.00  0.00    -0.343 N 
ATOM     37  N   UNL     1      36.886 -27.144 -15.546  0.00  0.00    -0.285 NA
ATOM     38  C   UNL     1      36.805 -26.445 -14.429  0.00  0.00    +0.117 C 
ATOM     39  H   UNL     1      37.563 -27.959 -13.237  0.00  0.00    +0.144 HD
ATOM     40  H   UNL     1      37.171 -26.530 -12.392  0.00  0.00    +0.144 HD
ATOM     41  H   UNL     1      37.232 -28.066 -15.527  0.00  0.00    +0.188 HD
ENDBRANCH  33  38
ENDBRANCH  29  30
ENDBRANCH  24  29
ENDBRANCH  22  24
ENDBRANCH   2  22
TORSDOF 11
ENDMDL
MODEL 2
REMARK VINA RESULT:     -11.9      2.068      3.160
REMARK  Name = 5497056
REMARK  11 active torsions:
REMARK  status: ('A' for Active; 'I' for Inactive)
REMARK    1  A    between atoms: N_2  and  C_22
REMARK    2  A    between atoms: C_3  and  C_5
REMARK    3  A    between atoms: C_8  and  C_11
REMARK    4  A    between atoms: C_13  and  C_17
REMARK    5  A    between atoms: C_17  and  N_18
REMARK    6  A    between atoms: C_22  and  C_24
REMARK    7  A    between atoms: C_24  and  C_26
REMARK    8  A    between atoms: C_24  and  C_29
REMARK    9  A    between atoms: C_26  and  O_27
REMARK   10  A    between atoms: C_29  and  C_30
REMARK   11  A    between atoms: C_33  and  C_38
REMARK                            x       y       z     vdW  Elec       q    Type
REMARK                         _______ _______ _______ _____ _____    ______ ____
ROOT
ATOM      1  O   UNL     1      33.725 -24.240 -18.370  0.00  0.00    -0.270 OA
ATOM      2  N   UNL     1      33.557 -22.781 -16.575  0.00  0.00    -0.302 N 
ATOM      3  C   UNL     1      33.739 -23.101 -17.912  0.00  0.00    +0.246 C 
ATOM      4  H   UNL     1      33.587 -21.835 -16.306  0.00  0.00    +0.150 HD
ENDROOT
BRANCH   3   5
ATOM      5  C   UNL     1      33.994 -21.956 -18.823  0.00  0.00    +0.053 C 
ATOM      6  C   UNL     1      35.303 -21.609 -19.158  0.00  0.00    +0.005 C 
ATOM      7  C   UNL     1      32.924 -21.227 -19.345  0.00  0.00    +0.005 C 
ATOM      8  C   UNL     1      34.473 -19.806 -20.536  0.00  0.00    -0.000 C 
ATOM      9  C   UNL     1      35.542 -20.534 -20.014  0.00  0.00    +0.000 C 
ATOM     10  C   UNL     1      33.164 -20.153 -20.201  0.00  0.00    +0.000 C 
BRANCH   8  11
ATOM     11  C   UNL     1      34.723 -18.691 -21.425  0.00  0.00    -0.000 C 
ATOM     12  C   UNL     1      34.190 -18.694 -22.713  0.00  0.00    -0.006 C 
ATOM     13  C   UNL     1      34.431 -17.619 -23.569  0.00  0.00    -0.044 C 
ATOM     14  C   UNL     1      35.497 -17.615 -20.990  0.00  0.00    -0.000 C 
ATOM     15  C   UNL     1      35.206 -16.543 -23.136  0.00  0.00    -0.006 C 
ATOM     16  C   UNL     1      35.738 -16.540 -21.846  0.00  0.00    -0.000 C 
BRANCH  13  17
ATOM     17  C   UNL     1      33.861 -17.620 -24.947  0.00  0.00    -0.059 C 
BRANCH  17  18
ATOM     18  N   UNL     1      32.644 -18.428 -25.046  0.00  0.00    +0.383 N 
ATOM     19  H   UNL     1      32.164 -18.213 -25.920  0.00  0.00    -0.089 HD
ATOM     20  H   UNL     1      32.030 -18.217 -24.260  0.00  0.00    -0.089 HD
ATOM     21  H   UNL     1      32.892 -19.418 -25.028  0.00  0.00    -0.089 HD
ENDBRANCH  17  18
ENDBRANCH  13  17
ENDBRANCH   8  11
ENDBRANCH   3   5
BRANCH   2  22
ATOM     22  C   UNL     1      33.325 -23.785 -15.563  0.00  0.00    +0.083 C 
ATOM     23  C   UNL     1      31.995 -23.523 -14.858  0.00  0.00    +0.022 C 
BRANCH  22  24
ATOM     24  C   UNL     1      34.502 -23.910 -14.570  0.00  0.00    +0.121 C 
BRANCH  24  26
ATOM     25  O   UNL     1      35.648 -21.824 -14.047  0.00  0.00    -0.250 OA
ATOM     26  C   UNL     1      35.524 -22.797 -14.779  0.00  0.00    +0.319 C 
BRANCH  26  27
ATOM     27  O   UNL     1      36.265 -23.057 -15.895  0.00  0.00    -0.444 OA
ATOM     28  C   UNL     1      37.341 -22.148 -16.145  0.00  0.00    +0.256 C 
ENDBRANCH  26  27
ENDBRANCH  24  26
BRANCH  24  29
ATOM     29  C   UNL     1      35.195 -25.284 -14.663  0.00  0.00    +0.039 C 
BRANCH  29  30
ATOM     30  C   UNL     1      36.439 -25.373 -13.810  0.00  0.00    -0.021 C 
ATOM     31  C   UNL     1      37.666 -25.684 -14.395  0.00  0.00    -0.002 C 
ATOM     32  C   UNL     1      36.360 -25.144 -12.436  0.00  0.00    -0.004 C 
ATOM     33  C   UNL     1      38.814 -25.767 -13.607  0.00  0.00    +0.030 C 
ATOM     34  C   UNL     1      37.508 -25.228 -11.648  0.00  0.00    -0.000 C 
ATOM     35  C   UNL     1      38.735 -25.539 -12.233  0.00  0.00    +0.003 C 
BRANCH  33  38
ATOM     36  N   UNL     1      41.082 -26.775 -13.508  0.00  0.00    -0.343 N 
ATOM     37  N   UNL     1      40.337 -25.739 -15.466  0.00  0.00    -0.285 NA
ATOM     38  C   UNL     1      40.093 -26.093 -14.217  0.00  0.00    +0.117 C 
ATOM     39  H   UNL     1      41.941 -26.984 -13.940  0.00  0.00    +0.144 HD
ATOM     40  H   UNL     1      40.921 -27.044 -12.574  0.00  0.00    +0.144 HD
ATOM     41  H   UNL     1      41.202 -25.959 -15.880  0.00  0.00    +0.188 HD
ENDBRANCH  33  38
ENDBRANCH  29  30
ENDBRANCH  24  29
ENDBRANCH  22  24
ENDBRANCH   2  22
TORSDOF 11
ENDMDL
MODEL 3
REMARK VINA RESULT:     -11.7      1.332      1.726
REMARK  Name = 5497056
REMARK  11 active torsions:
REMARK  status: ('A' for Active; 'I' for Inactive)
REMARK    1  A    between atoms: N_2  and  C_22
REMARK    2  A    between atoms: C_3  and  C_5
REMARK    3  A    between atoms: C_8  and  C_11
REMARK    4  A    between atoms: C_13  and  C_17
REMARK    5  A    between atoms: C_17  and  N_18
REMARK    6  A    between atoms: C_22  and  C_24
REMARK    7  A    between atoms: C_24  and  C_26
REMARK    8  A    between atoms: C_24  and  C_29
REMARK    9  A    between atoms: C_26  and  O_27
REMARK   10  A    between atoms: C_29  and  C_30
REMARK   11  A    between atoms: C_33  and  C_38
REMARK                            x       y       z     vdW  Elec       q    Type
REMARK                         _______ _______ _______ _____ _____    ______ ____
ROOT
ATOM      1  O   UNL     1      33.226 -24.168 -17.060  0.00  0.00    -0.270 OA
ATOM      2  N   UNL     1      31.571 -22.612 -16.595  0.00  0.00    -0.302 N 
ATOM      3  C   UNL     1      32.706 -23.071 -17.246  0.00  0.00    +0.246 C 
ATOM      4  H   UNL     1      31.231 -21.714 -16.814  0.00  0.00    +0.150 HD
ENDROOT
BRANCH   3   5
ATOM      5  C   UNL     1      33.326 -22.129 -18.212  0.00  0.00    +0.053 C 
ATOM      6  C   UNL     1      34.708 -22.135 -18.404  0.00  0.00    +0.005 C 
ATOM      7  C   UNL     1      32.527 -21.237 -18.928  0.00  0.00    +0.005 C 
ATOM      8  C   UNL     1      34.490 -20.359 -20.028  0.00  0.00    -0.000 C 
ATOM      9  C   UNL     1      35.289 -21.249 -19.312  0.00  0.00    +0.000 C 
ATOM     10  C   UNL     1      33.108 -20.353 -19.836  0.00  0.00    +0.000 C 
BRANCH   8  11
ATOM     11  C   UNL     1      35.095 -19.442 -20.970  0.00  0.00    -0.000 C 
ATOM     12  C   UNL     1      34.395 -19.051 -22.111  0.00  0.00    -0.006 C 
ATOM     13  C   UNL     1      34.979 -18.167 -23.018  0.00  0.00    -0.044 C 
ATOM     14  C   UNL     1      36.379 -18.950 -20.736  0.00  0.00    -0.000 C 
ATOM     15  C   UNL     1      36.263 -17.675 -22.785  0.00  0.00    -0.006 C 
ATOM     16  C   UNL     1      36.963 -18.066 -21.643  0.00  0.00    -0.000 C 
BRANCH  13  17
ATOM     17  C   UNL     1      34.230 -17.747 -24.238  0.00  0.00    -0.059 C 
BRANCH  17  18
ATOM     18  N   UNL     1      33.080 -18.611 -24.511  0.00  0.00    +0.383 N 
ATOM     19  H   UNL     1      33.258 -19.543 -24.136  0.00  0.00    -0.089 HD
ATOM     20  H   UNL     1      32.933 -18.673 -25.519  0.00  0.00    -0.089 HD
ATOM     21  H   UNL     1      32.248 -18.218 -24.070  0.00  0.00    -0.089 HD
ENDBRANCH  17  18
ENDBRANCH  13  17
ENDBRANCH   8  11
ENDBRANCH   3   5
BRANCH   2  22
ATOM     22  C   UNL     1      30.870 -23.401 -15.610  0.00  0.00    +0.083 C 
ATOM     23  C   UNL     1      29.755 -22.575 -14.971  0.00  0.00    +0.022 C 
BRANCH  22  24
ATOM     24  C   UNL     1      31.819 -24.018 -14.558  0.00  0.00    +0.121 C 
BRANCH  24  26
ATOM     25  O   UNL     1      31.097 -24.746 -12.348  0.00  0.00    -0.250 OA
ATOM     26  C   UNL     1      31.056 -24.886 -13.563  0.00  0.00    +0.319 C 
BRANCH  26  27
ATOM     27  O   UNL     1      30.334 -25.829 -14.235  0.00  0.00    -0.444 OA
ATOM     28  C   UNL     1      28.926 -25.827 -13.975  0.00  0.00    +0.256 C 
ENDBRANCH  26  27
ENDBRANCH  24  26
BRANCH  24  29
ATOM     29  C   UNL     1      32.626 -22.941 -13.805  0.00  0.00    +0.039 C 
BRANCH  29  30
ATOM     30  C   UNL     1      34.084 -23.308 -13.643  0.00  0.00    -0.021 C 
ATOM     31  C   UNL     1      35.033 -22.798 -14.527  0.00  0.00    -0.002 C 
ATOM     32  C   UNL     1      34.478 -24.158 -12.610  0.00  0.00    -0.004 C 
ATOM     33  C   UNL     1      36.379 -23.137 -14.378  0.00  0.00    +0.030 C 
ATOM     34  C   UNL     1      35.823 -24.498 -12.461  0.00  0.00    -0.000 C 
ATOM     35  C   UNL     1      36.773 -23.988 -13.344  0.00  0.00    +0.003 C 
BRANCH  33  38
ATOM     36  N   UNL     1      37.167 -21.400 -15.968  0.00  0.00    -0.343 N 
ATOM     37  N   UNL     1      38.488 -23.275 -15.521  0.00  0.00    -0.285 NA
ATOM     38  C   UNL     1      37.370 -22.607 -15.300  0.00  0.00    +0.117 C 
ATOM     39  H   UNL     1      37.851 -21.060 -16.589  0.00  0.00    +0.144 HD
ATOM     40  H   UNL     1      36.338 -20.888 -15.819  0.00  0.00    +0.144 HD
ATOM     41  H   UNL     1      39.160 -22.918 -16.145  0.00  0.00    +0.188 HD
ENDBRANCH  33  38
ENDBRANCH  29  30
ENDBRANCH  24  29
ENDBRANCH  22  24
ENDBRANCH   2  22
TORSDOF 11
ENDMDL
MODEL 4
REMARK VINA RESULT:     -11.5      8.579     14.331
REMARK  Name = 5497056
REMARK  11 active torsions:
REMARK  status: ('A' for Active; 'I' for Inactive)
REMARK    1  A    between atoms: N_2  and  C_22
REMARK    2  A    between atoms: C_3  and  C_5
REMARK    3  A    between atoms: C_8  and  C_11
REMARK    4  A    between atoms: C_13  and  C_17
REMARK    5  A    between atoms: C_17  and  N_18
REMARK    6  A    between atoms: C_22  and  C_24
REMARK    7  A    between atoms: C_24  and  C_26
REMARK    8  A    between atoms: C_24  and  C_29
REMARK    9  A    between atoms: C_26  and  O_27
REMARK   10  A    between atoms: C_29  and  C_30
REMARK   11  A    between atoms: C_33  and  C_38
REMARK                            x       y       z     vdW  Elec       q    Type
REMARK                         _______ _______ _______ _____ _____    ______ ____
ROOT
ATOM      1  O   UNL     1      33.701 -13.647 -24.807  0.00  0.00    -0.270 OA
ATOM      2  N   UNL     1      33.999 -12.441 -22.849  0.00  0.00    -0.302 N 
ATOM      3  C   UNL     1      34.006 -13.595 -23.619  0.00  0.00    +0.246 C 
ATOM      4  H   UNL     1      34.261 -12.503 -21.902  0.00  0.00    +0.150 HD
ENDROOT
BRANCH   3   5
ATOM      5  C   UNL     1      34.391 -14.843 -22.913  0.00  0.00    +0.053 C 
ATOM      6  C   UNL     1      34.542 -16.031 -23.629  0.00  0.00    +0.005 C 
ATOM      7  C   UNL     1      34.601 -14.829 -21.534  0.00  0.00    +0.005 C 
ATOM      8  C   UNL     1      35.115 -17.189 -21.587  0.00  0.00    -0.000 C 
ATOM      9  C   UNL     1      34.904 -17.204 -22.965  0.00  0.00    +0.000 C 
ATOM     10  C   UNL     1      34.963 -16.001 -20.871  0.00  0.00    +0.000 C 
BRANCH   8  11
ATOM     11  C   UNL     1      35.491 -18.406 -20.900  0.00  0.00    -0.000 C 
ATOM     12  C   UNL     1      34.509 -19.302 -20.480  0.00  0.00    -0.006 C 
ATOM     13  C   UNL     1      34.873 -20.475 -19.819  0.00  0.00    -0.044 C 
ATOM     14  C   UNL     1      36.837 -18.682 -20.660  0.00  0.00    -0.000 C 
ATOM     15  C   UNL     1      36.219 -20.751 -19.578  0.00  0.00    -0.006 C 
ATOM     16  C   UNL     1      37.201 -19.855 -19.999  0.00  0.00    -0.000 C 
BRANCH  13  17
ATOM     17  C   UNL     1      33.823 -21.435 -19.370  0.00  0.00    -0.059 C 
BRANCH  17  18
ATOM     18  N   UNL     1      32.499 -20.815 -19.289  0.00  0.00    +0.383 N 
ATOM     19  H   UNL     1      32.381 -20.384 -18.372  0.00  0.00    -0.089 HD
ATOM     20  H   UNL     1      31.781 -21.526 -19.425  0.00  0.00    -0.089 HD
ATOM     21  H   UNL     1      32.413 -20.102 -20.014  0.00  0.00    -0.089 HD
ENDBRANCH  17  18
ENDBRANCH  13  17
ENDBRANCH   8  11
ENDBRANCH   3   5
BRANCH   2  22
ATOM     22  C   UNL     1      33.624 -11.154 -23.385  0.00  0.00    +0.083 C 
ATOM     23  C   UNL     1      34.836 -10.476 -24.022  0.00  0.00    +0.022 C 
BRANCH  22  24
ATOM     24  C   UNL     1      32.931 -10.254 -22.338  0.00  0.00    +0.121 C 
BRANCH  24  26
ATOM     25  O   UNL     1      31.359 -12.010 -21.717  0.00  0.00    -0.250 OA
ATOM     26  C   UNL     1      32.075 -11.076 -21.380  0.00  0.00    +0.319 C 
BRANCH  26  27
ATOM     27  O   UNL     1      32.231 -10.608 -20.107  0.00  0.00    -0.444 OA
ATOM     28  C   UNL     1      31.068 -10.012 -19.523  0.00  0.00    +0.256 C 
ENDBRANCH  26  27
ENDBRANCH  24  26
BRANCH  24  29
ATOM     29  C   UNL     1      32.074  -9.154 -22.997  0.00  0.00    +0.039 C 
BRANCH  29  30
ATOM     30  C   UNL     1      32.230  -7.809 -22.325  0.00  0.00    -0.021 C 
ATOM     31  C   UNL     1      31.329  -6.782 -22.605  0.00  0.00    -0.002 C 
ATOM     32  C   UNL     1      33.276  -7.594 -21.428  0.00  0.00    -0.004 C 
ATOM     33  C   UNL     1      31.473  -5.539 -21.987  0.00  0.00    +0.030 C 
ATOM     34  C   UNL     1      33.421  -6.352 -20.810  0.00  0.00    -0.000 C 
ATOM     35  C   UNL     1      32.520  -5.324 -21.089  0.00  0.00    +0.003 C 
BRANCH  33  38
ATOM     36  N   UNL     1      30.483  -3.872 -23.539  0.00  0.00    -0.343 N 
ATOM     37  N   UNL     1      29.713  -4.038 -21.339  0.00  0.00    -0.285 NA
ATOM     38  C   UNL     1      30.536  -4.467 -22.279  0.00  0.00    +0.117 C 
ATOM     39  H   UNL     1      29.841  -3.147 -23.714  0.00  0.00    +0.144 HD
ATOM     40  H   UNL     1      31.091  -4.176 -24.252  0.00  0.00    +0.144 HD
ATOM     41  H   UNL     1      29.078  -3.312 -21.534  0.00  0.00    +0.188 HD
ENDBRANCH  33  38
ENDBRANCH  29  30
ENDBRANCH  24  29
ENDBRANCH  22  24
ENDBRANCH   2  22
TORSDOF 11
ENDMDL
MODEL 5
REMARK VINA RESULT:     -11.3      1.242      1.568
REMARK  Name = 5497056
REMARK  11 active torsions:
REMARK  status: ('A' for Active; 'I' for Inactive)
REMARK    1  A    between atoms: N_2  and  C_22
REMARK    2  A    between atoms: C_3  and  C_5
REMARK    3  A    between atoms: C_8  and  C_11
REMARK    4  A    between atoms: C_13  and  C_17
REMARK    5  A    between atoms: C_17  and  N_18
REMARK    6  A    between atoms: C_22  and  C_24
REMARK    7  A    between atoms: C_24  and  C_26
REMARK    8  A    between atoms: C_24  and  C_29
REMARK    9  A    between atoms: C_26  and  O_27
REMARK   10  A    between atoms: C_29  and  C_30
REMARK   11  A    between atoms: C_33  and  C_38
REMARK                            x       y       z     vdW  Elec       q    Type
REMARK                         _______ _______ _______ _____ _____    ______ ____
ROOT
ATOM      1  O   UNL     1      33.758 -24.237 -17.634  0.00  0.00    -0.270 OA
ATOM      2  N   UNL     1      32.145 -22.861 -16.695  0.00  0.00    -0.302 N 
ATOM      3  C   UNL     1      33.168 -23.162 -17.582  0.00  0.00    +0.246 C 
ATOM      4  H   UNL     1      31.733 -21.968 -16.732  0.00  0.00    +0.150 HD
ENDROOT
BRANCH   3   5
ATOM      5  C   UNL     1      33.568 -22.069 -18.504  0.00  0.00    +0.053 C 
ATOM      6  C   UNL     1      34.917 -21.859 -18.792  0.00  0.00    +0.005 C 
ATOM      7  C   UNL     1      32.596 -21.252 -19.082  0.00  0.00    +0.005 C 
ATOM      8  C   UNL     1      34.321 -20.016 -20.237  0.00  0.00    -0.000 C 
ATOM      9  C   UNL     1      35.293 -20.832 -19.659  0.00  0.00    +0.000 C 
ATOM     10  C   UNL     1      32.973 -20.226 -19.949  0.00  0.00    +0.000 C 
BRANCH   8  11
ATOM     11  C   UNL     1      34.713 -18.952 -21.136  0.00  0.00    -0.000 C 
ATOM     12  C   UNL     1      34.215 -18.920 -22.438  0.00  0.00    -0.006 C 
ATOM     13  C   UNL     1      34.593 -17.894 -23.304  0.00  0.00    -0.044 C 
ATOM     14  C   UNL     1      35.589 -17.958 -20.699  0.00  0.00    -0.000 C 
ATOM     15  C   UNL     1      35.470 -16.901 -22.868  0.00  0.00    -0.006 C 
ATOM     16  C   UNL     1      35.968 -16.932 -21.565  0.00  0.00    -0.000 C 
BRANCH  13  17
ATOM     17  C   UNL     1      34.060 -17.859 -24.697  0.00  0.00    -0.059 C 
BRANCH  17  18
ATOM     18  N   UNL     1      32.792 -18.578 -24.827  0.00  0.00    +0.383 N 
ATOM     19  H   UNL     1      32.073 -18.101 -24.282  0.00  0.00    -0.089 HD
ATOM     20  H   UNL     1      32.904 -19.531 -24.481  0.00  0.00    -0.089 HD
ATOM     21  H   UNL     1      32.515 -18.603 -25.808  0.00  0.00    -0.089 HD
ENDBRANCH  17  18
ENDBRANCH  13  17
ENDBRANCH   8  11
ENDBRANCH   3   5
BRANCH   2  22
ATOM     22  C   UNL     1      31.661 -23.811 -15.720  0.00  0.00    +0.083 C 
ATOM     23  C   UNL     1      30.143 -23.700 -15.588  0.00  0.00    +0.022 C 
BRANCH  22  24
ATOM     24  C   UNL     1      32.380 -23.682 -14.359  0.00  0.00    +0.121 C 
BRANCH  24  26
ATOM     25  O   UNL     1      31.336 -21.630 -13.558  0.00  0.00    -0.250 OA
ATOM     26  C   UNL     1      31.581 -22.818 -13.389  0.00  0.00    +0.319 C 
BRANCH  26  27
ATOM     27  O   UNL     1      31.191 -23.570 -12.318  0.00  0.00    -0.444 OA
ATOM     28  C   UNL     1      31.109 -24.979 -12.553  0.00  0.00    +0.256 C 
ENDBRANCH  26  27
ENDBRANCH  24  26
BRANCH  24  29
ATOM     29  C   UNL     1      33.808 -23.119 -14.510  0.00  0.00    +0.039 C 
BRANCH  29  30
ATOM     30  C   UNL     1      34.833 -23.902 -13.721  0.00  0.00    -0.021 C 
ATOM     31  C   UNL     1      35.721 -24.749 -14.382  0.00  0.00    -0.002 C 
ATOM     32  C   UNL     1      34.888 -23.779 -12.333  0.00  0.00    -0.004 C 
ATOM     33  C   UNL     1      36.667 -25.474 -13.655  0.00  0.00    +0.030 C 
ATOM     34  C   UNL     1      35.832 -24.503 -11.605  0.00  0.00    -0.000 C 
ATOM     35  C   UNL     1      36.722 -25.350 -12.265  0.00  0.00    +0.003 C 
BRANCH  33  38
ATOM     36  N   UNL     1      38.898 -26.537 -13.888  0.00  0.00    -0.343 N 
ATOM     37  N   UNL     1      37.202 -27.009 -15.424  0.00  0.00    -0.285 NA
ATOM     38  C   UNL     1      37.593 -26.358 -14.342  0.00  0.00    +0.117 C 
ATOM     39  H   UNL     1      39.509 -27.140 -14.369  0.00  0.00    +0.144 HD
ATOM     40  H   UNL     1      39.210 -26.058 -13.085  0.00  0.00    +0.144 HD
ATOM     41  H   UNL     1      37.827 -27.608 -15.891  0.00  0.00    +0.188 HD
ENDBRANCH  33  38
ENDBRANCH  29  30
ENDBRANCH  24  29
ENDBRANCH  22  24
ENDBRANCH   2  22
TORSDOF 11
ENDMDL
MODEL 6
REMARK VINA RESULT:     -11.3      3.796     10.626
REMARK  Name = 5497056
REMARK  11 active torsions:
REMARK  status: ('A' for Active; 'I' for Inactive)
REMARK    1  A    between atoms: N_2  and  C_22
REMARK    2  A    between atoms: C_3  and  C_5
REMARK    3  A    between atoms: C_8  and  C_11
REMARK    4  A    between atoms: C_13  and  C_17
REMARK    5  A    between atoms: C_17  and  N_18
REMARK    6  A    between atoms: C_22  and  C_24
REMARK    7  A    between atoms: C_24  and  C_26
REMARK    8  A    between atoms: C_24  and  C_29
REMARK    9  A    between atoms: C_26  and  O_27
REMARK   10  A    between atoms: C_29  and  C_30
REMARK   11  A    between atoms: C_33  and  C_38
REMARK                            x       y       z     vdW  Elec       q    Type
REMARK                         _______ _______ _______ _____ _____    ______ ____
ROOT
ATOM      1  O   UNL     1      36.884 -21.672 -19.337  0.00  0.00    -0.270 OA
ATOM      2  N   UNL     1      35.211 -20.212 -20.005  0.00  0.00    -0.302 N 
ATOM      3  C   UNL     1      35.742 -21.234 -19.232  0.00  0.00    +0.246 C 
ATOM      4  H   UNL     1      34.281 -19.931 -19.844  0.00  0.00    +0.150 HD
ENDROOT
BRANCH   3   5
ATOM      5  C   UNL     1      34.823 -21.835 -18.233  0.00  0.00    +0.053 C 
ATOM      6  C   UNL     1      33.449 -21.855 -18.473  0.00  0.00    +0.005 C 
ATOM      7  C   UNL     1      35.333 -22.380 -17.054  0.00  0.00    +0.005 C 
ATOM      8  C   UNL     1      33.095 -22.965 -16.356  0.00  0.00    -0.000 C 
ATOM      9  C   UNL     1      32.585 -22.420 -17.534  0.00  0.00    +0.000 C 
ATOM     10  C   UNL     1      34.469 -22.945 -16.116  0.00  0.00    +0.000 C 
BRANCH   8  11
ATOM     11  C   UNL     1      32.198 -23.552 -15.384  0.00  0.00    -0.000 C 
ATOM     12  C   UNL     1      30.837 -23.663 -15.668  0.00  0.00    -0.006 C 
ATOM     13  C   UNL     1      29.973 -24.229 -14.730  0.00  0.00    -0.044 C 
ATOM     14  C   UNL     1      32.696 -24.007 -14.162  0.00  0.00    -0.000 C 
ATOM     15  C   UNL     1      30.471 -24.683 -13.508  0.00  0.00    -0.006 C 
ATOM     16  C   UNL     1      31.832 -24.572 -13.225  0.00  0.00    -0.000 C 
BRANCH  13  17
ATOM     17  C   UNL     1      28.518 -24.348 -15.034  0.00  0.00    -0.059 C 
BRANCH  17  18
ATOM     18  N   UNL     1      28.177 -23.812 -16.352  0.00  0.00    +0.383 N 
ATOM     19  H   UNL     1      28.380 -24.512 -17.067  0.00  0.00    -0.089 HD
ATOM     20  H   UNL     1      28.729 -22.973 -16.532  0.00  0.00    -0.089 HD
ATOM     21  H   UNL     1      27.185 -23.578 -16.377  0.00  0.00    -0.089 HD
ENDBRANCH  17  18
ENDBRANCH  13  17
ENDBRANCH   8  11
ENDBRANCH   3   5
BRANCH   2  22
ATOM     22  C   UNL     1      35.972 -19.545 -21.036  0.00  0.00    +0.083 C 
ATOM     23  C   UNL     1      37.201 -18.871 -20.429  0.00  0.00    +0.022 C 
BRANCH  22  24
ATOM     24  C   UNL     1      35.114 -18.563 -21.865  0.00  0.00    +0.121 C 
BRANCH  24  26
ATOM     25  O   UNL     1      35.106 -20.164 -23.702  0.00  0.00    -0.250 OA
ATOM     26  C   UNL     1      34.567 -19.230 -23.122  0.00  0.00    +0.319 C 
BRANCH  26  27
ATOM     27  O   UNL     1      33.399 -18.628 -23.491  0.00  0.00    -0.444 OA
ATOM     28  C   UNL     1      33.386 -18.065 -24.807  0.00  0.00    +0.256 C 
ENDBRANCH  26  27
ENDBRANCH  24  26
BRANCH  24  29
ATOM     29  C   UNL     1      35.896 -17.289 -22.244  0.00  0.00    +0.039 C 
BRANCH  29  30
ATOM     30  C   UNL     1      35.139 -16.020 -21.927  0.00  0.00    -0.021 C 
ATOM     31  C   UNL     1      34.649 -15.224 -22.961  0.00  0.00    -0.002 C 
ATOM     32  C   UNL     1      34.933 -15.645 -20.599  0.00  0.00    -0.004 C 
ATOM     33  C   UNL     1      33.951 -14.051 -22.668  0.00  0.00    +0.030 C 
ATOM     34  C   UNL     1      34.236 -14.472 -20.306  0.00  0.00    -0.000 C 
ATOM     35  C   UNL     1      33.745 -13.675 -21.340  0.00  0.00    +0.003 C 
BRANCH  33  38
ATOM     36  N   UNL     1      32.683 -13.760 -24.783  0.00  0.00    -0.343 N 
ATOM     37  N   UNL     1      33.698 -11.923 -23.755  0.00  0.00    -0.285 NA
ATOM     38  C   UNL     1      33.441 -13.219 -23.746  0.00  0.00    +0.117 C 
ATOM     39  H   UNL     1      32.348 -13.179 -25.503  0.00  0.00    +0.144 HD
ATOM     40  H   UNL     1      32.484 -14.725 -24.796  0.00  0.00    +0.144 HD
ATOM     41  H   UNL     1      33.353 -11.359 -24.484  0.00  0.00    +0.188 HD
ENDBRANCH  33  38
ENDBRANCH  29  30
ENDBRANCH  24  29
ENDBRANCH  22  24
ENDBRANCH   2  22
TORSDOF 11
ENDMDL
MODEL 7
REMARK VINA RESULT:     -11.0      9.727     15.494
REMARK  Name = 5497056
REMARK  11 active torsions:
REMARK  status: ('A' for Active; 'I' for Inactive)
REMARK    1  A    between atoms: N_2  and  C_22
REMARK    2  A    between atoms: C_3  and  C_5
REMARK    3  A    between atoms: C_8  and  C_11
REMARK    4  A    between atoms: C_13  and  C_17
REMARK    5  A    between atoms: C_17  and  N_18
REMARK    6  A    between atoms: C_22  and  C_24
REMARK    7  A    between atoms: C_24  and  C_26
REMARK    8  A    between atoms: C_24  and  C_29
REMARK    9  A    between atoms: C_26  and  O_27
REMARK   10  A    between atoms: C_29  and  C_30
REMARK   11  A    between atoms: C_33  and  C_38
REMARK                            x       y       z     vdW  Elec       q    Type
REMARK                         _______ _______ _______ _____ _____    ______ ____
ROOT
ATOM      1  O   UNL     1      33.406 -10.898 -25.158  0.00  0.00    -0.270 OA
ATOM      2  N   UNL     1      33.240 -10.548 -22.872  0.00  0.00    -0.302 N 
ATOM      3  C   UNL     1      33.469 -11.314 -24.004  0.00  0.00    +0.246 C 
ATOM      4  H   UNL     1      33.315 -10.975 -21.987  0.00  0.00    +0.150 HD
ENDROOT
BRANCH   3   5
ATOM      5  C   UNL     1      33.785 -12.745 -23.766  0.00  0.00    +0.053 C 
ATOM      6  C   UNL     1      34.403 -13.134 -22.577  0.00  0.00    +0.005 C 
ATOM      7  C   UNL     1      33.466 -13.701 -24.730  0.00  0.00    +0.005 C 
ATOM      8  C   UNL     1      34.380 -15.434 -23.316  0.00  0.00    -0.000 C 
ATOM      9  C   UNL     1      34.700 -14.478 -22.352  0.00  0.00    +0.000 C 
ATOM     10  C   UNL     1      33.763 -15.045 -24.505  0.00  0.00    +0.000 C 
BRANCH   8  11
ATOM     11  C   UNL     1      34.688 -16.828 -23.081  0.00  0.00    -0.000 C 
ATOM     12  C   UNL     1      35.491 -17.193 -22.001  0.00  0.00    -0.006 C 
ATOM     13  C   UNL     1      35.787 -18.537 -21.776  0.00  0.00    -0.044 C 
ATOM     14  C   UNL     1      34.181 -17.807 -23.937  0.00  0.00    -0.000 C 
ATOM     15  C   UNL     1      35.281 -19.516 -22.631  0.00  0.00    -0.006 C 
ATOM     16  C   UNL     1      34.477 -19.151 -23.711  0.00  0.00    -0.000 C 
BRANCH  13  17
ATOM     17  C   UNL     1      36.644 -18.928 -20.620  0.00  0.00    -0.059 C 
BRANCH  17  18
ATOM     18  N   UNL     1      36.025 -19.963 -19.790  0.00  0.00    +0.383 N 
ATOM     19  H   UNL     1      36.302 -20.883 -20.132  0.00  0.00    -0.089 HD
ATOM     20  H   UNL     1      35.010 -19.874 -19.836  0.00  0.00    -0.089 HD
ATOM     21  H   UNL     1      36.332 -19.852 -18.824  0.00  0.00    -0.089 HD
ENDBRANCH  17  18
ENDBRANCH  13  17
ENDBRANCH   8  11
ENDBRANCH   3   5
BRANCH   2  22
ATOM     22  C   UNL     1      32.897  -9.146 -22.940  0.00  0.00    +0.083 C 
ATOM     23  C   UNL     1      34.159  -8.291 -22.836  0.00  0.00    +0.022 C 
BRANCH  22  24
ATOM     24  C   UNL     1      31.828  -8.745 -21.899  0.00  0.00    +0.121 C 
BRANCH  24  26
ATOM     25  O   UNL     1      30.412 -10.669 -21.414  0.00  0.00    -0.250 OA
ATOM     26  C   UNL     1      31.354  -9.953 -21.097  0.00  0.00    +0.319 C 
BRANCH  26  27
ATOM     27  O   UNL     1      32.134 -10.104 -19.988  0.00  0.00    -0.444 OA
ATOM     28  C   UNL     1      32.306  -8.927 -19.192  0.00  0.00    +0.256 C 
ENDBRANCH  26  27
ENDBRANCH  24  26
BRANCH  24  29
ATOM     29  C   UNL     1      30.622  -8.040 -22.550  0.00  0.00    +0.039 C 
BRANCH  29  30
ATOM     30  C   UNL     1      30.933  -6.626 -22.983  0.00  0.00    -0.021 C 
ATOM     31  C   UNL     1      30.781  -5.572 -22.083  0.00  0.00    -0.002 C 
ATOM     32  C   UNL     1      31.369  -6.375 -24.284  0.00  0.00    -0.004 C 
ATOM     33  C   UNL     1      31.067  -4.266 -22.482  0.00  0.00    +0.030 C 
ATOM     34  C   UNL     1      31.654  -5.069 -24.684  0.00  0.00    -0.000 C 
ATOM     35  C   UNL     1      31.504  -4.014 -23.784  0.00  0.00    +0.003 C 
BRANCH  33  38
ATOM     36  N   UNL     1      29.658  -2.601 -21.295  0.00  0.00    -0.343 N 
ATOM     37  N   UNL     1      31.962  -2.683 -20.912  0.00  0.00    -0.285 NA
ATOM     38  C   UNL     1      30.908  -3.167 -21.545  0.00  0.00    +0.117 C 
ATOM     39  H   UNL     1      29.574  -1.857 -20.657  0.00  0.00    +0.144 HD
ATOM     40  H   UNL     1      28.860  -2.945 -21.759  0.00  0.00    +0.144 HD
ATOM     41  H   UNL     1      31.856  -1.938 -20.277  0.00  0.00    +0.188 HD
ENDBRANCH  33  38
ENDBRANCH  29  30
ENDBRANCH  24  29
ENDBRANCH  22  24
ENDBRANCH   2  22
TORSDOF 11
ENDMDL
MODEL 8
REMARK VINA RESULT:     -10.8      7.852     11.256
REMARK  Name = 5497056
REMARK  11 active torsions:
REMARK  status: ('A' for Active; 'I' for Inactive)
REMARK    1  A    between atoms: N_2  and  C_22
REMARK    2  A    between atoms: C_3  and  C_5
REMARK    3  A    between atoms: C_8  and  C_11
REMARK    4  A    between atoms: C_13  and  C_17
REMARK    5  A    between atoms: C_17  and  N_18
REMARK    6  A    between atoms: C_22  and  C_24
REMARK    7  A    between atoms: C_24  and  C_26
REMARK    8  A    between atoms: C_24  and  C_29
REMARK    9  A    between atoms: C_26  and  O_27
REMARK   10  A    between atoms: C_29  and  C_30
REMARK   11  A    between atoms: C_33  and  C_38
REMARK                            x       y       z     vdW  Elec       q    Type
REMARK                         _______ _______ _______ _____ _____    ______ ____
ROOT
ATOM      1  O   UNL     1      31.940 -14.116 -19.921  0.00  0.00    -0.270 OA
ATOM      2  N   UNL     1      33.861 -14.136 -21.219  0.00  0.00    -0.302 N 
ATOM      3  C   UNL     1      32.730 -13.550 -20.672  0.00  0.00    +0.246 C 
ATOM      4  H   UNL     1      34.434 -13.597 -21.812  0.00  0.00    +0.150 HD
ENDROOT
BRANCH   3   5
ATOM      5  C   UNL     1      32.475 -12.141 -21.065  0.00  0.00    +0.053 C 
ATOM      6  C   UNL     1      32.972 -11.654 -22.274  0.00  0.00    +0.005 C 
ATOM      7  C   UNL     1      31.738 -11.304 -20.227  0.00  0.00    +0.005 C 
ATOM      8  C   UNL     1      31.995  -9.494 -21.806  0.00  0.00    -0.000 C 
ATOM      9  C   UNL     1      32.733 -10.330 -22.644  0.00  0.00    +0.000 C 
ATOM     10  C   UNL     1      31.498  -9.981 -20.597  0.00  0.00    +0.000 C 
BRANCH   8  11
ATOM     11  C   UNL     1      31.747  -8.121 -22.192  0.00  0.00    -0.000 C 
ATOM     12  C   UNL     1      32.184  -7.078 -21.378  0.00  0.00    -0.006 C 
ATOM     13  C   UNL     1      31.944  -5.755 -21.751  0.00  0.00    -0.044 C 
ATOM     14  C   UNL     1      31.070  -7.844 -23.380  0.00  0.00    -0.000 C 
ATOM     15  C   UNL     1      31.266  -5.477 -22.938  0.00  0.00    -0.006 C 
ATOM     16  C   UNL     1      30.830  -6.522 -23.753  0.00  0.00    -0.000 C 
BRANCH  13  17
ATOM     17  C   UNL     1      32.412  -4.638 -20.880  0.00  0.00    -0.059 C 
BRANCH  17  18
ATOM     18  N   UNL     1      31.777  -3.363 -21.219  0.00  0.00    +0.383 N 
ATOM     19  H   UNL     1      31.501  -2.883 -20.362  0.00  0.00    -0.089 HD
ATOM     20  H   UNL     1      30.953  -3.535 -21.794  0.00  0.00    -0.089 HD
ATOM     21  H   UNL     1      32.438  -2.783 -21.737  0.00  0.00    -0.089 HD
ENDBRANCH  17  18
ENDBRANCH  13  17
ENDBRANCH   8  11
ENDBRANCH   3   5
BRANCH   2  22
ATOM     22  C   UNL     1      34.231 -15.507 -20.952  0.00  0.00    +0.083 C 
ATOM     23  C   UNL     1      34.930 -15.608 -19.598  0.00  0.00    +0.022 C 
BRANCH  22  24
ATOM     24  C   UNL     1      35.067 -16.129 -22.093  0.00  0.00    +0.121 C 
BRANCH  24  26
ATOM     25  O   UNL     1      35.233 -14.100 -23.432  0.00  0.00    -0.250 OA
ATOM     26  C   UNL     1      34.976 -15.295 -23.366  0.00  0.00    +0.319 C 
BRANCH  26  27
ATOM     27  O   UNL     1      34.566 -16.082 -24.403  0.00  0.00    -0.444 OA
ATOM     28  C   UNL     1      33.577 -15.505 -25.261  0.00  0.00    +0.256 C 
ENDBRANCH  26  27
ENDBRANCH  24  26
BRANCH  24  29
ATOM     29  C   UNL     1      34.650 -17.585 -22.387  0.00  0.00    +0.039 C 
BRANCH  29  30
ATOM     30  C   UNL     1      35.246 -18.574 -21.412  0.00  0.00    -0.021 C 
ATOM     31  C   UNL     1      34.432 -19.525 -20.799  0.00  0.00    -0.002 C 
ATOM     32  C   UNL     1      36.610 -18.533 -21.125  0.00  0.00    -0.004 C 
ATOM     33  C   UNL     1      34.982 -20.437 -19.898  0.00  0.00    +0.030 C 
ATOM     34  C   UNL     1      37.161 -19.445 -20.224  0.00  0.00    -0.000 C 
ATOM     35  C   UNL     1      36.347 -20.397 -19.610  0.00  0.00    +0.003 C 
BRANCH  33  38
ATOM     36  N   UNL     1      32.751 -21.426 -19.436  0.00  0.00    -0.343 N 
ATOM     37  N   UNL     1      34.672 -22.355 -18.483  0.00  0.00    -0.285 NA
ATOM     38  C   UNL     1      34.134 -21.429 -19.257  0.00  0.00    +0.117 C 
ATOM     39  H   UNL     1      32.196 -22.106 -18.991  0.00  0.00    +0.144 HD
ATOM     40  H   UNL     1      32.330 -20.741 -20.006  0.00  0.00    +0.144 HD
ATOM     41  H   UNL     1      34.100 -23.027 -18.048  0.00  0.00    +0.188 HD
ENDBRANCH  33  38
ENDBRANCH  29  30
ENDBRANCH  24  29
ENDBRANCH  22  24
ENDBRANCH   2  22
TORSDOF 11
ENDMDL
MODEL 9
REMARK VINA RESULT:     -10.8      1.845      2.307
REMARK  Name = 5497056
REMARK  11 active torsions:
REMARK  status: ('A' for Active; 'I' for Inactive)
REMARK    1  A    between atoms: N_2  and  C_22
REMARK    2  A    between atoms: C_3  and  C_5
REMARK    3  A    between atoms: C_8  and  C_11
REMARK    4  A    between atoms: C_13  and  C_17
REMARK    5  A    between atoms: C_17  and  N_18
REMARK    6  A    between atoms: C_22  and  C_24
REMARK    7  A    between atoms: C_24  and  C_26
REMARK    8  A    between atoms: C_24  and  C_29
REMARK    9  A    between atoms: C_26  and  O_27
REMARK   10  A    between atoms: C_29  and  C_30
REMARK   11  A    between atoms: C_33  and  C_38
REMARK                            x       y       z     vdW  Elec       q    Type
REMARK                         _______ _______ _______ _____ _____    ______ ____
ROOT
ATOM      1  O   UNL     1      33.792 -24.206 -18.315  0.00  0.00    -0.270 OA
ATOM      2  N   UNL     1      32.696 -22.827 -16.808  0.00  0.00    -0.302 N 
ATOM      3  C   UNL     1      33.421 -23.091 -17.960  0.00  0.00    +0.246 C 
ATOM      4  H   UNL     1      32.445 -21.895 -16.609  0.00  0.00    +0.150 HD
ENDROOT
BRANCH   3   5
ATOM      5  C   UNL     1      33.778 -21.910 -18.786  0.00  0.00    +0.053 C 
ATOM      6  C   UNL     1      32.773 -21.097 -19.312  0.00  0.00    +0.005 C 
ATOM      7  C   UNL     1      35.118 -21.612 -19.037  0.00  0.00    +0.005 C 
ATOM      8  C   UNL     1      34.448 -19.690 -20.338  0.00  0.00    -0.000 C 
ATOM      9  C   UNL     1      33.109 -19.988 -20.089  0.00  0.00    +0.000 C 
ATOM     10  C   UNL     1      35.453 -20.502 -19.812  0.00  0.00    +0.000 C 
BRANCH   8  11
ATOM     11  C   UNL     1      34.794 -18.538 -21.143  0.00  0.00    -0.000 C 
ATOM     12  C   UNL     1      34.743 -17.259 -20.588  0.00  0.00    -0.006 C 
ATOM     13  C   UNL     1      35.077 -16.150 -21.364  0.00  0.00    -0.044 C 
ATOM     14  C   UNL     1      35.179 -18.708 -22.472  0.00  0.00    -0.000 C 
ATOM     15  C   UNL     1      35.461 -16.319 -22.695  0.00  0.00    -0.006 C 
ATOM     16  C   UNL     1      35.513 -17.598 -23.249  0.00  0.00    -0.000 C 
BRANCH  13  17
ATOM     17  C   UNL     1      35.024 -14.782 -20.772  0.00  0.00    -0.059 C 
BRANCH  17  18
ATOM     18  N   UNL     1      34.132 -13.888 -21.512  0.00  0.00    +0.383 N 
ATOM     19  H   UNL     1      33.468 -13.460 -20.867  0.00  0.00    -0.089 HD
ATOM     20  H   UNL     1      33.626 -14.420 -22.219  0.00  0.00    -0.089 HD
ATOM     21  H   UNL     1      34.684 -13.159 -21.966  0.00  0.00    -0.089 HD
ENDBRANCH  17  18
ENDBRANCH  13  17
ENDBRANCH   8  11
ENDBRANCH   3   5
BRANCH   2  22
ATOM     22  C   UNL     1      32.295 -23.866 -15.889  0.00  0.00    +0.083 C 
ATOM     23  C   UNL     1      30.772 -23.992 -15.868  0.00  0.00    +0.022 C 
BRANCH  22  24
ATOM     24  C   UNL     1      32.887 -23.669 -14.475  0.00  0.00    +0.121 C 
BRANCH  24  26
ATOM     25  O   UNL     1      31.406 -21.858 -13.792  0.00  0.00    -0.250 OA
ATOM     26  C   UNL     1      31.903 -22.952 -13.557  0.00  0.00    +0.319 C 
BRANCH  26  27
ATOM     27  O   UNL     1      31.670 -23.714 -12.448  0.00  0.00    -0.444 OA
ATOM     28  C   UNL     1      30.713 -24.765 -12.614  0.00  0.00    +0.256 C 
ENDBRANCH  26  27
ENDBRANCH  24  26
BRANCH  24  29
ATOM     29  C   UNL     1      34.225 -22.905 -14.510  0.00  0.00    +0.039 C 
BRANCH  29  30
ATOM     30  C   UNL     1      35.328 -23.619 -13.763  0.00  0.00    -0.021 C 
ATOM     31  C   UNL     1      36.049 -24.635 -14.389  0.00  0.00    -0.002 C 
ATOM     32  C   UNL     1      35.623 -23.264 -12.447  0.00  0.00    -0.004 C 
ATOM     33  C   UNL     1      37.066 -25.297 -13.700  0.00  0.00    +0.030 C 
ATOM     34  C   UNL     1      36.640 -23.925 -11.757  0.00  0.00    -0.000 C 
ATOM     35  C   UNL     1      37.362 -24.941 -12.383  0.00  0.00    +0.003 C 
BRANCH  33  38
ATOM     36  N   UNL     1      39.105 -26.694 -13.938  0.00  0.00    -0.343 N 
ATOM     37  N   UNL     1      37.280 -27.020 -15.360  0.00  0.00    -0.285 NA
ATOM     38  C   UNL     1      37.817 -26.357 -14.352  0.00  0.00    +0.117 C 
ATOM     39  H   UNL     1      39.596 -27.415 -14.394  0.00  0.00    +0.144 HD
ATOM     40  H   UNL     1      39.524 -26.209 -13.190  0.00  0.00    +0.144 HD
ATOM     41  H   UNL     1      37.787 -27.739 -15.803  0.00  0.00    +0.188 HD
ENDBRANCH  33  38
ENDBRANCH  29  30
ENDBRANCH  24  29
ENDBRANCH  22  24
ENDBRANCH   2  22
TORSDOF 11
ENDMDL
