MODEL 1
REMARK VINA RESULT:     -12.0      0.000      0.000
REMARK  Name = 46937054
REMARK  4 active torsions:
REMARK  status: ('A' for Active; 'I' for Inactive)
REMARK    1  A    between atoms: C_5  and  C_18
REMARK    2  A    between atoms: C_11  and  O_19
REMARK    3  A    between atoms: O_19  and  C_20
REMARK    4  A    between atoms: C_20  and  C_22
REMARK                            x       y       z     vdW  Elec       q    Type
REMARK                         _______ _______ _______ _____ _____    ______ ____
ROOT
ATOM      1 CL   UNL     1      30.134 -23.237 -15.676  0.00  0.00    -0.047 Cl
ATOM      2  O   UNL     1      35.702 -22.737 -16.948  0.00  0.00    -0.263 OA
ATOM      3  N   UNL     1      34.090 -23.324 -15.366  0.00  0.00    -0.240 N 
ATOM      4  N   UNL     1      32.157 -22.810 -17.310  0.00  0.00    -0.351 NA
ATOM      5  C   UNL     1      34.904 -23.604 -14.182  0.00  0.00    +0.161 C 
ATOM      6  C   UNL     1      33.845 -23.838 -13.143  0.00  0.00    +0.057 C 
ATOM      7  C   UNL     1      32.746 -23.405 -15.072  0.00  0.00    +0.091 C 
ATOM      8  C   UNL     1      32.620 -23.737 -13.678  0.00  0.00    -0.005 C 
ATOM      9  C   UNL     1      34.547 -22.915 -16.597  0.00  0.00    +0.320 C 
ATOM     10  C   UNL     1      31.830 -23.157 -16.019  0.00  0.00    +0.206 C 
ATOM     11  C   UNL     1      33.419 -22.692 -17.576  0.00  0.00    +0.335 C 
ENDROOT
BRANCH   5  18
ATOM     12  O   UNL     1      35.171 -25.799 -15.065  0.00  0.00    -0.273 OA
ATOM     13  N   UNL     1      36.892 -24.968 -13.766  0.00  0.00    -0.278 N 
ATOM     14  C   UNL     1      37.525 -23.933 -12.956  0.00  0.00    +0.094 C 
ATOM     15  C   UNL     1      37.739 -26.147 -13.863  0.00  0.00    +0.094 C 
ATOM     16  C   UNL     1      38.710 -24.632 -12.305  0.00  0.00    +0.023 C 
ATOM     17  C   UNL     1      39.089 -25.690 -13.333  0.00  0.00    +0.023 C 
ATOM     18  C   UNL     1      35.658 -24.893 -14.387  0.00  0.00    +0.244 C 
ENDBRANCH   5  18
BRANCH  11  19
ATOM     19  O   UNL     1      33.854 -22.353 -18.799  0.00  0.00    -0.444 OA
BRANCH  19  20
ATOM     20  C   UNL     1      33.315 -21.131 -19.287  0.00  0.00    +0.235 C 
BRANCH  20  22
ATOM     21  F   UNL     1      37.417 -18.175 -21.761  0.00  0.00    -0.204 F 
ATOM     22  C   UNL     1      34.408 -20.343 -19.947  0.00  0.00    +0.021 C 
ATOM     23  C   UNL     1      34.104 -19.457 -20.980  0.00  0.00    +0.002 C 
ATOM     24  C   UNL     1      35.729 -20.497 -19.527  0.00  0.00    +0.002 C 
ATOM     25  C   UNL     1      35.120 -18.725 -21.594  0.00  0.00    +0.029 C 
ATOM     26  C   UNL     1      36.746 -19.764 -20.140  0.00  0.00    +0.029 C 
ATOM     27  C   UNL     1      36.441 -18.878 -21.173  0.00  0.00    +0.140 C 
ENDBRANCH  20  22
ENDBRANCH  19  20
ENDBRANCH  11  19
TORSDOF 4
ENDMDL
MODEL 2
REMARK VINA RESULT:     -11.3      2.515      5.020
REMARK  Name = 46937054
REMARK  4 active torsions:
REMARK  status: ('A' for Active; 'I' for Inactive)
REMARK    1  A    between atoms: C_5  and  C_18
REMARK    2  A    between atoms: C_11  and  O_19
REMARK    3  A    between atoms: O_19  and  C_20
REMARK    4  A    between atoms: C_20  and  C_22
REMARK                            x       y       z     vdW  Elec       q    Type
REMARK                         _______ _______ _______ _____ _____    ______ ____
ROOT
ATOM      1 CL   UNL     1      37.205 -23.164 -13.812  0.00  0.00    -0.047 Cl
ATOM      2  O   UNL     1      32.705 -23.230 -17.364  0.00  0.00    -0.263 OA
ATOM      3  N   UNL     1      33.513 -23.591 -15.205  0.00  0.00    -0.240 N 
ATOM      4  N   UNL     1      35.991 -22.677 -16.100  0.00  0.00    -0.351 NA
ATOM      5  C   UNL     1      32.342 -24.146 -14.524  0.00  0.00    +0.161 C 
ATOM      6  C   UNL     1      32.919 -24.502 -13.184  0.00  0.00    +0.057 C 
ATOM      7  C   UNL     1      34.616 -23.598 -14.378  0.00  0.00    +0.091 C 
ATOM      8  C   UNL     1      34.216 -24.165 -13.117  0.00  0.00    -0.005 C 
ATOM      9  C   UNL     1      33.590 -23.210 -16.524  0.00  0.00    +0.320 C 
ATOM     10  C   UNL     1      35.799 -23.154 -14.823  0.00  0.00    +0.206 C 
ATOM     11  C   UNL     1      34.967 -22.709 -16.891  0.00  0.00    +0.335 C 
ENDROOT
BRANCH   5  18
ATOM     12  O   UNL     1      31.583 -22.074 -13.629  0.00  0.00    -0.273 OA
ATOM     13  N   UNL     1      30.104 -23.255 -14.953  0.00  0.00    -0.278 N 
ATOM     14  C   UNL     1      29.730 -24.392 -15.789  0.00  0.00    +0.094 C 
ATOM     15  C   UNL     1      29.011 -22.300 -14.852  0.00  0.00    +0.094 C 
ATOM     16  C   UNL     1      28.228 -24.241 -15.986  0.00  0.00    +0.023 C 
ATOM     17  C   UNL     1      28.027 -22.732 -15.928  0.00  0.00    +0.023 C 
ATOM     18  C   UNL     1      31.319 -23.057 -14.322  0.00  0.00    +0.244 C 
ENDBRANCH   5  18
BRANCH  11  19
ATOM     19  O   UNL     1      35.039 -22.276 -18.158  0.00  0.00    -0.444 OA
BRANCH  19  20
ATOM     20  C   UNL     1      36.223 -21.544 -18.454  0.00  0.00    +0.235 C 
BRANCH  20  22
ATOM     21  F   UNL     1      35.091 -17.767 -22.471  0.00  0.00    -0.204 F 
ATOM     22  C   UNL     1      35.921 -20.537 -19.525  0.00  0.00    +0.021 C 
ATOM     23  C   UNL     1      36.913 -19.656 -19.953  0.00  0.00    +0.002 C 
ATOM     24  C   UNL     1      34.648 -20.483 -20.092  0.00  0.00    +0.002 C 
ATOM     25  C   UNL     1      36.633 -18.719 -20.948  0.00  0.00    +0.029 C 
ATOM     26  C   UNL     1      34.367 -19.547 -21.088  0.00  0.00    +0.029 C 
ATOM     27  C   UNL     1      35.360 -18.665 -21.516  0.00  0.00    +0.140 C 
ENDBRANCH  20  22
ENDBRANCH  19  20
ENDBRANCH  11  19
TORSDOF 4
ENDMDL
MODEL 3
REMARK VINA RESULT:     -10.8      6.712     11.581
REMARK  Name = 46937054
REMARK  4 active torsions:
REMARK  status: ('A' for Active; 'I' for Inactive)
REMARK    1  A    between atoms: C_5  and  C_18
REMARK    2  A    between atoms: C_11  and  O_19
REMARK    3  A    between atoms: O_19  and  C_20
REMARK    4  A    between atoms: C_20  and  C_22
REMARK                            x       y       z     vdW  Elec       q    Type
REMARK                         _______ _______ _______ _____ _____    ______ ____
ROOT
ATOM      1 CL   UNL     1      33.849 -17.495 -25.247  0.00  0.00    -0.047 Cl
ATOM      2  O   UNL     1      35.209 -14.735 -20.410  0.00  0.00    -0.263 OA
ATOM      3  N   UNL     1      34.253 -14.625 -22.535  0.00  0.00    -0.240 N 
ATOM      4  N   UNL     1      34.708 -17.367 -22.759  0.00  0.00    -0.351 NA
ATOM      5  C   UNL     1      33.960 -13.197 -22.672  0.00  0.00    +0.161 C 
ATOM      6  C   UNL     1      33.481 -13.127 -24.093  0.00  0.00    +0.057 C 
ATOM      7  C   UNL     1      33.964 -15.302 -23.701  0.00  0.00    +0.091 C 
ATOM      8  C   UNL     1      33.475 -14.344 -24.657  0.00  0.00    -0.005 C 
ATOM      9  C   UNL     1      34.845 -15.242 -21.459  0.00  0.00    +0.320 C 
ATOM     10  C   UNL     1      34.187 -16.620 -23.792  0.00  0.00    +0.206 C 
ATOM     11  C   UNL     1      35.018 -16.726 -21.678  0.00  0.00    +0.335 C 
ENDROOT
BRANCH   5  18
ATOM     12  O   UNL     1      32.260 -13.698 -21.081  0.00  0.00    -0.273 OA
ATOM     13  N   UNL     1      32.438 -11.502 -21.779  0.00  0.00    -0.278 N 
ATOM     14  C   UNL     1      33.050 -10.433 -22.563  0.00  0.00    +0.094 C 
ATOM     15  C   UNL     1      31.343 -10.994 -20.967  0.00  0.00    +0.094 C 
ATOM     16  C   UNL     1      32.093  -9.259 -22.413  0.00  0.00    +0.023 C 
ATOM     17  C   UNL     1      31.491  -9.482 -21.032  0.00  0.00    +0.023 C 
ATOM     18  C   UNL     1      32.811 -12.835 -21.767  0.00  0.00    +0.244 C 
ENDBRANCH   5  18
BRANCH  11  19
ATOM     19  O   UNL     1      35.538 -17.350 -20.611  0.00  0.00    -0.444 OA
BRANCH  19  20
ATOM     20  C   UNL     1      36.186 -18.579 -20.917  0.00  0.00    +0.235 C 
BRANCH  20  22
ATOM     21  F   UNL     1      33.550 -22.764 -18.229  0.00  0.00    -0.204 F 
ATOM     22  C   UNL     1      35.483 -19.695 -20.201  0.00  0.00    +0.021 C 
ATOM     23  C   UNL     1      36.214 -20.597 -19.428  0.00  0.00    +0.002 C 
ATOM     24  C   UNL     1      34.099 -19.829 -20.307  0.00  0.00    +0.002 C 
ATOM     25  C   UNL     1      35.562 -21.635 -18.762  0.00  0.00    +0.029 C 
ATOM     26  C   UNL     1      33.446 -20.867 -19.641  0.00  0.00    +0.029 C 
ATOM     27  C   UNL     1      34.177 -21.769 -18.868  0.00  0.00    +0.140 C 
ENDBRANCH  20  22
ENDBRANCH  19  20
ENDBRANCH  11  19
TORSDOF 4
ENDMDL
MODEL 4
REMARK VINA RESULT:     -10.0      1.554      2.329
REMARK  Name = 46937054
REMARK  4 active torsions:
REMARK  status: ('A' for Active; 'I' for Inactive)
REMARK    1  A    between atoms: C_5  and  C_18
REMARK    2  A    between atoms: C_11  and  O_19
REMARK    3  A    between atoms: O_19  and  C_20
REMARK    4  A    between atoms: C_20  and  C_22
REMARK                            x       y       z     vdW  Elec       q    Type
REMARK                         _______ _______ _______ _____ _____    ______ ____
ROOT
ATOM      1 CL   UNL     1      31.397 -23.562 -13.003  0.00  0.00    -0.047 Cl
ATOM      2  O   UNL     1      36.442 -23.623 -15.725  0.00  0.00    -0.263 OA
ATOM      3  N   UNL     1      35.293 -23.844 -13.707  0.00  0.00    -0.240 N 
ATOM      4  N   UNL     1      32.926 -23.532 -15.148  0.00  0.00    -0.351 NA
ATOM      5  C   UNL     1      36.384 -23.979 -12.741  0.00  0.00    +0.161 C 
ATOM      6  C   UNL     1      35.632 -23.976 -11.440  0.00  0.00    +0.057 C 
ATOM      7  C   UNL     1      34.072 -23.793 -13.069  0.00  0.00    +0.091 C 
ATOM      8  C   UNL     1      34.311 -23.886 -11.653  0.00  0.00    -0.005 C 
ATOM      9  C   UNL     1      35.417 -23.669 -15.065  0.00  0.00    +0.320 C 
ATOM     10  C   UNL     1      32.944 -23.644 -13.777  0.00  0.00    +0.206 C 
ATOM     11  C   UNL     1      34.075 -23.538 -15.745  0.00  0.00    +0.335 C 
ENDROOT
BRANCH   5  18
ATOM     12  O   UNL     1      36.454 -26.350 -12.537  0.00  0.00    -0.273 OA
ATOM     13  N   UNL     1      38.293 -25.318 -13.482  0.00  0.00    -0.278 N 
ATOM     14  C   UNL     1      39.031 -24.147 -13.943  0.00  0.00    +0.094 C 
ATOM     15  C   UNL     1      39.055 -26.538 -13.705  0.00  0.00    +0.094 C 
ATOM     16  C   UNL     1      40.435 -24.668 -14.219  0.00  0.00    +0.023 C 
ATOM     17  C   UNL     1      40.189 -26.115 -14.626  0.00  0.00    +0.023 C 
ATOM     18  C   UNL     1      37.035 -25.328 -12.907  0.00  0.00    +0.244 C 
ENDBRANCH   5  18
BRANCH  11  19
ATOM     19  O   UNL     1      34.178 -23.429 -17.078  0.00  0.00    -0.444 OA
BRANCH  19  20
ATOM     20  C   UNL     1      33.193 -22.591 -17.670  0.00  0.00    +0.235 C 
BRANCH  20  22
ATOM     21  F   UNL     1      35.670 -19.211 -21.428  0.00  0.00    -0.204 F 
ATOM     22  C   UNL     1      33.853 -21.690 -18.671  0.00  0.00    +0.021 C 
ATOM     23  C   UNL     1      35.244 -21.660 -18.773  0.00  0.00    +0.002 C 
ATOM     24  C   UNL     1      33.077 -20.882 -19.501  0.00  0.00    +0.002 C 
ATOM     25  C   UNL     1      35.858 -20.823 -19.703  0.00  0.00    +0.029 C 
ATOM     26  C   UNL     1      33.690 -20.044 -20.433  0.00  0.00    +0.029 C 
ATOM     27  C   UNL     1      35.082 -20.015 -20.534  0.00  0.00    +0.140 C 
ENDBRANCH  20  22
ENDBRANCH  19  20
ENDBRANCH  11  19
TORSDOF 4
ENDMDL
MODEL 5
REMARK VINA RESULT:      -9.6      3.128      4.927
REMARK  Name = 46937054
REMARK  4 active torsions:
REMARK  status: ('A' for Active; 'I' for Inactive)
REMARK    1  A    between atoms: C_5  and  C_18
REMARK    2  A    between atoms: C_11  and  O_19
REMARK    3  A    between atoms: O_19  and  C_20
REMARK    4  A    between atoms: C_20  and  C_22
REMARK                            x       y       z     vdW  Elec       q    Type
REMARK                         _______ _______ _______ _____ _____    ______ ____
ROOT
ATOM      1 CL   UNL     1      37.542 -21.515 -15.667  0.00  0.00    -0.047 Cl
ATOM      2  O   UNL     1      33.373 -22.571 -19.459  0.00  0.00    -0.263 OA
ATOM      3  N   UNL     1      34.159 -22.828 -17.277  0.00  0.00    -0.240 N 
ATOM      4  N   UNL     1      36.335 -21.238 -17.994  0.00  0.00    -0.351 NA
ATOM      5  C   UNL     1      33.153 -23.712 -16.686  0.00  0.00    +0.161 C 
ATOM      6  C   UNL     1      33.751 -23.979 -15.334  0.00  0.00    +0.057 C 
ATOM      7  C   UNL     1      35.189 -22.589 -16.392  0.00  0.00    +0.091 C 
ATOM      8  C   UNL     1      34.905 -23.313 -15.182  0.00  0.00    -0.005 C 
ATOM      9  C   UNL     1      34.185 -22.365 -18.572  0.00  0.00    +0.320 C 
ATOM     10  C   UNL     1      36.227 -21.821 -16.752  0.00  0.00    +0.206 C 
ATOM     11  C   UNL     1      35.390 -21.495 -18.840  0.00  0.00    +0.335 C 
ENDROOT
BRANCH   5  18
ATOM     12  O   UNL     1      31.692 -21.871 -17.063  0.00  0.00    -0.273 OA
ATOM     13  N   UNL     1      30.946 -23.536 -15.645  0.00  0.00    -0.278 N 
ATOM     14  C   UNL     1      31.093 -24.808 -14.944  0.00  0.00    +0.094 C 
ATOM     15  C   UNL     1      29.661 -22.922 -15.350  0.00  0.00    +0.094 C 
ATOM     16  C   UNL     1      29.934 -24.832 -13.957  0.00  0.00    +0.023 C 
ATOM     17  C   UNL     1      28.860 -24.022 -14.671  0.00  0.00    +0.023 C 
ATOM     18  C   UNL     1      31.869 -22.948 -16.492  0.00  0.00    +0.244 C 
ENDBRANCH   5  18
BRANCH  11  19
ATOM     19  O   UNL     1      35.395 -20.986 -20.081  0.00  0.00    -0.444 OA
BRANCH  19  20
ATOM     20  C   UNL     1      36.196 -19.819 -20.226  0.00  0.00    +0.235 C 
BRANCH  20  22
ATOM     21  F   UNL     1      34.152 -16.702 -24.444  0.00  0.00    -0.204 F 
ATOM     22  C   UNL     1      35.651 -18.988 -21.350  0.00  0.00    +0.021 C 
ATOM     23  C   UNL     1      35.895 -17.616 -21.385  0.00  0.00    +0.002 C 
ATOM     24  C   UNL     1      34.900 -19.589 -22.360  0.00  0.00    +0.002 C 
ATOM     25  C   UNL     1      35.389 -16.843 -22.430  0.00  0.00    +0.029 C 
ATOM     26  C   UNL     1      34.393 -18.816 -23.406  0.00  0.00    +0.029 C 
ATOM     27  C   UNL     1      34.638 -17.443 -23.441  0.00  0.00    +0.140 C 
ENDBRANCH  20  22
ENDBRANCH  19  20
ENDBRANCH  11  19
TORSDOF 4
ENDMDL
MODEL 6
REMARK VINA RESULT:      -9.5      7.904     12.528
REMARK  Name = 46937054
REMARK  4 active torsions:
REMARK  status: ('A' for Active; 'I' for Inactive)
REMARK    1  A    between atoms: C_5  and  C_18
REMARK    2  A    between atoms: C_11  and  O_19
REMARK    3  A    between atoms: O_19  and  C_20
REMARK    4  A    between atoms: C_20  and  C_22
REMARK                            x       y       z     vdW  Elec       q    Type
REMARK                         _______ _______ _______ _____ _____    ______ ____
ROOT
ATOM      1 CL   UNL     1      33.753 -14.536 -26.562  0.00  0.00    -0.047 Cl
ATOM      2  O   UNL     1      34.698 -13.775 -20.959  0.00  0.00    -0.263 OA
ATOM      3  N   UNL     1      33.934 -12.864 -22.966  0.00  0.00    -0.240 N 
ATOM      4  N   UNL     1      34.389 -15.353 -24.139  0.00  0.00    -0.351 NA
ATOM      5  C   UNL     1      33.664 -11.474 -22.595  0.00  0.00    +0.161 C 
ATOM      6  C   UNL     1      33.312 -10.873 -23.926  0.00  0.00    +0.057 C 
ATOM      7  C   UNL     1      33.745 -13.060 -24.318  0.00  0.00    +0.091 C 
ATOM      8  C   UNL     1      33.349 -11.802 -24.893  0.00  0.00    -0.005 C 
ATOM      9  C   UNL     1      34.424 -13.852 -22.145  0.00  0.00    +0.320 C 
ATOM     10  C   UNL     1      33.967 -14.263 -24.865  0.00  0.00    +0.206 C 
ATOM     11  C   UNL     1      34.607 -15.160 -22.877  0.00  0.00    +0.335 C 
ENDROOT
BRANCH   5  18
ATOM     12  O   UNL     1      31.723 -12.413 -21.585  0.00  0.00    -0.273 OA
ATOM     13  N   UNL     1      32.202 -10.206 -21.097  0.00  0.00    -0.278 N 
ATOM     14  C   UNL     1      33.013  -8.998 -21.207  0.00  0.00    +0.094 C 
ATOM     15  C   UNL     1      31.060  -9.991 -20.222  0.00  0.00    +0.094 C 
ATOM     16  C   UNL     1      32.161  -7.910 -20.569  0.00  0.00    +0.023 C 
ATOM     17  C   UNL     1      31.358  -8.674 -19.523  0.00  0.00    +0.023 C 
ATOM     18  C   UNL     1      32.441 -11.421 -21.715  0.00  0.00    +0.244 C 
ENDBRANCH   5  18
BRANCH  11  19
ATOM     19  O   UNL     1      35.026 -16.149 -22.074  0.00  0.00    -0.444 OA
BRANCH  19  20
ATOM     20  C   UNL     1      34.999 -17.437 -22.677  0.00  0.00    +0.235 C 
BRANCH  20  22
ATOM     21  F   UNL     1      36.471 -21.290 -18.847  0.00  0.00    -0.204 F 
ATOM     22  C   UNL     1      35.392 -18.464 -21.656  0.00  0.00    +0.021 C 
ATOM     23  C   UNL     1      34.468 -19.423 -21.241  0.00  0.00    +0.002 C 
ATOM     24  C   UNL     1      36.680 -18.459 -21.122  0.00  0.00    +0.002 C 
ATOM     25  C   UNL     1      34.832 -20.378 -20.291  0.00  0.00    +0.029 C 
ATOM     26  C   UNL     1      37.045 -19.414 -20.172  0.00  0.00    +0.029 C 
ATOM     27  C   UNL     1      36.121 -20.374 -19.757  0.00  0.00    +0.140 C 
ENDBRANCH  20  22
ENDBRANCH  19  20
ENDBRANCH  11  19
TORSDOF 4
ENDMDL
MODEL 7
REMARK VINA RESULT:      -9.4      9.838     14.437
REMARK  Name = 46937054
REMARK  4 active torsions:
REMARK  status: ('A' for Active; 'I' for Inactive)
REMARK    1  A    between atoms: C_5  and  C_18
REMARK    2  A    between atoms: C_11  and  O_19
REMARK    3  A    between atoms: O_19  and  C_20
REMARK    4  A    between atoms: C_20  and  C_22
REMARK                            x       y       z     vdW  Elec       q    Type
REMARK                         _______ _______ _______ _____ _____    ______ ____
ROOT
ATOM      1 CL   UNL     1      32.022 -13.259 -19.708  0.00  0.00    -0.047 Cl
ATOM      2  O   UNL     1      33.687 -11.106 -24.754  0.00  0.00    -0.263 OA
ATOM      3  N   UNL     1      32.609 -10.739 -22.718  0.00  0.00    -0.240 N 
ATOM      4  N   UNL     1      33.321 -13.337 -22.000  0.00  0.00    -0.351 NA
ATOM      5  C   UNL     1      32.083  -9.383 -22.884  0.00  0.00    +0.161 C 
ATOM      6  C   UNL     1      31.276  -9.221 -21.628  0.00  0.00    +0.057 C 
ATOM      7  C   UNL     1      32.191 -11.288 -21.524  0.00  0.00    +0.091 C 
ATOM      8  C   UNL     1      31.365 -10.315 -20.858  0.00  0.00    -0.005 C 
ATOM      9  C   UNL     1      33.326 -11.459 -23.643  0.00  0.00    +0.320 C 
ATOM     10  C   UNL     1      32.543 -12.537 -21.194  0.00  0.00    +0.206 C 
ATOM     11  C   UNL     1      33.680 -12.838 -23.139  0.00  0.00    +0.335 C 
ENDROOT
BRANCH   5  18
ATOM     12  O   UNL     1      34.346  -8.756 -22.488  0.00  0.00    -0.273 OA
ATOM     13  N   UNL     1      32.907  -7.103 -23.219  0.00  0.00    -0.278 N 
ATOM     14  C   UNL     1      31.601  -6.615 -23.653  0.00  0.00    +0.094 C 
ATOM     15  C   UNL     1      33.894  -6.034 -23.227  0.00  0.00    +0.094 C 
ATOM     16  C   UNL     1      31.749  -5.100 -23.669  0.00  0.00    +0.023 C 
ATOM     17  C   UNL     1      33.225  -4.904 -23.995  0.00  0.00    +0.023 C 
ATOM     18  C   UNL     1      33.222  -8.397 -22.844  0.00  0.00    +0.244 C 
ENDBRANCH   5  18
BRANCH  11  19
ATOM     19  O   UNL     1      34.433 -13.530 -24.007  0.00  0.00    -0.444 OA
BRANCH  19  20
ATOM     20  C   UNL     1      33.715 -14.512 -24.744  0.00  0.00    +0.235 C 
BRANCH  20  22
ATOM     21  F   UNL     1      35.182 -19.625 -22.902  0.00  0.00    -0.204 F 
ATOM     22  C   UNL     1      34.106 -15.875 -24.253  0.00  0.00    +0.021 C 
ATOM     23  C   UNL     1      33.517 -17.011 -24.807  0.00  0.00    +0.002 C 
ATOM     24  C   UNL     1      35.059 -16.005 -23.243  0.00  0.00    +0.002 C 
ATOM     25  C   UNL     1      33.880 -18.278 -24.351  0.00  0.00    +0.029 C 
ATOM     26  C   UNL     1      35.423 -17.273 -22.786  0.00  0.00    +0.029 C 
ATOM     27  C   UNL     1      34.833 -18.409 -23.340  0.00  0.00    +0.140 C 
ENDBRANCH  20  22
ENDBRANCH  19  20
ENDBRANCH  11  19
TORSDOF 4
ENDMDL
MODEL 8
REMARK VINA RESULT:      -9.4      6.446      9.282
REMARK  Name = 46937054
REMARK  4 active torsions:
REMARK  status: ('A' for Active; 'I' for Inactive)
REMARK    1  A    between atoms: C_5  and  C_18
REMARK    2  A    between atoms: C_11  and  O_19
REMARK    3  A    between atoms: O_19  and  C_20
REMARK    4  A    between atoms: C_20  and  C_22
REMARK                            x       y       z     vdW  Elec       q    Type
REMARK                         _______ _______ _______ _____ _____    ______ ____
ROOT
ATOM      1 CL   UNL     1      34.945 -15.663 -25.444  0.00  0.00    -0.047 Cl
ATOM      2  O   UNL     1      34.565 -16.312 -19.761  0.00  0.00    -0.263 OA
ATOM      3  N   UNL     1      34.825 -17.330 -21.844  0.00  0.00    -0.240 N 
ATOM      4  N   UNL     1      34.838 -14.776 -22.965  0.00  0.00    -0.351 NA
ATOM      5  C   UNL     1      34.798 -18.752 -21.500  0.00  0.00    +0.161 C 
ATOM      6  C   UNL     1      34.823 -19.387 -22.861  0.00  0.00    +0.057 C 
ATOM      7  C   UNL     1      34.882 -17.152 -23.210  0.00  0.00    +0.091 C 
ATOM      8  C   UNL     1      34.888 -18.454 -23.823  0.00  0.00    -0.005 C 
ATOM      9  C   UNL     1      34.696 -16.273 -20.973  0.00  0.00    +0.320 C 
ATOM     10  C   UNL     1      34.889 -15.918 -23.732  0.00  0.00    +0.206 C 
ATOM     11  C   UNL     1      34.742 -14.942 -21.685  0.00  0.00    +0.335 C 
ENDROOT
BRANCH   5  18
ATOM     12  O   UNL     1      37.123 -18.524 -21.038  0.00  0.00    -0.273 OA
ATOM     13  N   UNL     1      35.968 -20.144 -19.864  0.00  0.00    -0.278 N 
ATOM     14  C   UNL     1      34.759 -20.884 -19.517  0.00  0.00    +0.094 C 
ATOM     15  C   UNL     1      37.110 -20.619 -19.096  0.00  0.00    +0.094 C 
ATOM     16  C   UNL     1      35.257 -22.055 -18.681  0.00  0.00    +0.023 C 
ATOM     17  C   UNL     1      36.501 -21.489 -18.007  0.00  0.00    +0.023 C 
ATOM     18  C   UNL     1      36.074 -19.118 -20.786  0.00  0.00    +0.244 C 
ENDBRANCH   5  18
BRANCH  11  19
ATOM     19  O   UNL     1      34.679 -13.901 -20.841  0.00  0.00    -0.444 OA
BRANCH  19  20
ATOM     20  C   UNL     1      33.407 -13.728 -20.228  0.00  0.00    +0.235 C 
BRANCH  20  22
ATOM     21  F   UNL     1      31.193  -8.844 -21.940  0.00  0.00    -0.204 F 
ATOM     22  C   UNL     1      32.817 -12.426 -20.684  0.00  0.00    +0.021 C 
ATOM     23  C   UNL     1      32.025 -11.677 -19.815  0.00  0.00    +0.002 C 
ATOM     24  C   UNL     1      33.060 -11.966 -21.978  0.00  0.00    +0.002 C 
ATOM     25  C   UNL     1      31.475 -10.467 -20.239  0.00  0.00    +0.029 C 
ATOM     26  C   UNL     1      32.511 -10.755 -22.403  0.00  0.00    +0.029 C 
ATOM     27  C   UNL     1      31.719 -10.006 -21.533  0.00  0.00    +0.140 C 
ENDBRANCH  20  22
ENDBRANCH  19  20
ENDBRANCH  11  19
TORSDOF 4
ENDMDL
MODEL 9
REMARK VINA RESULT:      -9.3     11.089     15.597
REMARK  Name = 46937054
REMARK  4 active torsions:
REMARK  status: ('A' for Active; 'I' for Inactive)
REMARK    1  A    between atoms: C_5  and  C_18
REMARK    2  A    between atoms: C_11  and  O_19
REMARK    3  A    between atoms: O_19  and  C_20
REMARK    4  A    between atoms: C_20  and  C_22
REMARK                            x       y       z     vdW  Elec       q    Type
REMARK                         _______ _______ _______ _____ _____    ______ ____
ROOT
ATOM      1 CL   UNL     1      31.778 -10.548 -18.388  0.00  0.00    -0.047 Cl
ATOM      2  O   UNL     1      32.674  -9.761 -23.996  0.00  0.00    -0.263 OA
ATOM      3  N   UNL     1      32.196  -8.796 -21.926  0.00  0.00    -0.240 N 
ATOM      4  N   UNL     1      32.470 -11.336 -20.805  0.00  0.00    -0.351 NA
ATOM      5  C   UNL     1      31.955  -7.397 -22.282  0.00  0.00    +0.161 C 
ATOM      6  C   UNL     1      31.511  -6.827 -20.965  0.00  0.00    +0.057 C 
ATOM      7  C   UNL     1      31.952  -9.014 -20.586  0.00  0.00    +0.091 C 
ATOM      8  C   UNL     1      31.534  -7.765 -20.007  0.00  0.00    -0.005 C 
ATOM      9  C   UNL     1      32.508  -9.820 -22.788  0.00  0.00    +0.320 C 
ATOM     10  C   UNL     1      32.090 -10.240 -20.063  0.00  0.00    +0.206 C 
ATOM     11  C   UNL     1      32.658 -11.141 -22.072  0.00  0.00    +0.335 C 
ENDROOT
BRANCH   5  18
ATOM     12  O   UNL     1      34.277  -6.956 -22.000  0.00  0.00    -0.273 OA
ATOM     13  N   UNL     1      33.215  -5.922 -23.772  0.00  0.00    -0.278 N 
ATOM     14  C   UNL     1      32.047  -5.636 -24.600  0.00  0.00    +0.094 C 
ATOM     15  C   UNL     1      34.389  -5.216 -24.264  0.00  0.00    +0.094 C 
ATOM     16  C   UNL     1      32.485  -4.479 -25.487  0.00  0.00    +0.023 C 
ATOM     17  C   UNL     1      33.982  -4.713 -25.640  0.00  0.00    +0.023 C 
ATOM     18  C   UNL     1      33.260  -6.747 -22.663  0.00  0.00    +0.244 C 
ENDBRANCH   5  18
BRANCH  11  19
ATOM     19  O   UNL     1      33.024 -12.137 -22.892  0.00  0.00    -0.444 OA
BRANCH  19  20
ATOM     20  C   UNL     1      34.176 -12.851 -22.461  0.00  0.00    +0.235 C 
BRANCH  20  22
ATOM     21  F   UNL     1      34.294 -17.867 -25.012  0.00  0.00    -0.204 F 
ATOM     22  C   UNL     1      34.208 -14.188 -23.141  0.00  0.00    +0.021 C 
ATOM     23  C   UNL     1      33.502 -14.383 -24.327  0.00  0.00    +0.002 C 
ATOM     24  C   UNL     1      34.942 -15.235 -22.586  0.00  0.00    +0.002 C 
ATOM     25  C   UNL     1      33.530 -15.626 -24.960  0.00  0.00    +0.029 C 
ATOM     26  C   UNL     1      34.972 -16.478 -23.218  0.00  0.00    +0.029 C 
ATOM     27  C   UNL     1      34.266 -16.674 -24.406  0.00  0.00    +0.140 C 
ENDBRANCH  20  22
ENDBRANCH  19  20
ENDBRANCH  11  19
TORSDOF 4
ENDMDL
