MODEL 1
REMARK VINA RESULT:     -12.6      0.000      0.000
REMARK  Name = 23635314
REMARK  9 active torsions:
REMARK  status: ('A' for Active; 'I' for Inactive)
REMARK    1  A    between atoms: C_2  and  C_8
REMARK    2  A    between atoms: C_3  and  C_23
REMARK    3  A    between atoms: C_7  and  O_13
REMARK    4  A    between atoms: O_13  and  C_14
REMARK    5  A    between atoms: C_14  and  C_15
REMARK    6  A    between atoms: C_15  and  N_17
REMARK    7  A    between atoms: C_23  and  C_26
REMARK    8  A    between atoms: N_25  and  C_28
REMARK    9  A    between atoms: C_28  and  C_29
REMARK                            x       y       z     vdW  Elec       q    Type
REMARK                         _______ _______ _______ _____ _____    ______ ____
ROOT
ATOM      1  N   UNL     1      35.391 -16.798 -21.947  0.00  0.00    -0.248 NA
ATOM      2  C   UNL     1      34.825 -19.062 -21.322  0.00  0.00    +0.019 C 
ATOM      3  C   UNL     1      34.973 -17.090 -23.199  0.00  0.00    +0.068 C 
ATOM      4  C   UNL     1      34.405 -19.325 -22.620  0.00  0.00    +0.003 C 
ATOM      5  C   UNL     1      35.305 -17.794 -21.038  0.00  0.00    +0.098 C 
ATOM      6  C   UNL     1      34.478 -18.325 -23.583  0.00  0.00    +0.015 C 
ENDROOT
BRANCH   2   8
ATOM      7  C   UNL     1      34.642 -22.041 -18.329  0.00  0.00    +0.138 C 
ATOM      8  C   UNL     1      34.763 -20.081 -20.298  0.00  0.00    +0.002 C 
ATOM      9  C   UNL     1      35.879 -21.584 -18.771  0.00  0.00    +0.037 C 
ATOM     10  C   UNL     1      33.465 -21.527 -18.863  0.00  0.00    +0.037 C 
ATOM     11  C   UNL     1      35.939 -20.601 -19.758  0.00  0.00    +0.003 C 
ATOM     12  C   UNL     1      33.526 -20.544 -19.850  0.00  0.00    +0.003 C 
BRANCH   7  13
ATOM     13  O   UNL     1      34.582 -23.007 -17.359  0.00  0.00    -0.478 OA
BRANCH  13  14
ATOM     14  C   UNL     1      33.329 -23.189 -16.712  0.00  0.00    +0.183 C 
BRANCH  14  15
ATOM     15  C   UNL     1      33.565 -23.307 -15.215  0.00  0.00    -0.029 C 
BRANCH  15  17
ATOM     16  O   UNL     1      29.780 -24.558 -13.900  0.00  0.00    -0.358 OA
ATOM     17  N   UNL     1      32.294 -23.363 -14.496  0.00  0.00    +0.393 N 
ATOM     18  C   UNL     1      31.161 -23.276 -15.428  0.00  0.00    -0.044 C 
ATOM     19  C   UNL     1      32.198 -24.595 -13.700  0.00  0.00    -0.044 C 
ATOM     20  C   UNL     1      29.848 -23.347 -14.655  0.00  0.00    +0.119 C 
ATOM     21  C   UNL     1      30.860 -24.636 -12.968  0.00  0.00    +0.119 C 
ATOM     22  H   UNL     1      32.258 -22.563 -13.864  0.00  0.00    -0.079 HD
ENDBRANCH  15  17
ENDBRANCH  14  15
ENDBRANCH  13  14
ENDBRANCH   7  13
ENDBRANCH   2   8
BRANCH   3  23
ATOM     23  C   UNL     1      35.065 -15.993 -24.208  0.00  0.00    +0.131 C 
BRANCH  23  26
ATOM     24  O   UNL     1      33.005 -15.105 -25.121  0.00  0.00    -0.275 OA
ATOM     25  N   UNL     1      33.826 -14.220 -23.138  0.00  0.00    -0.300 N 
ATOM     26  C   UNL     1      33.850 -15.077 -24.230  0.00  0.00    +0.229 C 
ATOM     27  H   UNL     1      34.553 -14.277 -22.476  0.00  0.00    +0.150 HD
BRANCH  25  28
ATOM     28  C   UNL     1      32.776 -13.250 -22.933  0.00  0.00    +0.116 C 
BRANCH  28  29
ATOM     29  C   UNL     1      33.259 -11.845 -23.150  0.00  0.00    -0.003 C 
ATOM     30  C   UNL     1      32.678 -10.801 -22.440  0.00  0.00    -0.003 C 
ATOM     31  C   UNL     1      34.284 -11.603 -24.058  0.00  0.00    -0.003 C 
ATOM     32  C   UNL     1      33.127  -9.496 -22.642  0.00  0.00    -0.000 C 
ATOM     33  C   UNL     1      34.733 -10.298 -24.259  0.00  0.00    -0.000 C 
ATOM     34  C   UNL     1      34.153  -9.244 -23.551  0.00  0.00    -0.000 C 
ENDBRANCH  28  29
ENDBRANCH  25  28
ENDBRANCH  23  26
ENDBRANCH   3  23
TORSDOF 9
ENDMDL
MODEL 2
REMARK VINA RESULT:     -12.4      2.301      3.060
REMARK  Name = 23635314
REMARK  9 active torsions:
REMARK  status: ('A' for Active; 'I' for Inactive)
REMARK    1  A    between atoms: C_2  and  C_8
REMARK    2  A    between atoms: C_3  and  C_23
REMARK    3  A    between atoms: C_7  and  O_13
REMARK    4  A    between atoms: O_13  and  C_14
REMARK    5  A    between atoms: C_14  and  C_15
REMARK    6  A    between atoms: C_15  and  N_17
REMARK    7  A    between atoms: C_23  and  C_26
REMARK    8  A    between atoms: N_25  and  C_28
REMARK    9  A    between atoms: C_28  and  C_29
REMARK                            x       y       z     vdW  Elec       q    Type
REMARK                         _______ _______ _______ _____ _____    ______ ____
ROOT
ATOM      1  N   UNL     1      35.419 -16.826 -21.943  0.00  0.00    -0.248 NA
ATOM      2  C   UNL     1      34.998 -19.098 -21.238  0.00  0.00    +0.019 C 
ATOM      3  C   UNL     1      35.033 -17.191 -23.186  0.00  0.00    +0.068 C 
ATOM      4  C   UNL     1      34.609 -19.436 -22.529  0.00  0.00    +0.003 C 
ATOM      5  C   UNL     1      35.391 -17.792 -20.998  0.00  0.00    +0.098 C 
ATOM      6  C   UNL     1      34.624 -18.470 -23.527  0.00  0.00    +0.015 C 
ENDROOT
BRANCH   2   8
ATOM      7  C   UNL     1      34.983 -21.971 -18.138  0.00  0.00    +0.138 C 
ATOM      8  C   UNL     1      34.993 -20.081 -20.177  0.00  0.00    +0.002 C 
ATOM      9  C   UNL     1      36.189 -21.429 -18.569  0.00  0.00    +0.037 C 
ATOM     10  C   UNL     1      33.781 -21.577 -18.718  0.00  0.00    +0.037 C 
ATOM     11  C   UNL     1      36.194 -20.481 -19.591  0.00  0.00    +0.003 C 
ATOM     12  C   UNL     1      33.787 -20.629 -19.740  0.00  0.00    +0.003 C 
BRANCH   7  13
ATOM     13  O   UNL     1      34.978 -22.903 -17.133  0.00  0.00    -0.478 OA
BRANCH  13  14
ATOM     14  C   UNL     1      35.882 -22.690 -16.057  0.00  0.00    +0.183 C 
BRANCH  14  15
ATOM     15  C   UNL     1      35.544 -23.659 -14.936  0.00  0.00    -0.029 C 
BRANCH  15  17
ATOM     16  O   UNL     1      38.111 -26.280 -12.896  0.00  0.00    -0.358 OA
ATOM     17  N   UNL     1      36.706 -24.475 -14.591  0.00  0.00    +0.393 N 
ATOM     18  C   UNL     1      37.296 -24.034 -13.319  0.00  0.00    -0.044 C 
ATOM     19  C   UNL     1      36.341 -25.896 -14.511  0.00  0.00    -0.044 C 
ATOM     20  C   UNL     1      38.499 -24.907 -12.976  0.00  0.00    +0.119 C 
ATOM     21  C   UNL     1      37.567 -26.726 -14.139  0.00  0.00    +0.119 C 
ATOM     22  H   UNL     1      37.400 -24.358 -15.329  0.00  0.00    -0.079 HD
ENDBRANCH  15  17
ENDBRANCH  14  15
ENDBRANCH  13  14
ENDBRANCH   7  13
ENDBRANCH   2   8
BRANCH   3  23
ATOM     23  C   UNL     1      35.063 -16.128 -24.234  0.00  0.00    +0.131 C 
BRANCH  23  26
ATOM     24  O   UNL     1      32.959 -15.265 -25.067  0.00  0.00    -0.275 OA
ATOM     25  N   UNL     1      33.867 -14.339 -23.142  0.00  0.00    -0.300 N 
ATOM     26  C   UNL     1      33.844 -15.216 -24.217  0.00  0.00    +0.229 C 
ATOM     27  H   UNL     1      34.625 -14.380 -22.514  0.00  0.00    +0.150 HD
BRANCH  25  28
ATOM     28  C   UNL     1      32.824 -13.368 -22.907  0.00  0.00    +0.116 C 
BRANCH  28  29
ATOM     29  C   UNL     1      33.294 -11.966 -23.163  0.00  0.00    -0.003 C 
ATOM     30  C   UNL     1      32.733 -10.912 -22.452  0.00  0.00    -0.003 C 
ATOM     31  C   UNL     1      34.286 -11.735 -24.109  0.00  0.00    -0.003 C 
ATOM     32  C   UNL     1      33.169  -9.609 -22.689  0.00  0.00    -0.000 C 
ATOM     33  C   UNL     1      34.722 -10.432 -24.347  0.00  0.00    -0.000 C 
ATOM     34  C   UNL     1      34.163  -9.368 -23.638  0.00  0.00    -0.000 C 
ENDBRANCH  28  29
ENDBRANCH  25  28
ENDBRANCH  23  26
ENDBRANCH   3  23
TORSDOF 9
ENDMDL
MODEL 3
REMARK VINA RESULT:     -12.3      0.998      1.616
REMARK  Name = 23635314
REMARK  9 active torsions:
REMARK  status: ('A' for Active; 'I' for Inactive)
REMARK    1  A    between atoms: C_2  and  C_8
REMARK    2  A    between atoms: C_3  and  C_23
REMARK    3  A    between atoms: C_7  and  O_13
REMARK    4  A    between atoms: O_13  and  C_14
REMARK    5  A    between atoms: C_14  and  C_15
REMARK    6  A    between atoms: C_15  and  N_17
REMARK    7  A    between atoms: C_23  and  C_26
REMARK    8  A    between atoms: N_25  and  C_28
REMARK    9  A    between atoms: C_28  and  C_29
REMARK                            x       y       z     vdW  Elec       q    Type
REMARK                         _______ _______ _______ _____ _____    ______ ____
ROOT
ATOM      1  N   UNL     1      35.440 -16.831 -21.839  0.00  0.00    -0.248 NA
ATOM      2  C   UNL     1      34.825 -19.097 -21.272  0.00  0.00    +0.019 C 
ATOM      3  C   UNL     1      35.087 -17.105 -23.114  0.00  0.00    +0.068 C 
ATOM      4  C   UNL     1      34.472 -19.342 -22.593  0.00  0.00    +0.003 C 
ATOM      5  C   UNL     1      35.299 -17.837 -20.947  0.00  0.00    +0.098 C 
ATOM      6  C   UNL     1      34.603 -18.332 -23.539  0.00  0.00    +0.015 C 
ENDROOT
BRANCH   2   8
ATOM      7  C   UNL     1      34.460 -22.109 -18.329  0.00  0.00    +0.138 C 
ATOM      8  C   UNL     1      34.700 -20.128 -20.265  0.00  0.00    +0.002 C 
ATOM      9  C   UNL     1      35.722 -21.686 -18.728  0.00  0.00    +0.037 C 
ATOM     10  C   UNL     1      33.315 -21.551 -18.889  0.00  0.00    +0.037 C 
ATOM     11  C   UNL     1      35.843 -20.692 -19.699  0.00  0.00    +0.003 C 
ATOM     12  C   UNL     1      33.437 -20.558 -19.860  0.00  0.00    +0.003 C 
BRANCH   7  13
ATOM     13  O   UNL     1      34.341 -23.086 -17.375  0.00  0.00    -0.478 OA
BRANCH  13  14
ATOM     14  C   UNL     1      33.090 -23.180 -16.706  0.00  0.00    +0.183 C 
BRANCH  14  15
ATOM     15  C   UNL     1      33.342 -23.263 -15.209  0.00  0.00    -0.029 C 
BRANCH  15  17
ATOM     16  O   UNL     1      29.750 -24.893 -13.774  0.00  0.00    -0.358 OA
ATOM     17  N   UNL     1      32.085 -23.426 -14.483  0.00  0.00    +0.393 N 
ATOM     18  C   UNL     1      30.958 -23.574 -15.414  0.00  0.00    -0.044 C 
ATOM     19  C   UNL     1      32.149 -24.586 -13.582  0.00  0.00    -0.044 C 
ATOM     20  C   UNL     1      29.660 -23.754 -14.632  0.00  0.00    +0.119 C 
ATOM     21  C   UNL     1      30.823 -24.743 -12.844  0.00  0.00    +0.119 C 
ATOM     22  H   UNL     1      31.936 -22.587 -13.923  0.00  0.00    -0.079 HD
ENDBRANCH  15  17
ENDBRANCH  14  15
ENDBRANCH  13  14
ENDBRANCH   7  13
ENDBRANCH   2   8
BRANCH   3  23
ATOM     23  C   UNL     1      35.241 -15.997 -24.103  0.00  0.00    +0.131 C 
BRANCH  23  26
ATOM     24  O   UNL     1      33.022 -15.515 -24.947  0.00  0.00    -0.275 OA
ATOM     25  N   UNL     1      34.077 -13.943 -23.603  0.00  0.00    -0.300 N 
ATOM     26  C   UNL     1      33.987 -15.153 -24.279  0.00  0.00    +0.229 C 
ATOM     27  H   UNL     1      34.896 -13.747 -23.093  0.00  0.00    +0.150 HD
BRANCH  25  28
ATOM     28  C   UNL     1      33.016 -12.963 -23.617  0.00  0.00    +0.116 C 
BRANCH  28  29
ATOM     29  C   UNL     1      32.644 -12.519 -22.232  0.00  0.00    -0.003 C 
ATOM     30  C   UNL     1      32.299 -11.192 -22.006  0.00  0.00    -0.003 C 
ATOM     31  C   UNL     1      32.648 -13.440 -21.191  0.00  0.00    -0.003 C 
ATOM     32  C   UNL     1      31.953 -10.779 -20.719  0.00  0.00    -0.000 C 
ATOM     33  C   UNL     1      32.302 -13.027 -19.904  0.00  0.00    -0.000 C 
ATOM     34  C   UNL     1      31.955 -11.696 -19.668  0.00  0.00    -0.000 C 
ENDBRANCH  28  29
ENDBRANCH  25  28
ENDBRANCH  23  26
ENDBRANCH   3  23
TORSDOF 9
ENDMDL
MODEL 4
REMARK VINA RESULT:     -12.3      1.932      3.071
REMARK  Name = 23635314
REMARK  9 active torsions:
REMARK  status: ('A' for Active; 'I' for Inactive)
REMARK    1  A    between atoms: C_2  and  C_8
REMARK    2  A    between atoms: C_3  and  C_23
REMARK    3  A    between atoms: C_7  and  O_13
REMARK    4  A    between atoms: O_13  and  C_14
REMARK    5  A    between atoms: C_14  and  C_15
REMARK    6  A    between atoms: C_15  and  N_17
REMARK    7  A    between atoms: C_23  and  C_26
REMARK    8  A    between atoms: N_25  and  C_28
REMARK    9  A    between atoms: C_28  and  C_29
REMARK                            x       y       z     vdW  Elec       q    Type
REMARK                         _______ _______ _______ _____ _____    ______ ____
ROOT
ATOM      1  N   UNL     1      34.512 -18.279 -23.461  0.00  0.00    -0.248 NA
ATOM      2  C   UNL     1      34.748 -19.096 -21.200  0.00  0.00    +0.019 C 
ATOM      3  C   UNL     1      35.073 -17.120 -23.049  0.00  0.00    +0.068 C 
ATOM      4  C   UNL     1      35.320 -17.890 -20.813  0.00  0.00    +0.003 C 
ATOM      5  C   UNL     1      34.364 -19.241 -22.523  0.00  0.00    +0.098 C 
ATOM      6  C   UNL     1      35.488 -16.878 -21.750  0.00  0.00    +0.015 C 
ENDROOT
BRANCH   2   8
ATOM      7  C   UNL     1      34.193 -22.233 -18.421  0.00  0.00    +0.138 C 
ATOM      8  C   UNL     1      34.558 -20.169 -20.249  0.00  0.00    +0.002 C 
ATOM      9  C   UNL     1      35.480 -21.876 -18.809  0.00  0.00    +0.037 C 
ATOM     10  C   UNL     1      33.087 -21.569 -18.940  0.00  0.00    +0.037 C 
ATOM     11  C   UNL     1      35.663 -20.840 -19.725  0.00  0.00    +0.003 C 
ATOM     12  C   UNL     1      33.271 -20.534 -19.857  0.00  0.00    +0.003 C 
BRANCH   7  13
ATOM     13  O   UNL     1      34.013 -23.250 -17.521  0.00  0.00    -0.478 OA
BRANCH  13  14
ATOM     14  C   UNL     1      32.990 -23.073 -16.550  0.00  0.00    +0.183 C 
BRANCH  14  15
ATOM     15  C   UNL     1      33.597 -23.231 -15.166  0.00  0.00    -0.029 C 
BRANCH  15  17
ATOM     16  O   UNL     1      37.569 -24.127 -14.146  0.00  0.00    -0.358 OA
ATOM     17  N   UNL     1      34.991 -23.660 -15.259  0.00  0.00    +0.393 N 
ATOM     18  C   UNL     1      35.901 -22.552 -14.936  0.00  0.00    -0.044 C 
ATOM     19  C   UNL     1      35.249 -24.799 -14.368  0.00  0.00    -0.044 C 
ATOM     20  C   UNL     1      37.348 -23.027 -15.030  0.00  0.00    +0.119 C 
ATOM     21  C   UNL     1      36.711 -25.221 -14.474  0.00  0.00    +0.119 C 
ATOM     22  H   UNL     1      35.164 -23.953 -16.221  0.00  0.00    -0.079 HD
ENDBRANCH  15  17
ENDBRANCH  14  15
ENDBRANCH  13  14
ENDBRANCH   7  13
ENDBRANCH   2   8
BRANCH   3  23
ATOM     23  C   UNL     1      35.239 -16.054 -24.081  0.00  0.00    +0.131 C 
BRANCH  23  26
ATOM     24  O   UNL     1      33.054 -15.543 -24.994  0.00  0.00    -0.275 OA
ATOM     25  N   UNL     1      34.068 -14.003 -23.583  0.00  0.00    -0.300 N 
ATOM     26  C   UNL     1      33.996 -15.199 -24.285  0.00  0.00    +0.229 C 
ATOM     27  H   UNL     1      34.869 -13.821 -23.041  0.00  0.00    +0.150 HD
BRANCH  25  28
ATOM     28  C   UNL     1      33.013 -13.017 -23.617  0.00  0.00    +0.116 C 
BRANCH  28  29
ATOM     29  C   UNL     1      32.645 -12.543 -22.240  0.00  0.00    -0.003 C 
ATOM     30  C   UNL     1      32.304 -11.211 -22.041  0.00  0.00    -0.003 C 
ATOM     31  C   UNL     1      32.648 -13.442 -21.180  0.00  0.00    -0.003 C 
ATOM     32  C   UNL     1      31.961 -10.770 -20.762  0.00  0.00    -0.000 C 
ATOM     33  C   UNL     1      32.305 -13.001 -19.901  0.00  0.00    -0.000 C 
ATOM     34  C   UNL     1      31.963 -11.665 -19.693  0.00  0.00    -0.000 C 
ENDBRANCH  28  29
ENDBRANCH  25  28
ENDBRANCH  23  26
ENDBRANCH   3  23
TORSDOF 9
ENDMDL
MODEL 5
REMARK VINA RESULT:     -12.1      2.079      3.097
REMARK  Name = 23635314
REMARK  9 active torsions:
REMARK  status: ('A' for Active; 'I' for Inactive)
REMARK    1  A    between atoms: C_2  and  C_8
REMARK    2  A    between atoms: C_3  and  C_23
REMARK    3  A    between atoms: C_7  and  O_13
REMARK    4  A    between atoms: O_13  and  C_14
REMARK    5  A    between atoms: C_14  and  C_15
REMARK    6  A    between atoms: C_15  and  N_17
REMARK    7  A    between atoms: C_23  and  C_26
REMARK    8  A    between atoms: N_25  and  C_28
REMARK    9  A    between atoms: C_28  and  C_29
REMARK                            x       y       z     vdW  Elec       q    Type
REMARK                         _______ _______ _______ _____ _____    ______ ____
ROOT
ATOM      1  N   UNL     1      34.461 -18.377 -23.586  0.00  0.00    -0.248 NA
ATOM      2  C   UNL     1      34.782 -19.075 -21.295  0.00  0.00    +0.019 C 
ATOM      3  C   UNL     1      35.015 -17.191 -23.252  0.00  0.00    +0.068 C 
ATOM      4  C   UNL     1      35.347 -17.843 -20.989  0.00  0.00    +0.003 C 
ATOM      5  C   UNL     1      34.358 -19.292 -22.596  0.00  0.00    +0.098 C 
ATOM      6  C   UNL     1      35.469 -16.877 -21.981  0.00  0.00    +0.015 C 
ENDROOT
BRANCH   2   8
ATOM      7  C   UNL     1      34.368 -22.073 -18.345  0.00  0.00    +0.138 C 
ATOM      8  C   UNL     1      34.641 -20.101 -20.286  0.00  0.00    +0.002 C 
ATOM      9  C   UNL     1      35.637 -21.687 -18.761  0.00  0.00    +0.037 C 
ATOM     10  C   UNL     1      33.233 -21.482 -18.890  0.00  0.00    +0.037 C 
ATOM     11  C   UNL     1      35.774 -20.698 -19.734  0.00  0.00    +0.003 C 
ATOM     12  C   UNL     1      33.371 -20.493 -19.864  0.00  0.00    +0.003 C 
BRANCH   7  13
ATOM     13  O   UNL     1      34.233 -23.046 -17.389  0.00  0.00    -0.478 OA
BRANCH  13  14
ATOM     14  C   UNL     1      34.894 -22.822 -16.150  0.00  0.00    +0.183 C 
BRANCH  14  15
ATOM     15  C   UNL     1      34.145 -23.565 -15.055  0.00  0.00    -0.029 C 
BRANCH  15  17
ATOM     16  O   UNL     1      37.260 -24.532 -12.414  0.00  0.00    -0.358 OA
ATOM     17  N   UNL     1      35.072 -24.328 -14.222  0.00  0.00    +0.393 N 
ATOM     18  C   UNL     1      36.458 -24.133 -14.669  0.00  0.00    -0.044 C 
ATOM     19  C   UNL     1      34.939 -23.948 -12.809  0.00  0.00    -0.044 C 
ATOM     20  C   UNL     1      37.406 -24.931 -13.778  0.00  0.00    +0.119 C 
ATOM     21  C   UNL     1      35.923 -24.749 -11.962  0.00  0.00    +0.119 C 
ATOM     22  H   UNL     1      34.835 -25.316 -14.317  0.00  0.00    -0.079 HD
ENDBRANCH  15  17
ENDBRANCH  14  15
ENDBRANCH  13  14
ENDBRANCH   7  13
ENDBRANCH   2   8
BRANCH   3  23
ATOM     23  C   UNL     1      35.131 -16.177 -24.341  0.00  0.00    +0.131 C 
BRANCH  23  26
ATOM     24  O   UNL     1      32.924 -15.583 -25.143  0.00  0.00    -0.275 OA
ATOM     25  N   UNL     1      34.054 -14.096 -23.763  0.00  0.00    -0.300 N 
ATOM     26  C   UNL     1      33.909 -15.279 -24.475  0.00  0.00    +0.229 C 
ATOM     27  H   UNL     1      34.886 -13.947 -23.258  0.00  0.00    +0.150 HD
BRANCH  25  28
ATOM     28  C   UNL     1      33.032 -13.075 -23.734  0.00  0.00    +0.116 C 
BRANCH  28  29
ATOM     29  C   UNL     1      32.685 -12.669 -22.331  0.00  0.00    -0.003 C 
ATOM     30  C   UNL     1      32.743 -13.609 -21.309  0.00  0.00    -0.003 C 
ATOM     31  C   UNL     1      32.310 -11.356 -22.069  0.00  0.00    -0.003 C 
ATOM     32  C   UNL     1      32.421 -13.232 -20.006  0.00  0.00    -0.000 C 
ATOM     33  C   UNL     1      31.987 -10.979 -20.765  0.00  0.00    -0.000 C 
ATOM     34  C   UNL     1      32.042 -11.918 -19.733  0.00  0.00    -0.000 C 
ENDBRANCH  28  29
ENDBRANCH  25  28
ENDBRANCH  23  26
ENDBRANCH   3  23
TORSDOF 9
ENDMDL
MODEL 6
REMARK VINA RESULT:     -11.6      2.715     12.210
REMARK  Name = 23635314
REMARK  9 active torsions:
REMARK  status: ('A' for Active; 'I' for Inactive)
REMARK    1  A    between atoms: C_2  and  C_8
REMARK    2  A    between atoms: C_3  and  C_23
REMARK    3  A    between atoms: C_7  and  O_13
REMARK    4  A    between atoms: O_13  and  C_14
REMARK    5  A    between atoms: C_14  and  C_15
REMARK    6  A    between atoms: C_15  and  N_17
REMARK    7  A    between atoms: C_23  and  C_26
REMARK    8  A    between atoms: N_25  and  C_28
REMARK    9  A    between atoms: C_28  and  C_29
REMARK                            x       y       z     vdW  Elec       q    Type
REMARK                         _______ _______ _______ _____ _____    ______ ____
ROOT
ATOM      1  N   UNL     1      35.453 -21.944 -18.581  0.00  0.00    -0.248 NA
ATOM      2  C   UNL     1      34.512 -20.265 -20.041  0.00  0.00    +0.019 C 
ATOM      3  C   UNL     1      34.191 -22.277 -18.229  0.00  0.00    +0.068 C 
ATOM      4  C   UNL     1      33.229 -20.635 -19.655  0.00  0.00    +0.003 C 
ATOM      5  C   UNL     1      35.581 -20.943 -19.481  0.00  0.00    +0.098 C 
ATOM      6  C   UNL     1      33.057 -21.659 -18.732  0.00  0.00    +0.015 C 
ENDROOT
BRANCH   2   8
ATOM      7  C   UNL     1      35.132 -17.162 -22.843  0.00  0.00    +0.138 C 
ATOM      8  C   UNL     1      34.724 -19.203 -21.000  0.00  0.00    +0.002 C 
ATOM      9  C   UNL     1      35.487 -16.969 -21.513  0.00  0.00    +0.037 C 
ATOM     10  C   UNL     1      34.573 -18.366 -23.261  0.00  0.00    +0.037 C 
ATOM     11  C   UNL     1      35.283 -17.993 -20.589  0.00  0.00    +0.003 C 
ATOM     12  C   UNL     1      34.369 -19.389 -22.336  0.00  0.00    +0.003 C 
BRANCH   7  13
ATOM     13  O   UNL     1      35.332 -16.156 -23.752  0.00  0.00    -0.478 OA
BRANCH  13  14
ATOM     14  C   UNL     1      34.569 -16.214 -24.951  0.00  0.00    +0.183 C 
BRANCH  14  15
ATOM     15  C   UNL     1      33.355 -15.312 -24.803  0.00  0.00    -0.029 C 
BRANCH  15  17
ATOM     16  O   UNL     1      33.206 -11.214 -23.911  0.00  0.00    -0.358 OA
ATOM     17  N   UNL     1      33.762 -13.948 -24.475  0.00  0.00    +0.393 N 
ATOM     18  C   UNL     1      33.353 -13.012 -25.532  0.00  0.00    -0.044 C 
ATOM     19  C   UNL     1      33.196 -13.529 -23.185  0.00  0.00    -0.044 C 
ATOM     20  C   UNL     1      33.779 -11.595 -25.163  0.00  0.00    +0.119 C 
ATOM     21  C   UNL     1      33.625 -12.099 -22.871  0.00  0.00    +0.119 C 
ATOM     22  H   UNL     1      34.780 -13.934 -24.404  0.00  0.00    -0.079 HD
ENDBRANCH  15  17
ENDBRANCH  14  15
ENDBRANCH  13  14
ENDBRANCH   7  13
ENDBRANCH   2   8
BRANCH   3  23
ATOM     23  C   UNL     1      34.043 -23.380 -17.235  0.00  0.00    +0.131 C 
BRANCH  23  26
ATOM     24  O   UNL     1      33.779 -22.805 -14.897  0.00  0.00    -0.275 OA
ATOM     25  N   UNL     1      35.921 -22.961 -15.779  0.00  0.00    -0.300 N 
ATOM     26  C   UNL     1      34.535 -23.020 -15.841  0.00  0.00    +0.229 C 
ATOM     27  H   UNL     1      36.439 -23.151 -16.595  0.00  0.00    +0.150 HD
BRANCH  25  28
ATOM     28  C   UNL     1      36.632 -22.634 -14.565  0.00  0.00    +0.116 C 
BRANCH  28  29
ATOM     29  C   UNL     1      36.901 -23.851 -13.728  0.00  0.00    -0.003 C 
ATOM     30  C   UNL     1      36.301 -23.974 -12.481  0.00  0.00    -0.003 C 
ATOM     31  C   UNL     1      37.748 -24.844 -14.209  0.00  0.00    -0.003 C 
ATOM     32  C   UNL     1      36.550 -25.104 -11.702  0.00  0.00    -0.000 C 
ATOM     33  C   UNL     1      37.998 -25.974 -13.431  0.00  0.00    -0.000 C 
ATOM     34  C   UNL     1      37.399 -26.104 -12.176  0.00  0.00    -0.000 C 
ENDBRANCH  28  29
ENDBRANCH  25  28
ENDBRANCH  23  26
ENDBRANCH   3  23
TORSDOF 9
ENDMDL
MODEL 7
REMARK VINA RESULT:     -11.6      2.890     11.671
REMARK  Name = 23635314
REMARK  9 active torsions:
REMARK  status: ('A' for Active; 'I' for Inactive)
REMARK    1  A    between atoms: C_2  and  C_8
REMARK    2  A    between atoms: C_3  and  C_23
REMARK    3  A    between atoms: C_7  and  O_13
REMARK    4  A    between atoms: O_13  and  C_14
REMARK    5  A    between atoms: C_14  and  C_15
REMARK    6  A    between atoms: C_15  and  N_17
REMARK    7  A    between atoms: C_23  and  C_26
REMARK    8  A    between atoms: N_25  and  C_28
REMARK    9  A    between atoms: C_28  and  C_29
REMARK                            x       y       z     vdW  Elec       q    Type
REMARK                         _______ _______ _______ _____ _____    ______ ____
ROOT
ATOM      1  N   UNL     1      35.288 -22.074 -18.724  0.00  0.00    -0.248 NA
ATOM      2  C   UNL     1      34.408 -20.275 -20.075  0.00  0.00    +0.019 C 
ATOM      3  C   UNL     1      34.017 -22.360 -18.363  0.00  0.00    +0.068 C 
ATOM      4  C   UNL     1      33.116 -20.599 -19.681  0.00  0.00    +0.003 C 
ATOM      5  C   UNL     1      35.451 -21.036 -19.574  0.00  0.00    +0.098 C 
ATOM      6  C   UNL     1      32.908 -21.660 -18.808  0.00  0.00    +0.015 C 
ENDROOT
BRANCH   2   8
ATOM      7  C   UNL     1      35.137 -17.063 -22.724  0.00  0.00    +0.138 C 
ATOM      8  C   UNL     1      34.657 -19.176 -20.981  0.00  0.00    +0.002 C 
ATOM      9  C   UNL     1      34.517 -18.215 -23.193  0.00  0.00    +0.037 C 
ATOM     10  C   UNL     1      35.521 -16.957 -21.391  0.00  0.00    +0.037 C 
ATOM     11  C   UNL     1      34.276 -19.275 -22.319  0.00  0.00    +0.003 C 
ATOM     12  C   UNL     1      35.280 -18.017 -20.518  0.00  0.00    +0.003 C 
BRANCH   7  13
ATOM     13  O   UNL     1      35.374 -16.022 -23.583  0.00  0.00    -0.478 OA
BRANCH  13  14
ATOM     14  C   UNL     1      34.285 -15.147 -23.846  0.00  0.00    +0.183 C 
BRANCH  14  15
ATOM     15  C   UNL     1      34.496 -13.857 -23.069  0.00  0.00    -0.029 C 
BRANCH  15  17
ATOM     16  O   UNL     1      32.042 -12.222 -20.082  0.00  0.00    -0.358 OA
ATOM     17  N   UNL     1      33.329 -13.556 -22.243  0.00  0.00    +0.393 N 
ATOM     18  C   UNL     1      33.562 -13.952 -20.847  0.00  0.00    -0.044 C 
ATOM     19  C   UNL     1      32.995 -12.126 -22.311  0.00  0.00    -0.044 C 
ATOM     20  C   UNL     1      32.336 -13.618 -20.003  0.00  0.00    +0.119 C 
ATOM     21  C   UNL     1      31.783 -11.834 -21.432  0.00  0.00    +0.119 C 
ATOM     22  H   UNL     1      32.542 -14.093 -22.606  0.00  0.00    -0.079 HD
ENDBRANCH  15  17
ENDBRANCH  14  15
ENDBRANCH  13  14
ENDBRANCH   7  13
ENDBRANCH   2   8
BRANCH   3  23
ATOM     23  C   UNL     1      33.831 -23.506 -17.424  0.00  0.00    +0.131 C 
BRANCH  23  26
ATOM     24  O   UNL     1      33.150 -23.025 -15.150  0.00  0.00    -0.275 OA
ATOM     25  N   UNL     1      35.410 -22.970 -15.680  0.00  0.00    -0.300 N 
ATOM     26  C   UNL     1      34.063 -23.146 -15.964  0.00  0.00    +0.229 C 
ATOM     27  H   UNL     1      36.065 -23.091 -16.405  0.00  0.00    +0.150 HD
BRANCH  25  28
ATOM     28  C   UNL     1      35.888 -22.620 -14.363  0.00  0.00    +0.116 C 
BRANCH  28  29
ATOM     29  C   UNL     1      36.751 -23.699 -13.774  0.00  0.00    -0.003 C 
ATOM     30  C   UNL     1      36.949 -24.881 -14.477  0.00  0.00    -0.003 C 
ATOM     31  C   UNL     1      37.342 -23.504 -12.531  0.00  0.00    -0.003 C 
ATOM     32  C   UNL     1      37.750 -25.883 -13.930  0.00  0.00    -0.000 C 
ATOM     33  C   UNL     1      38.143 -24.507 -11.983  0.00  0.00    -0.000 C 
ATOM     34  C   UNL     1      38.346 -25.697 -12.683  0.00  0.00    -0.000 C 
ENDBRANCH  28  29
ENDBRANCH  25  28
ENDBRANCH  23  26
ENDBRANCH   3  23
TORSDOF 9
ENDMDL
MODEL 8
REMARK VINA RESULT:     -11.4      2.188     11.809
REMARK  Name = 23635314
REMARK  9 active torsions:
REMARK  status: ('A' for Active; 'I' for Inactive)
REMARK    1  A    between atoms: C_2  and  C_8
REMARK    2  A    between atoms: C_3  and  C_23
REMARK    3  A    between atoms: C_7  and  O_13
REMARK    4  A    between atoms: O_13  and  C_14
REMARK    5  A    between atoms: C_14  and  C_15
REMARK    6  A    between atoms: C_15  and  N_17
REMARK    7  A    between atoms: C_23  and  C_26
REMARK    8  A    between atoms: N_25  and  C_28
REMARK    9  A    between atoms: C_28  and  C_29
REMARK                            x       y       z     vdW  Elec       q    Type
REMARK                         _______ _______ _______ _____ _____    ______ ____
ROOT
ATOM      1  N   UNL     1      36.223 -22.830 -15.830  0.00  0.00    -0.248 NA
ATOM      2  C   UNL     1      34.878 -22.039 -17.674  0.00  0.00    +0.019 C 
ATOM      3  C   UNL     1      35.155 -23.552 -15.423  0.00  0.00    +0.068 C 
ATOM      4  C   UNL     1      33.801 -22.794 -17.225  0.00  0.00    +0.003 C 
ATOM      5  C   UNL     1      36.057 -22.091 -16.949  0.00  0.00    +0.098 C 
ATOM      6  C   UNL     1      33.934 -23.567 -16.078  0.00  0.00    +0.015 C 
ENDROOT
BRANCH   2   8
ATOM      7  C   UNL     1      34.568 -19.657 -21.152  0.00  0.00    +0.138 C 
ATOM      8  C   UNL     1      34.772 -21.224 -18.864  0.00  0.00    +0.002 C 
ATOM      9  C   UNL     1      33.414 -20.119 -20.529  0.00  0.00    +0.037 C 
ATOM     10  C   UNL     1      35.824 -19.973 -20.643  0.00  0.00    +0.037 C 
ATOM     11  C   UNL     1      33.516 -20.904 -19.381  0.00  0.00    +0.003 C 
ATOM     12  C   UNL     1      35.925 -20.759 -19.496  0.00  0.00    +0.003 C 
BRANCH   7  13
ATOM     13  O   UNL     1      34.468 -18.886 -22.281  0.00  0.00    -0.478 OA
BRANCH  13  14
ATOM     14  C   UNL     1      35.564 -18.028 -22.570  0.00  0.00    +0.183 C 
BRANCH  14  15
ATOM     15  C   UNL     1      35.274 -16.652 -21.993  0.00  0.00    -0.029 C 
BRANCH  15  17
ATOM     16  O   UNL     1      33.189 -14.277 -24.755  0.00  0.00    -0.358 OA
ATOM     17  N   UNL     1      34.981 -15.697 -23.059  0.00  0.00    +0.393 N 
ATOM     18  C   UNL     1      34.296 -16.357 -24.179  0.00  0.00    -0.044 C 
ATOM     19  C   UNL     1      34.162 -14.585 -22.554  0.00  0.00    -0.044 C 
ATOM     20  C   UNL     1      33.992 -15.338 -25.273  0.00  0.00    +0.119 C 
ATOM     21  C   UNL     1      33.860 -13.608 -23.686  0.00  0.00    +0.119 C 
ATOM     22  H   UNL     1      35.868 -15.322 -23.395  0.00  0.00    -0.079 HD
ENDBRANCH  15  17
ENDBRANCH  14  15
ENDBRANCH  13  14
ENDBRANCH   7  13
ENDBRANCH   2   8
BRANCH   3  23
ATOM     23  C   UNL     1      35.332 -24.370 -14.187  0.00  0.00    +0.131 C 
BRANCH  23  26
ATOM     24  O   UNL     1      34.184 -23.726 -12.154  0.00  0.00    -0.275 OA
ATOM     25  N   UNL     1      33.043 -24.986 -13.736  0.00  0.00    -0.300 N 
ATOM     26  C   UNL     1      34.146 -24.308 -13.235  0.00  0.00    +0.229 C 
ATOM     27  H   UNL     1      33.115 -25.421 -14.616  0.00  0.00    +0.150 HD
BRANCH  25  28
ATOM     28  C   UNL     1      31.793 -25.076 -13.017  0.00  0.00    +0.116 C 
BRANCH  28  29
ATOM     29  C   UNL     1      30.663 -24.443 -13.776  0.00  0.00    -0.003 C 
ATOM     30  C   UNL     1      30.637 -23.064 -13.947  0.00  0.00    -0.003 C 
ATOM     31  C   UNL     1      29.654 -25.243 -14.300  0.00  0.00    -0.003 C 
ATOM     32  C   UNL     1      29.586 -22.476 -14.652  0.00  0.00    -0.000 C 
ATOM     33  C   UNL     1      28.604 -24.655 -15.005  0.00  0.00    -0.000 C 
ATOM     34  C   UNL     1      28.570 -23.271 -15.180  0.00  0.00    -0.000 C 
ENDBRANCH  28  29
ENDBRANCH  25  28
ENDBRANCH  23  26
ENDBRANCH   3  23
TORSDOF 9
ENDMDL
MODEL 9
REMARK VINA RESULT:     -11.2      3.442      6.544
REMARK  Name = 23635314
REMARK  9 active torsions:
REMARK  status: ('A' for Active; 'I' for Inactive)
REMARK    1  A    between atoms: C_2  and  C_8
REMARK    2  A    between atoms: C_3  and  C_23
REMARK    3  A    between atoms: C_7  and  O_13
REMARK    4  A    between atoms: O_13  and  C_14
REMARK    5  A    between atoms: C_14  and  C_15
REMARK    6  A    between atoms: C_15  and  N_17
REMARK    7  A    between atoms: C_23  and  C_26
REMARK    8  A    between atoms: N_25  and  C_28
REMARK    9  A    between atoms: C_28  and  C_29
REMARK                            x       y       z     vdW  Elec       q    Type
REMARK                         _______ _______ _______ _____ _____    ______ ____
ROOT
ATOM      1  N   UNL     1      32.747 -11.188 -22.379  0.00  0.00    -0.248 NA
ATOM      2  C   UNL     1      33.396 -13.330 -21.472  0.00  0.00    +0.019 C 
ATOM      3  C   UNL     1      32.005 -10.995 -21.266  0.00  0.00    +0.068 C 
ATOM      4  C   UNL     1      32.622 -13.098 -20.342  0.00  0.00    +0.003 C 
ATOM      5  C   UNL     1      33.426 -12.354 -22.454  0.00  0.00    +0.098 C 
ATOM      6  C   UNL     1      31.910 -11.909 -20.230  0.00  0.00    +0.015 C 
ENDROOT
BRANCH   2   8
ATOM      7  C   UNL     1      35.595 -16.914 -21.904  0.00  0.00    +0.138 C 
ATOM      8  C   UNL     1      34.148 -14.557 -21.620  0.00  0.00    +0.002 C 
ATOM      9  C   UNL     1      35.248 -16.468 -20.634  0.00  0.00    +0.037 C 
ATOM     10  C   UNL     1      35.226 -16.192 -23.034  0.00  0.00    +0.037 C 
ATOM     11  C   UNL     1      34.522 -15.286 -20.491  0.00  0.00    +0.003 C 
ATOM     12  C   UNL     1      34.501 -15.010 -22.891  0.00  0.00    +0.003 C 
BRANCH   7  13
ATOM     13  O   UNL     1      36.309 -18.076 -22.044  0.00  0.00    -0.478 OA
BRANCH  13  14
ATOM     14  C   UNL     1      35.648 -19.282 -21.684  0.00  0.00    +0.183 C 
BRANCH  14  15
ATOM     15  C   UNL     1      36.157 -19.732 -20.325  0.00  0.00    -0.029 C 
BRANCH  15  17
ATOM     16  O   UNL     1      32.941 -22.136 -19.104  0.00  0.00    -0.358 OA
ATOM     17  N   UNL     1      35.071 -20.296 -19.527  0.00  0.00    +0.393 N 
ATOM     18  C   UNL     1      33.784 -20.156 -20.223  0.00  0.00    -0.044 C 
ATOM     19  C   UNL     1      35.326 -21.710 -19.221  0.00  0.00    -0.044 C 
ATOM     20  C   UNL     1      32.669 -20.761 -19.376  0.00  0.00    +0.119 C 
ATOM     21  C   UNL     1      34.175 -22.279 -18.398  0.00  0.00    +0.119 C 
ATOM     22  H   UNL     1      35.025 -19.776 -18.651  0.00  0.00    -0.079 HD
ENDBRANCH  15  17
ENDBRANCH  14  15
ENDBRANCH  13  14
ENDBRANCH   7  13
ENDBRANCH   2   8
BRANCH   3  23
ATOM     23  C   UNL     1      31.253  -9.708 -21.178  0.00  0.00    +0.131 C 
BRANCH  23  26
ATOM     24  O   UNL     1      32.088  -7.928 -19.764  0.00  0.00    -0.275 OA
ATOM     25  N   UNL     1      32.954  -8.159 -21.906  0.00  0.00    -0.300 N 
ATOM     26  C   UNL     1      32.128  -8.508 -20.846  0.00  0.00    +0.229 C 
ATOM     27  H   UNL     1      32.910  -8.690 -22.734  0.00  0.00    +0.150 HD
BRANCH  25  28
ATOM     28  C   UNL     1      33.876  -7.050 -21.840  0.00  0.00    +0.116 C 
BRANCH  28  29
ATOM     29  C   UNL     1      33.414  -5.886 -22.668  0.00  0.00    -0.003 C 
ATOM     30  C   UNL     1      32.430  -5.038 -22.172  0.00  0.00    -0.003 C 
ATOM     31  C   UNL     1      33.973  -5.667 -23.922  0.00  0.00    -0.003 C 
ATOM     32  C   UNL     1      32.000  -3.956 -22.941  0.00  0.00    -0.000 C 
ATOM     33  C   UNL     1      33.543  -4.586 -24.690  0.00  0.00    -0.000 C 
ATOM     34  C   UNL     1      32.555  -3.730 -24.200  0.00  0.00    -0.000 C 
ENDBRANCH  28  29
ENDBRANCH  25  28
ENDBRANCH  23  26
ENDBRANCH   3  23
TORSDOF 9
ENDMDL
