MODEL 1
REMARK VINA RESULT:     -12.6      0.000      0.000
REMARK  Name = 16719221
REMARK  6 active torsions:
REMARK  status: ('A' for Active; 'I' for Inactive)
REMARK    1  A    between atoms: C_3  and  C_20
REMARK    2  A    between atoms: C_11  and  O_13
REMARK    3  A    between atoms: O_13  and  C_16
REMARK    4  A    between atoms: C_20  and  C_24
REMARK    5  A    between atoms: N_22  and  S_30
REMARK    6  A    between atoms: S_30  and  N_33
REMARK                            x       y       z     vdW  Elec       q    Type
REMARK                         _______ _______ _______ _____ _____    ______ ____
ROOT
ATOM      1  O   UNL     1      36.854 -20.237 -19.413  0.00  0.00    -0.421 OA
ATOM      2  O   UNL     1      37.994 -18.775 -20.722  0.00  0.00    -0.245 OA
ATOM      3  C   UNL     1      35.683 -19.060 -21.226  0.00  0.00    +0.054 A 
ATOM      4  C   UNL     1      34.531 -19.703 -20.942  0.00  0.00    -0.016 A 
ATOM      5  C   UNL     1      34.489 -20.651 -19.810  0.00  0.00    +0.031 A 
ATOM      6  C   UNL     1      35.654 -20.886 -19.085  0.00  0.00    +0.151 A 
ATOM      7  C   UNL     1      36.931 -19.325 -20.453  0.00  0.00    +0.342 A 
ATOM      8  C   UNL     1      33.257 -19.527 -21.731  0.00  0.00    +0.031 C 
ATOM      9  C   UNL     1      33.334 -21.335 -19.401  0.00  0.00    +0.006 C 
ATOM     10  C   UNL     1      35.702 -21.766 -18.001  0.00  0.00    +0.076 C 
ATOM     11  C   UNL     1      34.545 -22.438 -17.617  0.00  0.00    +0.162 C 
ATOM     12  C   UNL     1      33.362 -22.221 -18.316  0.00  0.00    +0.039 C 
ENDROOT
BRANCH  11  13
ATOM     13  O   UNL     1      34.571 -23.298 -16.566  0.00  0.00    -0.392 OA
BRANCH  13  16
ATOM     14  N   UNL     1      32.269 -23.307 -16.243  0.00  0.00    -0.185 NA
ATOM     15  N   UNL     1      33.793 -23.238 -14.377  0.00  0.00    -0.162 NA
ATOM     16  C   UNL     1      33.497 -23.280 -15.690  0.00  0.00    +0.196 C 
ATOM     17  C   UNL     1      31.247 -23.288 -15.362  0.00  0.00    +0.167 C 
ATOM     18  C   UNL     1      32.725 -23.221 -13.553  0.00  0.00    +0.110 C 
ATOM     19  C   UNL     1      31.417 -23.245 -13.992  0.00  0.00    +0.022 C 
ENDBRANCH  13  16
ENDBRANCH  11  13
BRANCH   3  20
ATOM     20  C   UNL     1      35.847 -18.023 -22.309  0.00  0.00    +0.061 C 
BRANCH  20  24
ATOM     21  F   UNL     1      35.526 -15.834 -24.088  0.00  0.00    -0.202 F 
ATOM     22  N   UNL     1      34.660 -13.317 -23.244  0.00  0.00    -0.187 N 
ATOM     23  N   UNL     1      34.519 -14.141 -21.040  0.00  0.00    -0.226 NA
ATOM     24  C   UNL     1      35.384 -16.666 -21.867  0.00  0.00    +0.014 C 
ATOM     25  C   UNL     1      35.247 -15.637 -22.793  0.00  0.00    +0.169 C 
ATOM     26  C   UNL     1      35.088 -16.434 -20.528  0.00  0.00    +0.019 C 
ATOM     27  C   UNL     1      34.817 -14.404 -22.332  0.00  0.00    +0.175 C 
ATOM     28  C   UNL     1      34.663 -15.166 -20.169  0.00  0.00    +0.100 C 
ATOM     29  H   UNL     1      35.327 -13.140 -23.947  0.00  0.00    +0.176 HD
BRANCH  22  30
ATOM     30  S   UNL     1      33.255 -12.320 -23.068  0.00  0.00    +0.111 S 
ATOM     31  O   UNL     1      32.136 -13.176 -22.717  0.00  0.00    -0.138 OA
ATOM     32  O   UNL     1      33.572 -11.173 -22.238  0.00  0.00    -0.138 OA
BRANCH  30  33
ATOM     33  N   UNL     1      33.025 -11.761 -24.681  0.00  0.00    -0.165 NA
ATOM     34  C   UNL     1      33.364 -12.687 -25.784  0.00  0.00    +0.112 C 
ATOM     35  H   UNL     1      33.598 -10.925 -24.798  0.00  0.00    +0.150 HD
ENDBRANCH  30  33
ENDBRANCH  22  30
ENDBRANCH  20  24
ENDBRANCH   3  20
TORSDOF 6
ENDMDL
MODEL 2
REMARK VINA RESULT:     -12.4      1.502      1.968
REMARK  Name = 16719221
REMARK  6 active torsions:
REMARK  status: ('A' for Active; 'I' for Inactive)
REMARK    1  A    between atoms: C_3  and  C_20
REMARK    2  A    between atoms: C_11  and  O_13
REMARK    3  A    between atoms: O_13  and  C_16
REMARK    4  A    between atoms: C_20  and  C_24
REMARK    5  A    between atoms: N_22  and  S_30
REMARK    6  A    between atoms: S_30  and  N_33
REMARK                            x       y       z     vdW  Elec       q    Type
REMARK                         _______ _______ _______ _____ _____    ______ ____
ROOT
ATOM      1  O   UNL     1      36.694 -20.604 -19.073  0.00  0.00    -0.421 OA
ATOM      2  O   UNL     1      37.943 -19.243 -20.391  0.00  0.00    -0.245 OA
ATOM      3  C   UNL     1      35.625 -19.388 -20.922  0.00  0.00    +0.054 A 
ATOM      4  C   UNL     1      34.430 -19.950 -20.643  0.00  0.00    -0.016 A 
ATOM      5  C   UNL     1      34.313 -20.873 -19.495  0.00  0.00    +0.031 A 
ATOM      6  C   UNL     1      35.451 -21.169 -18.751  0.00  0.00    +0.151 A 
ATOM      7  C   UNL     1      36.843 -19.719 -20.128  0.00  0.00    +0.342 A 
ATOM      8  C   UNL     1      33.181 -19.707 -21.453  0.00  0.00    +0.031 C 
ATOM      9  C   UNL     1      33.110 -21.474 -19.091  0.00  0.00    +0.006 C 
ATOM     10  C   UNL     1      35.428 -22.031 -17.651  0.00  0.00    +0.076 C 
ATOM     11  C   UNL     1      34.226 -22.619 -17.272  0.00  0.00    +0.162 C 
ATOM     12  C   UNL     1      33.067 -22.340 -17.991  0.00  0.00    +0.039 C 
ENDROOT
BRANCH  11  13
ATOM     13  O   UNL     1      34.182 -23.461 -16.205  0.00  0.00    -0.392 OA
BRANCH  13  16
ATOM     14  N   UNL     1      35.864 -22.441 -14.967  0.00  0.00    -0.185 NA
ATOM     15  N   UNL     1      35.778 -24.835 -15.225  0.00  0.00    -0.162 NA
ATOM     16  C   UNL     1      35.325 -23.584 -15.433  0.00  0.00    +0.196 C 
ATOM     17  C   UNL     1      36.975 -22.598 -14.219  0.00  0.00    +0.167 C 
ATOM     18  C   UNL     1      36.893 -24.919 -14.470  0.00  0.00    +0.110 C 
ATOM     19  C   UNL     1      37.541 -23.825 -13.934  0.00  0.00    +0.022 C 
ENDBRANCH  13  16
ENDBRANCH  11  13
BRANCH   3  20
ATOM     20  C   UNL     1      35.870 -18.384 -22.020  0.00  0.00    +0.061 C 
BRANCH  20  24
ATOM     21  F   UNL     1      35.441 -16.309 -23.911  0.00  0.00    -0.202 F 
ATOM     22  N   UNL     1      34.585 -13.753 -23.179  0.00  0.00    -0.187 N 
ATOM     23  N   UNL     1      34.557 -14.444 -20.925  0.00  0.00    -0.226 NA
ATOM     24  C   UNL     1      35.412 -17.007 -21.640  0.00  0.00    +0.014 C 
ATOM     25  C   UNL     1      35.220 -16.036 -22.617  0.00  0.00    +0.169 C 
ATOM     26  C   UNL     1      35.175 -16.697 -20.305  0.00  0.00    +0.019 C 
ATOM     27  C   UNL     1      34.797 -14.782 -22.212  0.00  0.00    +0.175 C 
ATOM     28  C   UNL     1      34.753 -15.412 -20.002  0.00  0.00    +0.100 C 
ATOM     29  H   UNL     1      35.217 -13.613 -23.922  0.00  0.00    +0.176 HD
BRANCH  22  30
ATOM     30  S   UNL     1      33.178 -12.760 -22.998  0.00  0.00    +0.111 S 
ATOM     31  O   UNL     1      32.374 -13.310 -21.922  0.00  0.00    -0.138 OA
ATOM     32  O   UNL     1      33.570 -11.363 -22.962  0.00  0.00    -0.138 OA
BRANCH  30  33
ATOM     33  N   UNL     1      32.360 -13.045 -24.487  0.00  0.00    -0.165 NA
ATOM     34  C   UNL     1      33.177 -13.098 -25.720  0.00  0.00    +0.112 C 
ATOM     35  H   UNL     1      31.676 -12.298 -24.606  0.00  0.00    +0.150 HD
ENDBRANCH  30  33
ENDBRANCH  22  30
ENDBRANCH  20  24
ENDBRANCH   3  20
TORSDOF 6
ENDMDL
MODEL 3
REMARK VINA RESULT:     -12.2      1.992      2.724
REMARK  Name = 16719221
REMARK  6 active torsions:
REMARK  status: ('A' for Active; 'I' for Inactive)
REMARK    1  A    between atoms: C_3  and  C_20
REMARK    2  A    between atoms: C_11  and  O_13
REMARK    3  A    between atoms: O_13  and  C_16
REMARK    4  A    between atoms: C_20  and  C_24
REMARK    5  A    between atoms: N_22  and  S_30
REMARK    6  A    between atoms: S_30  and  N_33
REMARK                            x       y       z     vdW  Elec       q    Type
REMARK                         _______ _______ _______ _____ _____    ______ ____
ROOT
ATOM      1  O   UNL     1      33.235 -20.917 -19.825  0.00  0.00    -0.421 OA
ATOM      2  O   UNL     1      32.788 -19.714 -21.698  0.00  0.00    -0.245 OA
ATOM      3  C   UNL     1      35.058 -19.732 -20.972  0.00  0.00    +0.054 A 
ATOM      4  C   UNL     1      35.949 -20.142 -20.045  0.00  0.00    -0.016 A 
ATOM      5  C   UNL     1      35.501 -21.022 -18.947  0.00  0.00    +0.031 A 
ATOM      6  C   UNL     1      34.157 -21.377 -18.874  0.00  0.00    +0.151 A 
ATOM      7  C   UNL     1      33.617 -20.107 -20.882  0.00  0.00    +0.342 A 
ATOM      8  C   UNL     1      37.403 -19.739 -20.046  0.00  0.00    +0.031 C 
ATOM      9  C   UNL     1      36.353 -21.541 -17.959  0.00  0.00    +0.006 C 
ATOM     10  C   UNL     1      33.650 -22.205 -17.869  0.00  0.00    +0.076 C 
ATOM     11  C   UNL     1      34.513 -22.704 -16.898  0.00  0.00    +0.162 C 
ATOM     12  C   UNL     1      35.864 -22.373 -16.944  0.00  0.00    +0.039 C 
ENDROOT
BRANCH  11  13
ATOM     13  O   UNL     1      34.040 -23.510 -15.911  0.00  0.00    -0.392 OA
BRANCH  13  16
ATOM     14  N   UNL     1      35.093 -23.117 -13.877  0.00  0.00    -0.185 NA
ATOM     15  N   UNL     1      35.543 -25.111 -15.153  0.00  0.00    -0.162 NA
ATOM     16  C   UNL     1      34.931 -23.931 -14.938  0.00  0.00    +0.196 C 
ATOM     17  C   UNL     1      35.967 -23.557 -12.949  0.00  0.00    +0.167 C 
ATOM     18  C   UNL     1      36.404 -25.490 -14.186  0.00  0.00    +0.110 C 
ATOM     19  C   UNL     1      36.659 -24.748 -13.051  0.00  0.00    +0.022 C 
ENDBRANCH  13  16
ENDBRANCH  11  13
BRANCH   3  20
ATOM     20  C   UNL     1      35.393 -18.888 -22.176  0.00  0.00    +0.061 C 
BRANCH  20  24
ATOM     21  F   UNL     1      35.119 -16.969 -24.251  0.00  0.00    -0.202 F 
ATOM     22  N   UNL     1      34.712 -14.252 -23.750  0.00  0.00    -0.187 N 
ATOM     23  N   UNL     1      34.767 -14.705 -21.436  0.00  0.00    -0.226 NA
ATOM     24  C   UNL     1      35.175 -17.427 -21.920  0.00  0.00    +0.014 C 
ATOM     25  C   UNL     1      35.048 -16.540 -22.984  0.00  0.00    +0.169 C 
ATOM     26  C   UNL     1      35.097 -16.954 -20.614  0.00  0.00    +0.019 C 
ATOM     27  C   UNL     1      34.848 -15.201 -22.692  0.00  0.00    +0.175 C 
ATOM     28  C   UNL     1      34.894 -15.596 -20.428  0.00  0.00    +0.100 C 
ATOM     29  H   UNL     1      35.294 -14.286 -24.543  0.00  0.00    +0.176 HD
BRANCH  22  30
ATOM     30  S   UNL     1      33.486 -13.041 -23.586  0.00  0.00    +0.111 S 
ATOM     31  O   UNL     1      33.011 -12.698 -24.914  0.00  0.00    -0.138 OA
ATOM     32  O   UNL     1      32.537 -13.442 -22.564  0.00  0.00    -0.138 OA
BRANCH  30  33
ATOM     33  N   UNL     1      34.394 -11.711 -22.975  0.00  0.00    -0.165 NA
ATOM     34  C   UNL     1      34.290 -10.420 -23.691  0.00  0.00    +0.112 C 
ATOM     35  H   UNL     1      35.377 -11.984 -22.981  0.00  0.00    +0.150 HD
ENDBRANCH  30  33
ENDBRANCH  22  30
ENDBRANCH  20  24
ENDBRANCH   3  20
TORSDOF 6
ENDMDL
MODEL 4
REMARK VINA RESULT:     -11.8      1.615      2.298
REMARK  Name = 16719221
REMARK  6 active torsions:
REMARK  status: ('A' for Active; 'I' for Inactive)
REMARK    1  A    between atoms: C_3  and  C_20
REMARK    2  A    between atoms: C_11  and  O_13
REMARK    3  A    between atoms: O_13  and  C_16
REMARK    4  A    between atoms: C_20  and  C_24
REMARK    5  A    between atoms: N_22  and  S_30
REMARK    6  A    between atoms: S_30  and  N_33
REMARK                            x       y       z     vdW  Elec       q    Type
REMARK                         _______ _______ _______ _____ _____    ______ ____
ROOT
ATOM      1  O   UNL     1      33.105 -20.806 -20.141  0.00  0.00    -0.421 OA
ATOM      2  O   UNL     1      32.947 -19.465 -21.965  0.00  0.00    -0.245 OA
ATOM      3  C   UNL     1      35.108 -19.653 -20.980  0.00  0.00    +0.054 A 
ATOM      4  C   UNL     1      35.860 -20.168 -19.984  0.00  0.00    -0.016 A 
ATOM      5  C   UNL     1      35.241 -21.091 -19.010  0.00  0.00    +0.031 A 
ATOM      6  C   UNL     1      33.883 -21.376 -19.122  0.00  0.00    +0.151 A 
ATOM      7  C   UNL     1      33.651 -19.953 -21.087  0.00  0.00    +0.342 A 
ATOM      8  C   UNL     1      37.320 -19.846 -19.785  0.00  0.00    +0.031 C 
ATOM      9  C   UNL     1      35.941 -21.717 -17.967  0.00  0.00    +0.006 C 
ATOM     10  C   UNL     1      33.219 -22.236 -18.243  0.00  0.00    +0.076 C 
ATOM     11  C   UNL     1      33.933 -22.841 -17.214  0.00  0.00    +0.162 C 
ATOM     12  C   UNL     1      35.293 -22.583 -17.077  0.00  0.00    +0.039 C 
ENDROOT
BRANCH  11  13
ATOM     13  O   UNL     1      33.306 -23.682 -16.349  0.00  0.00    -0.392 OA
BRANCH  13  16
ATOM     14  N   UNL     1      32.108 -23.006 -14.475  0.00  0.00    -0.185 NA
ATOM     15  N   UNL     1      31.062 -23.154 -16.640  0.00  0.00    -0.162 NA
ATOM     16  C   UNL     1      32.106 -23.263 -15.797  0.00  0.00    +0.196 C 
ATOM     17  C   UNL     1      30.925 -22.600 -13.971  0.00  0.00    +0.167 C 
ATOM     18  C   UNL     1      29.910 -22.745 -16.070  0.00  0.00    +0.110 C 
ATOM     19  C   UNL     1      29.780 -22.450 -14.729  0.00  0.00    +0.022 C 
ENDBRANCH  13  16
ENDBRANCH  11  13
BRANCH   3  20
ATOM     20  C   UNL     1      35.626 -18.754 -22.074  0.00  0.00    +0.061 C 
BRANCH  20  24
ATOM     21  F   UNL     1      35.276 -16.850 -24.151  0.00  0.00    -0.202 F 
ATOM     22  N   UNL     1      34.674 -14.168 -23.654  0.00  0.00    -0.187 N 
ATOM     23  N   UNL     1      34.703 -14.625 -21.341  0.00  0.00    -0.226 NA
ATOM     24  C   UNL     1      35.304 -17.312 -21.820  0.00  0.00    +0.014 C 
ATOM     25  C   UNL     1      35.145 -16.431 -22.885  0.00  0.00    +0.169 C 
ATOM     26  C   UNL     1      35.162 -16.850 -20.516  0.00  0.00    +0.019 C 
ATOM     27  C   UNL     1      34.848 -15.110 -22.595  0.00  0.00    +0.175 C 
ATOM     28  C   UNL     1      34.864 -15.509 -20.332  0.00  0.00    +0.100 C 
ATOM     29  H   UNL     1      35.277 -14.160 -24.433  0.00  0.00    +0.176 HD
BRANCH  22  30
ATOM     30  S   UNL     1      33.366 -13.042 -23.519  0.00  0.00    +0.111 S 
ATOM     31  O   UNL     1      32.810 -12.836 -24.843  0.00  0.00    -0.138 OA
ATOM     32  O   UNL     1      32.496 -13.436 -22.426  0.00  0.00    -0.138 OA
BRANCH  30  33
ATOM     33  N   UNL     1      34.194 -11.607 -23.049  0.00  0.00    -0.165 NA
ATOM     34  C   UNL     1      34.584 -10.658 -24.115  0.00  0.00    +0.112 C 
ATOM     35  H   UNL     1      35.047 -11.891 -22.566  0.00  0.00    +0.150 HD
ENDBRANCH  30  33
ENDBRANCH  22  30
ENDBRANCH  20  24
ENDBRANCH   3  20
TORSDOF 6
ENDMDL
MODEL 5
REMARK VINA RESULT:     -11.7      3.347     10.323
REMARK  Name = 16719221
REMARK  6 active torsions:
REMARK  status: ('A' for Active; 'I' for Inactive)
REMARK    1  A    between atoms: C_3  and  C_20
REMARK    2  A    between atoms: C_11  and  O_13
REMARK    3  A    between atoms: O_13  and  C_16
REMARK    4  A    between atoms: C_20  and  C_24
REMARK    5  A    between atoms: N_22  and  S_30
REMARK    6  A    between atoms: S_30  and  N_33
REMARK                            x       y       z     vdW  Elec       q    Type
REMARK                         _______ _______ _______ _____ _____    ______ ____
ROOT
ATOM      1  O   UNL     1      34.868 -15.773 -21.487  0.00  0.00    -0.421 OA
ATOM      2  O   UNL     1      35.758 -16.864 -19.707  0.00  0.00    -0.245 OA
ATOM      3  C   UNL     1      35.452 -18.152 -21.689  0.00  0.00    +0.054 A 
ATOM      4  C   UNL     1      35.001 -18.188 -22.960  0.00  0.00    -0.016 A 
ATOM      5  C   UNL     1      34.478 -16.952 -23.579  0.00  0.00    +0.031 A 
ATOM      6  C   UNL     1      34.427 -15.787 -22.819  0.00  0.00    +0.151 A 
ATOM      7  C   UNL     1      35.384 -16.903 -20.875  0.00  0.00    +0.342 A 
ATOM      8  C   UNL     1      34.981 -19.436 -23.807  0.00  0.00    +0.031 C 
ATOM      9  C   UNL     1      34.029 -16.869 -24.906  0.00  0.00    +0.006 C 
ATOM     10  C   UNL     1      33.947 -14.577 -23.326  0.00  0.00    +0.076 C 
ATOM     11  C   UNL     1      33.503 -14.519 -24.643  0.00  0.00    +0.162 C 
ATOM     12  C   UNL     1      33.544 -15.664 -25.433  0.00  0.00    +0.039 C 
ENDROOT
BRANCH  11  13
ATOM     13  O   UNL     1      33.031 -13.352 -25.156  0.00  0.00    -0.392 OA
BRANCH  13  16
ATOM     14  N   UNL     1      34.498 -11.575 -25.462  0.00  0.00    -0.185 NA
ATOM     15  N   UNL     1      33.128 -11.739 -23.486  0.00  0.00    -0.162 NA
ATOM     16  C   UNL     1      33.577 -12.171 -24.680  0.00  0.00    +0.196 C 
ATOM     17  C   UNL     1      35.008 -10.428 -24.969  0.00  0.00    +0.167 C 
ATOM     18  C   UNL     1      33.680 -10.587 -23.053  0.00  0.00    +0.110 C 
ATOM     19  C   UNL     1      34.633  -9.880 -23.758  0.00  0.00    +0.022 C 
ENDBRANCH  13  16
ENDBRANCH  11  13
BRANCH   3  20
ATOM     20  C   UNL     1      36.069 -19.319 -20.960  0.00  0.00    +0.061 C 
BRANCH  20  24
ATOM     21  F   UNL     1      36.740 -21.492 -19.259  0.00  0.00    -0.202 F 
ATOM     22  N   UNL     1      34.821 -22.961 -17.858  0.00  0.00    -0.187 N 
ATOM     23  N   UNL     1      33.142 -21.597 -18.795  0.00  0.00    -0.226 NA
ATOM     24  C   UNL     1      35.048 -20.117 -20.203  0.00  0.00    +0.014 C 
ATOM     25  C   UNL     1      35.446 -21.169 -19.386  0.00  0.00    +0.169 C 
ATOM     26  C   UNL     1      33.698 -19.803 -20.317  0.00  0.00    +0.019 C 
ATOM     27  C   UNL     1      34.463 -21.872 -18.710  0.00  0.00    +0.175 C 
ATOM     28  C   UNL     1      32.793 -20.567 -19.598  0.00  0.00    +0.100 C 
ATOM     29  H   UNL     1      35.505 -23.616 -18.129  0.00  0.00    +0.176 HD
BRANCH  22  30
ATOM     30  S   UNL     1      34.011 -23.085 -16.333  0.00  0.00    +0.111 S 
ATOM     31  O   UNL     1      34.534 -22.052 -15.459  0.00  0.00    -0.138 OA
ATOM     32  O   UNL     1      32.580 -23.189 -16.549  0.00  0.00    -0.138 OA
BRANCH  30  33
ATOM     33  N   UNL     1      34.574 -24.612 -15.767  0.00  0.00    -0.165 NA
ATOM     34  C   UNL     1      35.297 -24.641 -14.476  0.00  0.00    +0.112 C 
ATOM     35  H   UNL     1      35.204 -24.987 -16.477  0.00  0.00    +0.150 HD
ENDBRANCH  30  33
ENDBRANCH  22  30
ENDBRANCH  20  24
ENDBRANCH   3  20
TORSDOF 6
ENDMDL
MODEL 6
REMARK VINA RESULT:     -11.5      4.227     10.295
REMARK  Name = 16719221
REMARK  6 active torsions:
REMARK  status: ('A' for Active; 'I' for Inactive)
REMARK    1  A    between atoms: C_3  and  C_20
REMARK    2  A    between atoms: C_11  and  O_13
REMARK    3  A    between atoms: O_13  and  C_16
REMARK    4  A    between atoms: C_20  and  C_24
REMARK    5  A    between atoms: N_22  and  S_30
REMARK    6  A    between atoms: S_30  and  N_33
REMARK                            x       y       z     vdW  Elec       q    Type
REMARK                         _______ _______ _______ _____ _____    ______ ____
ROOT
ATOM      1  O   UNL     1      33.346 -19.703 -20.195  0.00  0.00    -0.421 OA
ATOM      2  O   UNL     1      32.192 -21.287 -19.051  0.00  0.00    -0.245 OA
ATOM      3  C   UNL     1      34.558 -21.554 -19.125  0.00  0.00    +0.054 A 
ATOM      4  C   UNL     1      35.738 -21.091 -19.588  0.00  0.00    -0.016 A 
ATOM      5  C   UNL     1      35.768 -19.842 -20.376  0.00  0.00    +0.031 A 
ATOM      6  C   UNL     1      34.569 -19.192 -20.654  0.00  0.00    +0.151 A 
ATOM      7  C   UNL     1      33.275 -20.859 -19.436  0.00  0.00    +0.342 A 
ATOM      8  C   UNL     1      37.057 -21.788 -19.365  0.00  0.00    +0.031 C 
ATOM      9  C   UNL     1      36.944 -19.250 -20.865  0.00  0.00    +0.006 C 
ATOM     10  C   UNL     1      34.508 -18.006 -21.391  0.00  0.00    +0.076 C 
ATOM     11  C   UNL     1      35.686 -17.441 -21.870  0.00  0.00    +0.162 C 
ATOM     12  C   UNL     1      36.903 -18.062 -21.606  0.00  0.00    +0.039 C 
ENDROOT
BRANCH  11  13
ATOM     13  O   UNL     1      35.648 -16.289 -22.590  0.00  0.00    -0.392 OA
BRANCH  13  16
ATOM     14  N   UNL     1      34.021 -14.706 -23.090  0.00  0.00    -0.185 NA
ATOM     15  N   UNL     1      34.843 -14.987 -20.842  0.00  0.00    -0.162 NA
ATOM     16  C   UNL     1      34.801 -15.283 -22.155  0.00  0.00    +0.196 C 
ATOM     17  C   UNL     1      33.208 -13.732 -22.632  0.00  0.00    +0.167 C 
ATOM     18  C   UNL     1      34.005 -14.003 -20.453  0.00  0.00    +0.110 C 
ATOM     19  C   UNL     1      33.157 -13.334 -21.311  0.00  0.00    +0.022 C 
ENDBRANCH  13  16
ENDBRANCH  11  13
BRANCH   3  20
ATOM     20  C   UNL     1      34.393 -22.777 -18.257  0.00  0.00    +0.061 C 
BRANCH  20  24
ATOM     21  F   UNL     1      33.240 -23.730 -15.844  0.00  0.00    -0.202 F 
ATOM     22  N   UNL     1      34.468 -23.410 -13.356  0.00  0.00    -0.187 N 
ATOM     23  N   UNL     1      36.255 -22.298 -14.418  0.00  0.00    -0.226 NA
ATOM     24  C   UNL     1      35.041 -22.610 -16.915  0.00  0.00    +0.014 C 
ATOM     25  C   UNL     1      34.422 -23.102 -15.771  0.00  0.00    +0.169 C 
ATOM     26  C   UNL     1      36.268 -21.962 -16.811  0.00  0.00    +0.019 C 
ATOM     27  C   UNL     1      35.064 -22.921 -14.558  0.00  0.00    +0.175 C 
ATOM     28  C   UNL     1      36.828 -21.833 -15.551  0.00  0.00    +0.100 C 
ATOM     29  H   UNL     1      33.504 -23.305 -13.185  0.00  0.00    +0.176 HD
BRANCH  22  30
ATOM     30  S   UNL     1      35.503 -24.191 -12.209  0.00  0.00    +0.111 S 
ATOM     31  O   UNL     1      34.672 -24.742 -11.154  0.00  0.00    -0.138 OA
ATOM     32  O   UNL     1      36.443 -25.049 -12.906  0.00  0.00    -0.138 OA
BRANCH  30  33
ATOM     33  N   UNL     1      36.379 -22.854 -11.567  0.00  0.00    -0.165 NA
ATOM     34  C   UNL     1      37.807 -23.062 -11.239  0.00  0.00    +0.112 C 
ATOM     35  H   UNL     1      35.909 -22.565 -10.709  0.00  0.00    +0.150 HD
ENDBRANCH  30  33
ENDBRANCH  22  30
ENDBRANCH  20  24
ENDBRANCH   3  20
TORSDOF 6
ENDMDL
MODEL 7
REMARK VINA RESULT:     -11.3      3.484      9.886
REMARK  Name = 16719221
REMARK  6 active torsions:
REMARK  status: ('A' for Active; 'I' for Inactive)
REMARK    1  A    between atoms: C_3  and  C_20
REMARK    2  A    between atoms: C_11  and  O_13
REMARK    3  A    between atoms: O_13  and  C_16
REMARK    4  A    between atoms: C_20  and  C_24
REMARK    5  A    between atoms: N_22  and  S_30
REMARK    6  A    between atoms: S_30  and  N_33
REMARK                            x       y       z     vdW  Elec       q    Type
REMARK                         _______ _______ _______ _____ _____    ______ ____
ROOT
ATOM      1  O   UNL     1      35.338 -16.000 -21.085  0.00  0.00    -0.421 OA
ATOM      2  O   UNL     1      36.138 -17.652 -19.751  0.00  0.00    -0.245 OA
ATOM      3  C   UNL     1      35.300 -18.327 -21.877  0.00  0.00    +0.054 A 
ATOM      4  C   UNL     1      34.709 -17.957 -23.033  0.00  0.00    -0.016 A 
ATOM      5  C   UNL     1      34.433 -16.527 -23.282  0.00  0.00    +0.031 A 
ATOM      6  C   UNL     1      34.756 -15.597 -22.297  0.00  0.00    +0.151 A 
ATOM      7  C   UNL     1      35.632 -17.327 -20.821  0.00  0.00    +0.342 A 
ATOM      8  C   UNL     1      34.287 -18.929 -24.106  0.00  0.00    +0.031 C 
ATOM      9  C   UNL     1      33.866 -16.031 -24.466  0.00  0.00    +0.006 C 
ATOM     10  C   UNL     1      34.528 -14.227 -22.450  0.00  0.00    +0.076 C 
ATOM     11  C   UNL     1      33.961 -13.760 -23.631  0.00  0.00    +0.162 C 
ATOM     12  C   UNL     1      33.631 -14.661 -24.639  0.00  0.00    +0.039 C 
ENDROOT
BRANCH  11  13
ATOM     13  O   UNL     1      33.731 -12.431 -23.800  0.00  0.00    -0.392 OA
BRANCH  13  16
ATOM     14  N   UNL     1      33.058 -10.429 -22.831  0.00  0.00    -0.185 NA
ATOM     15  N   UNL     1      32.286 -12.549 -21.984  0.00  0.00    -0.162 NA
ATOM     16  C   UNL     1      32.993 -11.774 -22.829  0.00  0.00    +0.196 C 
ATOM     17  C   UNL     1      32.328  -9.821 -21.872  0.00  0.00    +0.167 C 
ATOM     18  C   UNL     1      31.580 -11.877 -21.051  0.00  0.00    +0.110 C 
ATOM     19  C   UNL     1      31.562 -10.501 -20.946  0.00  0.00    +0.022 C 
ENDBRANCH  13  16
ENDBRANCH  11  13
BRANCH   3  20
ATOM     20  C   UNL     1      35.695 -19.738 -21.524  0.00  0.00    +0.061 C 
BRANCH  20  24
ATOM     21  F   UNL     1      36.424 -21.885 -19.814  0.00  0.00    -0.202 F 
ATOM     22  N   UNL     1      34.651 -23.023 -17.981  0.00  0.00    -0.187 N 
ATOM     23  N   UNL     1      32.991 -21.511 -18.697  0.00  0.00    -0.226 NA
ATOM     24  C   UNL     1      34.752 -20.359 -20.537  0.00  0.00    +0.014 C 
ATOM     25  C   UNL     1      35.175 -21.409 -19.728  0.00  0.00    +0.169 C 
ATOM     26  C   UNL     1      33.449 -19.884 -20.426  0.00  0.00    +0.019 C 
ATOM     27  C   UNL     1      34.264 -21.945 -18.833  0.00  0.00    +0.175 C 
ATOM     28  C   UNL     1      32.616 -20.489 -19.499  0.00  0.00    +0.100 C 
ATOM     29  H   UNL     1      35.192 -23.773 -18.321  0.00  0.00    +0.176 HD
BRANCH  22  30
ATOM     30  S   UNL     1      34.136 -22.964 -16.329  0.00  0.00    +0.111 S 
ATOM     31  O   UNL     1      34.910 -21.939 -15.652  0.00  0.00    -0.138 OA
ATOM     32  O   UNL     1      32.687 -22.926 -16.272  0.00  0.00    -0.138 OA
BRANCH  30  33
ATOM     33  N   UNL     1      34.650 -24.503 -15.751  0.00  0.00    -0.165 NA
ATOM     34  C   UNL     1      35.349 -24.549 -14.448  0.00  0.00    +0.112 C 
ATOM     35  H   UNL     1      35.282 -24.895 -16.450  0.00  0.00    +0.150 HD
ENDBRANCH  30  33
ENDBRANCH  22  30
ENDBRANCH  20  24
ENDBRANCH   3  20
TORSDOF 6
ENDMDL
MODEL 8
REMARK VINA RESULT:     -11.1      3.279      5.354
REMARK  Name = 16719221
REMARK  6 active torsions:
REMARK  status: ('A' for Active; 'I' for Inactive)
REMARK    1  A    between atoms: C_3  and  C_20
REMARK    2  A    between atoms: C_11  and  O_13
REMARK    3  A    between atoms: O_13  and  C_16
REMARK    4  A    between atoms: C_20  and  C_24
REMARK    5  A    between atoms: N_22  and  S_30
REMARK    6  A    between atoms: S_30  and  N_33
REMARK                            x       y       z     vdW  Elec       q    Type
REMARK                         _______ _______ _______ _____ _____    ______ ____
ROOT
ATOM      1  O   UNL     1      34.184 -17.329 -24.201  0.00  0.00    -0.421 OA
ATOM      2  O   UNL     1      33.453 -15.962 -25.859  0.00  0.00    -0.245 OA
ATOM      3  C   UNL     1      34.188 -14.895 -23.859  0.00  0.00    +0.054 A 
ATOM      4  C   UNL     1      34.656 -15.040 -22.602  0.00  0.00    -0.016 A 
ATOM      5  C   UNL     1      34.953 -16.394 -22.090  0.00  0.00    +0.031 A 
ATOM      6  C   UNL     1      34.704 -17.493 -22.908  0.00  0.00    +0.151 A 
ATOM      7  C   UNL     1      33.912 -16.076 -24.726  0.00  0.00    +0.342 A 
ATOM      8  C   UNL     1      34.889 -13.889 -21.656  0.00  0.00    +0.031 C 
ATOM      9  C   UNL     1      35.486 -16.654 -20.818  0.00  0.00    +0.006 C 
ATOM     10  C   UNL     1      34.955 -18.806 -22.503  0.00  0.00    +0.076 C 
ATOM     11  C   UNL     1      35.479 -19.039 -21.236  0.00  0.00    +0.162 C 
ATOM     12  C   UNL     1      35.745 -17.964 -20.394  0.00  0.00    +0.039 C 
ENDROOT
BRANCH  11  13
ATOM     13  O   UNL     1      35.730 -20.310 -20.822  0.00  0.00    -0.392 OA
BRANCH  13  16
ATOM     14  N   UNL     1      35.360 -21.800 -19.078  0.00  0.00    -0.185 NA
ATOM     15  N   UNL     1      33.572 -20.455 -19.972  0.00  0.00    -0.162 NA
ATOM     16  C   UNL     1      34.849 -20.881 -19.918  0.00  0.00    +0.196 C 
ATOM     17  C   UNL     1      34.476 -22.336 -18.212  0.00  0.00    +0.167 C 
ATOM     18  C   UNL     1      32.742 -21.032 -19.079  0.00  0.00    +0.110 C 
ATOM     19  C   UNL     1      33.141 -21.986 -18.166  0.00  0.00    +0.022 C 
ENDBRANCH  13  16
ENDBRANCH  11  13
BRANCH   3  20
ATOM     20  C   UNL     1      33.906 -13.572 -24.526  0.00  0.00    +0.061 C 
BRANCH  20  24
ATOM     21  F   UNL     1      34.727 -10.855 -24.455  0.00  0.00    -0.202 F 
ATOM     22  N   UNL     1      33.651  -8.999 -22.666  0.00  0.00    -0.187 N 
ATOM     23  N   UNL     1      32.273 -10.697 -21.786  0.00  0.00    -0.226 NA
ATOM     24  C   UNL     1      33.337 -12.566 -23.569  0.00  0.00    +0.014 C 
ATOM     25  C   UNL     1      33.784 -11.249 -23.589  0.00  0.00    +0.169 C 
ATOM     26  C   UNL     1      32.358 -12.949 -22.659  0.00  0.00    +0.019 C 
ATOM     27  C   UNL     1      33.226 -10.362 -22.684  0.00  0.00    +0.175 C 
ATOM     28  C   UNL     1      31.862 -11.985 -21.797  0.00  0.00    +0.100 C 
ATOM     29  H   UNL     1      34.604  -8.761 -22.747  0.00  0.00    +0.176 HD
BRANCH  22  30
ATOM     30  S   UNL     1      32.432  -7.781 -22.497  0.00  0.00    +0.111 S 
ATOM     31  O   UNL     1      33.060  -6.486 -22.686  0.00  0.00    -0.138 OA
ATOM     32  O   UNL     1      31.271  -8.141 -23.290  0.00  0.00    -0.138 OA
BRANCH  30  33
ATOM     33  N   UNL     1      32.012  -7.943 -20.834  0.00  0.00    -0.165 NA
ATOM     34  C   UNL     1      32.997  -7.487 -19.829  0.00  0.00    +0.112 C 
ATOM     35  H   UNL     1      31.834  -8.932 -20.660  0.00  0.00    +0.150 HD
ENDBRANCH  30  33
ENDBRANCH  22  30
ENDBRANCH  20  24
ENDBRANCH   3  20
TORSDOF 6
ENDMDL
MODEL 9
REMARK VINA RESULT:     -11.0      3.828      6.192
REMARK  Name = 16719221
REMARK  6 active torsions:
REMARK  status: ('A' for Active; 'I' for Inactive)
REMARK    1  A    between atoms: C_3  and  C_20
REMARK    2  A    between atoms: C_11  and  O_13
REMARK    3  A    between atoms: O_13  and  C_16
REMARK    4  A    between atoms: C_20  and  C_24
REMARK    5  A    between atoms: N_22  and  S_30
REMARK    6  A    between atoms: S_30  and  N_33
REMARK                            x       y       z     vdW  Elec       q    Type
REMARK                         _______ _______ _______ _____ _____    ______ ____
ROOT
ATOM      1  O   UNL     1      34.107 -14.776 -20.367  0.00  0.00    -0.421 OA
ATOM      2  O   UNL     1      32.787 -12.930 -20.317  0.00  0.00    -0.245 OA
ATOM      3  C   UNL     1      33.200 -13.873 -22.466  0.00  0.00    +0.054 A 
ATOM      4  C   UNL     1      33.837 -14.822 -23.186  0.00  0.00    -0.016 A 
ATOM      5  C   UNL     1      34.637 -15.848 -22.486  0.00  0.00    +0.031 A 
ATOM      6  C   UNL     1      34.746 -15.788 -21.100  0.00  0.00    +0.151 A 
ATOM      7  C   UNL     1      33.331 -13.807 -20.982  0.00  0.00    +0.342 A 
ATOM      8  C   UNL     1      33.798 -14.897 -24.692  0.00  0.00    +0.031 C 
ATOM      9  C   UNL     1      35.299 -16.903 -23.133  0.00  0.00    +0.006 C 
ATOM     10  C   UNL     1      35.482 -16.718 -20.361  0.00  0.00    +0.076 C 
ATOM     11  C   UNL     1      36.134 -17.752 -21.024  0.00  0.00    +0.162 C 
ATOM     12  C   UNL     1      36.041 -17.845 -22.409  0.00  0.00    +0.039 C 
ENDROOT
BRANCH  11  13
ATOM     13  O   UNL     1      36.856 -18.666 -20.324  0.00  0.00    -0.392 OA
BRANCH  13  16
ATOM     14  N   UNL     1      34.892 -19.897 -20.146  0.00  0.00    -0.185 NA
ATOM     15  N   UNL     1      36.869 -20.511 -18.912  0.00  0.00    -0.162 NA
ATOM     16  C   UNL     1      36.175 -19.738 -19.769  0.00  0.00    +0.196 C 
ATOM     17  C   UNL     1      34.260 -20.950 -19.587  0.00  0.00    +0.167 C 
ATOM     18  C   UNL     1      36.176 -21.545 -18.391  0.00  0.00    +0.110 C 
ATOM     19  C   UNL     1      34.858 -21.817 -18.694  0.00  0.00    +0.022 C 
ENDBRANCH  13  16
ENDBRANCH  11  13
BRANCH   3  20
ATOM     20  C   UNL     1      32.303 -12.809 -23.046  0.00  0.00    +0.061 C 
BRANCH  20  24
ATOM     21  F   UNL     1      31.132 -10.513 -21.855  0.00  0.00    -0.202 F 
ATOM     22  N   UNL     1      32.368  -8.008 -21.872  0.00  0.00    -0.187 N 
ATOM     23  N   UNL     1      34.178  -8.946 -23.057  0.00  0.00    -0.226 NA
ATOM     24  C   UNL     1      32.956 -11.459 -23.049  0.00  0.00    +0.014 C 
ATOM     25  C   UNL     1      32.327 -10.375 -22.446  0.00  0.00    +0.169 C 
ATOM     26  C   UNL     1      34.196 -11.288 -23.655  0.00  0.00    +0.019 C 
ATOM     27  C   UNL     1      32.973  -9.151 -22.478  0.00  0.00    +0.175 C 
ATOM     28  C   UNL     1      34.759 -10.022 -23.632  0.00  0.00    +0.100 C 
ATOM     29  H   UNL     1      31.406  -7.824 -21.977  0.00  0.00    +0.176 HD
BRANCH  22  30
ATOM     30  S   UNL     1      33.387  -6.958 -20.946  0.00  0.00    +0.111 S 
ATOM     31  O   UNL     1      33.399  -7.435 -19.575  0.00  0.00    -0.138 OA
ATOM     32  O   UNL     1      34.641  -6.754 -21.647  0.00  0.00    -0.138 OA
BRANCH  30  33
ATOM     33  N   UNL     1      32.502  -5.482 -21.000  0.00  0.00    -0.165 NA
ATOM     34  C   UNL     1      31.086  -5.545 -21.425  0.00  0.00    +0.112 C 
ATOM     35  H   UNL     1      32.986  -4.859 -21.647  0.00  0.00    +0.150 HD
ENDBRANCH  30  33
ENDBRANCH  22  30
ENDBRANCH  20  24
ENDBRANCH   3  20
TORSDOF 6
ENDMDL
