MODEL 1
REMARK VINA RESULT:     -12.4      0.000      0.000
REMARK  Name = 11677589
REMARK  7 active torsions:
REMARK  status: ('A' for Active; 'I' for Inactive)
REMARK    1  A    between atoms: C_1  and  N_7
REMARK    2  A    between atoms: C_2  and  C_20
REMARK    3  A    between atoms: C_11  and  C_18
REMARK    4  A    between atoms: C_20  and  C_21
REMARK    5  A    between atoms: C_21  and  N_23
REMARK    6  A    between atoms: N_24  and  S_28
REMARK    7  A    between atoms: S_28  and  C_31
REMARK                            x       y       z     vdW  Elec       q    Type
REMARK                         _______ _______ _______ _____ _____    ______ ____
ROOT
ATOM      1  C   UNL     1      34.446 -22.445 -17.023  0.00  0.00    +0.058 C 
ATOM      2  C   UNL     1      35.476 -21.015 -19.169  0.00  0.00    -0.020 C 
ATOM      3  C   UNL     1      33.613 -22.099 -18.079  0.00  0.00    +0.015 C 
ATOM      4  C   UNL     1      35.788 -22.086 -17.026  0.00  0.00    +0.015 C 
ATOM      5  C   UNL     1      34.130 -21.380 -19.156  0.00  0.00    -0.003 C 
ATOM      6  C   UNL     1      36.305 -21.367 -18.104  0.00  0.00    -0.003 C 
ENDROOT
BRANCH   1   7
ATOM      7  N   UNL     1      33.929 -23.164 -15.944  0.00  0.00    -0.242 N 
ATOM      8  N   UNL     1      33.882 -24.437 -14.122  0.00  0.00    -0.387 NA
ATOM      9  N   UNL     1      30.222 -23.963 -14.443  0.00  0.00    -0.408 NA
ATOM     10  C   UNL     1      32.603 -23.297 -15.625  0.00  0.00    +0.091 C 
ATOM     11  C   UNL     1      34.654 -23.862 -15.018  0.00  0.00    +0.168 C 
ATOM     12  C   UNL     1      32.601 -24.095 -14.485  0.00  0.00    +0.172 C 
ATOM     13  C   UNL     1      31.444 -22.808 -16.210  0.00  0.00    +0.045 C 
ATOM     14  C   UNL     1      31.377 -24.422 -13.900  0.00  0.00    +0.140 C 
ATOM     15  C   UNL     1      30.282 -23.189 -15.554  0.00  0.00    +0.110 C 
ATOM     16  C   UNL     1      31.257 -25.269 -12.678  0.00  0.00    +0.069 C 
ATOM     17  C   UNL     1      28.971 -22.720 -16.096  0.00  0.00    +0.066 C 
BRANCH  11  18
ATOM     18  C   UNL     1      36.130 -23.939 -15.053  0.00  0.00    +0.075 C 
ATOM     19  C   UNL     1      36.676 -25.159 -14.304  0.00  0.00    +0.009 C 
ENDBRANCH  11  18
ENDBRANCH   1   7
BRANCH   2  20
ATOM     20  C   UNL     1      36.029 -20.246 -20.321  0.00  0.00    +0.048 C 
BRANCH  20  21
ATOM     21  C   UNL     1      35.022 -20.039 -21.459  0.00  0.00    +0.096 C 
BRANCH  21  23
ATOM     22  O   UNL     1      34.291 -19.048 -24.054  0.00  0.00    -0.251 OA
ATOM     23  N   UNL     1      34.934 -18.662 -21.866  0.00  0.00    -0.287 N 
ATOM     24  N   UNL     1      34.560 -16.850 -23.308  0.00  0.00    -0.169 N 
ATOM     25  C   UNL     1      34.571 -18.272 -23.145  0.00  0.00    +0.319 C 
ATOM     26  H   UNL     1      35.141 -17.963 -21.204  0.00  0.00    +0.151 HD
ATOM     27  H   UNL     1      34.802 -16.304 -22.526  0.00  0.00    +0.178 HD
BRANCH  24  28
ATOM     28  S   UNL     1      34.161 -16.023 -24.750  0.00  0.00    +0.077 S 
ATOM     29  O   UNL     1      35.331 -15.953 -25.603  0.00  0.00    -0.150 OA
ATOM     30  O   UNL     1      32.905 -16.535 -25.264  0.00  0.00    -0.150 OA
BRANCH  28  31
ATOM     31  C   UNL     1      33.834 -14.400 -24.129  0.00  0.00    +0.125 C 
ATOM     32  C   UNL     1      33.891 -14.173 -22.765  0.00  0.00    +0.020 C 
ATOM     33  C   UNL     1      33.528 -13.386 -25.020  0.00  0.00    +0.020 C 
ATOM     34  C   UNL     1      33.323 -11.858 -23.159  0.00  0.00    -0.022 C 
ATOM     35  C   UNL     1      33.634 -12.892 -22.276  0.00  0.00    -0.003 C 
ATOM     36  C   UNL     1      33.270 -12.105 -24.531  0.00  0.00    -0.003 C 
ATOM     37  C   UNL     1      33.050 -10.489 -22.636  0.00  0.00    +0.031 C 
ENDBRANCH  28  31
ENDBRANCH  24  28
ENDBRANCH  21  23
ENDBRANCH  20  21
ENDBRANCH   2  20
TORSDOF 7
ENDMDL
MODEL 2
REMARK VINA RESULT:     -12.2      1.499      3.667
REMARK  Name = 11677589
REMARK  7 active torsions:
REMARK  status: ('A' for Active; 'I' for Inactive)
REMARK    1  A    between atoms: C_1  and  N_7
REMARK    2  A    between atoms: C_2  and  C_20
REMARK    3  A    between atoms: C_11  and  C_18
REMARK    4  A    between atoms: C_20  and  C_21
REMARK    5  A    between atoms: C_21  and  N_23
REMARK    6  A    between atoms: N_24  and  S_28
REMARK    7  A    between atoms: S_28  and  C_31
REMARK                            x       y       z     vdW  Elec       q    Type
REMARK                         _______ _______ _______ _____ _____    ______ ____
ROOT
ATOM      1  C   UNL     1      34.994 -22.692 -16.420  0.00  0.00    +0.058 C 
ATOM      2  C   UNL     1      34.811 -21.489 -18.915  0.00  0.00    -0.020 C 
ATOM      3  C   UNL     1      33.812 -22.790 -17.142  0.00  0.00    +0.015 C 
ATOM      4  C   UNL     1      36.086 -22.000 -16.928  0.00  0.00    +0.015 C 
ATOM      5  C   UNL     1      33.720 -22.185 -18.396  0.00  0.00    -0.003 C 
ATOM      6  C   UNL     1      35.994 -21.395 -18.182  0.00  0.00    -0.003 C 
ENDROOT
BRANCH   1   7
ATOM      7  N   UNL     1      35.087 -23.296 -15.165  0.00  0.00    -0.242 N 
ATOM      8  N   UNL     1      34.468 -24.055 -13.169  0.00  0.00    -0.387 NA
ATOM      9  N   UNL     1      38.023 -25.077 -12.964  0.00  0.00    -0.408 NA
ATOM     10  C   UNL     1      36.216 -23.845 -14.616  0.00  0.00    +0.091 C 
ATOM     11  C   UNL     1      34.069 -23.447 -14.264  0.00  0.00    +0.168 C 
ATOM     12  C   UNL     1      35.804 -24.311 -13.371  0.00  0.00    +0.172 C 
ATOM     13  C   UNL     1      37.519 -23.971 -15.079  0.00  0.00    +0.045 C 
ATOM     14  C   UNL     1      36.740 -24.936 -12.547  0.00  0.00    +0.140 C 
ATOM     15  C   UNL     1      38.371 -24.605 -14.186  0.00  0.00    +0.110 C 
ATOM     16  C   UNL     1      36.409 -25.472 -11.195  0.00  0.00    +0.069 C 
ATOM     17  C   UNL     1      39.800 -24.796 -14.579  0.00  0.00    +0.066 C 
BRANCH  11  18
ATOM     18  C   UNL     1      32.695 -22.967 -14.525  0.00  0.00    +0.075 C 
ATOM     19  C   UNL     1      31.788 -23.074 -13.295  0.00  0.00    +0.009 C 
ENDBRANCH  11  18
ENDBRANCH   1   7
BRANCH   2  20
ATOM     20  C   UNL     1      34.712 -20.841 -20.256  0.00  0.00    +0.048 C 
BRANCH  20  21
ATOM     21  C   UNL     1      35.839 -19.840 -20.537  0.00  0.00    +0.096 C 
BRANCH  21  23
ATOM     22  O   UNL     1      35.127 -19.451 -23.293  0.00  0.00    -0.251 OA
ATOM     23  N   UNL     1      35.355 -18.629 -21.143  0.00  0.00    -0.287 N 
ATOM     24  N   UNL     1      34.580 -17.223 -22.853  0.00  0.00    -0.169 N 
ATOM     25  C   UNL     1      35.034 -18.530 -22.487  0.00  0.00    +0.319 C 
ATOM     26  H   UNL     1      35.247 -17.832 -20.576  0.00  0.00    +0.151 HD
ATOM     27  H   UNL     1      34.541 -16.543 -22.142  0.00  0.00    +0.178 HD
BRANCH  24  28
ATOM     28  S   UNL     1      34.102 -16.746 -24.423  0.00  0.00    +0.077 S 
ATOM     29  O   UNL     1      35.186 -16.997 -25.353  0.00  0.00    -0.150 OA
ATOM     30  O   UNL     1      32.769 -17.252 -24.693  0.00  0.00    -0.150 OA
BRANCH  28  31
ATOM     31  C   UNL     1      33.951 -14.997 -24.214  0.00  0.00    +0.125 C 
ATOM     32  C   UNL     1      33.417 -14.237 -25.240  0.00  0.00    +0.020 C 
ATOM     33  C   UNL     1      34.370 -14.420 -23.028  0.00  0.00    +0.020 C 
ATOM     34  C   UNL     1      33.715 -12.258 -23.886  0.00  0.00    -0.022 C 
ATOM     35  C   UNL     1      33.298 -12.857 -25.074  0.00  0.00    -0.003 C 
ATOM     36  C   UNL     1      34.251 -13.040 -22.862  0.00  0.00    -0.003 C 
ATOM     37  C   UNL     1      33.586 -10.784 -23.709  0.00  0.00    +0.031 C 
ENDBRANCH  28  31
ENDBRANCH  24  28
ENDBRANCH  21  23
ENDBRANCH  20  21
ENDBRANCH   2  20
TORSDOF 7
ENDMDL
MODEL 3
REMARK VINA RESULT:     -12.2      3.568     12.363
REMARK  Name = 11677589
REMARK  7 active torsions:
REMARK  status: ('A' for Active; 'I' for Inactive)
REMARK    1  A    between atoms: C_1  and  N_7
REMARK    2  A    between atoms: C_2  and  C_20
REMARK    3  A    between atoms: C_11  and  C_18
REMARK    4  A    between atoms: C_20  and  C_21
REMARK    5  A    between atoms: C_21  and  N_23
REMARK    6  A    between atoms: N_24  and  S_28
REMARK    7  A    between atoms: S_28  and  C_31
REMARK                            x       y       z     vdW  Elec       q    Type
REMARK                         _______ _______ _______ _____ _____    ______ ____
ROOT
ATOM      1  C   UNL     1      33.791 -12.777 -23.213  0.00  0.00    +0.058 C 
ATOM      2  C   UNL     1      34.328 -15.502 -23.208  0.00  0.00    -0.020 C 
ATOM      3  C   UNL     1      34.575 -13.319 -22.203  0.00  0.00    +0.015 C 
ATOM      4  C   UNL     1      33.272 -13.579 -24.221  0.00  0.00    +0.015 C 
ATOM      5  C   UNL     1      34.844 -14.688 -22.201  0.00  0.00    -0.003 C 
ATOM      6  C   UNL     1      33.541 -14.948 -24.219  0.00  0.00    -0.003 C 
ENDROOT
BRANCH   1   7
ATOM      7  N   UNL     1      33.521 -11.408 -23.216  0.00  0.00    -0.242 N 
ATOM      8  N   UNL     1      33.516  -9.289 -23.888  0.00  0.00    -0.387 NA
ATOM      9  N   UNL     1      31.522  -8.795 -20.805  0.00  0.00    -0.408 NA
ATOM     10  C   UNL     1      32.803 -10.725 -22.269  0.00  0.00    +0.091 C 
ATOM     11  C   UNL     1      33.925 -10.507 -24.162  0.00  0.00    +0.168 C 
ATOM     12  C   UNL     1      32.815  -9.406 -22.711  0.00  0.00    +0.172 C 
ATOM     13  C   UNL     1      32.166 -11.129 -21.103  0.00  0.00    +0.045 C 
ATOM     14  C   UNL     1      32.156  -8.440 -21.950  0.00  0.00    +0.140 C 
ATOM     15  C   UNL     1      31.542 -10.095 -20.420  0.00  0.00    +0.110 C 
ATOM     16  C   UNL     1      32.104  -6.998 -22.329  0.00  0.00    +0.069 C 
ATOM     17  C   UNL     1      30.823 -10.412 -19.149  0.00  0.00    +0.066 C 
BRANCH  11  18
ATOM     18  C   UNL     1      34.728 -10.896 -25.342  0.00  0.00    +0.075 C 
ATOM     19  C   UNL     1      35.859  -9.906 -25.638  0.00  0.00    +0.009 C 
ENDBRANCH  11  18
ENDBRANCH   1   7
BRANCH   2  20
ATOM     20  C   UNL     1      34.615 -16.965 -23.205  0.00  0.00    +0.048 C 
BRANCH  20  21
ATOM     21  C   UNL     1      35.747 -17.365 -22.251  0.00  0.00    +0.096 C 
BRANCH  21  23
ATOM     22  O   UNL     1      37.467 -18.925 -20.560  0.00  0.00    -0.251 OA
ATOM     23  N   UNL     1      35.352 -18.407 -21.342  0.00  0.00    -0.287 N 
ATOM     24  N   UNL     1      35.621 -20.102 -19.742  0.00  0.00    -0.169 N 
ATOM     25  C   UNL     1      36.254 -19.112 -20.560  0.00  0.00    +0.319 C 
ATOM     26  H   UNL     1      34.397 -18.632 -21.273  0.00  0.00    +0.151 HD
ATOM     27  H   UNL     1      34.643 -20.186 -19.810  0.00  0.00    +0.178 HD
BRANCH  24  28
ATOM     28  S   UNL     1      36.426 -21.150 -18.658  0.00  0.00    +0.077 S 
ATOM     29  O   UNL     1      37.103 -22.190 -19.409  0.00  0.00    -0.150 OA
ATOM     30  O   UNL     1      37.148 -20.362 -17.677  0.00  0.00    -0.150 OA
BRANCH  28  31
ATOM     31  C   UNL     1      35.056 -21.882 -17.815  0.00  0.00    +0.125 C 
ATOM     32  C   UNL     1      33.797 -21.816 -18.387  0.00  0.00    +0.020 C 
ATOM     33  C   UNL     1      35.267 -22.508 -16.599  0.00  0.00    +0.020 C 
ATOM     34  C   UNL     1      32.910 -23.030 -16.495  0.00  0.00    -0.022 C 
ATOM     35  C   UNL     1      32.715 -22.395 -17.721  0.00  0.00    -0.003 C 
ATOM     36  C   UNL     1      34.186 -23.087 -15.934  0.00  0.00    -0.003 C 
ATOM     37  C   UNL     1      31.755 -23.649 -15.785  0.00  0.00    +0.031 C 
ENDBRANCH  28  31
ENDBRANCH  24  28
ENDBRANCH  21  23
ENDBRANCH  20  21
ENDBRANCH   2  20
TORSDOF 7
ENDMDL
MODEL 4
REMARK VINA RESULT:     -12.1      1.478      1.883
REMARK  Name = 11677589
REMARK  7 active torsions:
REMARK  status: ('A' for Active; 'I' for Inactive)
REMARK    1  A    between atoms: C_1  and  N_7
REMARK    2  A    between atoms: C_2  and  C_20
REMARK    3  A    between atoms: C_11  and  C_18
REMARK    4  A    between atoms: C_20  and  C_21
REMARK    5  A    between atoms: C_21  and  N_23
REMARK    6  A    between atoms: N_24  and  S_28
REMARK    7  A    between atoms: S_28  and  C_31
REMARK                            x       y       z     vdW  Elec       q    Type
REMARK                         _______ _______ _______ _____ _____    ______ ____
ROOT
ATOM      1  C   UNL     1      34.020 -22.264 -17.406  0.00  0.00    +0.058 C 
ATOM      2  C   UNL     1      34.856 -20.872 -19.658  0.00  0.00    -0.020 C 
ATOM      3  C   UNL     1      33.079 -21.822 -18.327  0.00  0.00    +0.015 C 
ATOM      4  C   UNL     1      35.374 -22.019 -17.596  0.00  0.00    +0.015 C 
ATOM      5  C   UNL     1      33.499 -21.123 -19.458  0.00  0.00    -0.003 C 
ATOM      6  C   UNL     1      35.794 -21.320 -18.727  0.00  0.00    -0.003 C 
ENDROOT
BRANCH   1   7
ATOM      7  N   UNL     1      33.600 -22.963 -16.273  0.00  0.00    -0.242 N 
ATOM      8  N   UNL     1      33.718 -24.149 -14.396  0.00  0.00    -0.387 NA
ATOM      9  N   UNL     1      30.024 -23.931 -14.566  0.00  0.00    -0.408 NA
ATOM     10  C   UNL     1      32.301 -23.167 -15.886  0.00  0.00    +0.091 C 
ATOM     11  C   UNL     1      34.409 -23.568 -15.351  0.00  0.00    +0.168 C 
ATOM     12  C   UNL     1      32.402 -23.909 -14.713  0.00  0.00    +0.172 C 
ATOM     13  C   UNL     1      31.087 -22.783 -16.438  0.00  0.00    +0.045 C 
ATOM     14  C   UNL     1      31.230 -24.287 -14.058  0.00  0.00    +0.140 C 
ATOM     15  C   UNL     1      29.983 -23.207 -15.712  0.00  0.00    +0.110 C 
ATOM     16  C   UNL     1      31.221 -25.082 -12.796  0.00  0.00    +0.069 C 
ATOM     17  C   UNL     1      28.621 -22.851 -16.212  0.00  0.00    +0.066 C 
BRANCH  11  18
ATOM     18  C   UNL     1      35.885 -23.550 -15.452  0.00  0.00    +0.075 C 
ATOM     19  C   UNL     1      36.553 -24.565 -14.518  0.00  0.00    +0.009 C 
ENDBRANCH  11  18
ENDBRANCH   1   7
BRANCH   2  20
ATOM     20  C   UNL     1      35.306 -20.124 -20.868  0.00  0.00    +0.048 C 
BRANCH  20  21
ATOM     21  C   UNL     1      36.226 -18.940 -20.549  0.00  0.00    +0.096 C 
BRANCH  21  23
ATOM     22  O   UNL     1      35.755 -17.357 -22.900  0.00  0.00    -0.251 OA
ATOM     23  N   UNL     1      35.537 -17.679 -20.620  0.00  0.00    -0.287 N 
ATOM     24  N   UNL     1      34.645 -15.751 -21.615  0.00  0.00    -0.169 N 
ATOM     25  C   UNL     1      35.355 -16.981 -21.802  0.00  0.00    +0.319 C 
ATOM     26  H   UNL     1      35.179 -17.293 -19.788  0.00  0.00    +0.151 HD
ATOM     27  H   UNL     1      34.366 -15.526 -20.699  0.00  0.00    +0.178 HD
BRANCH  24  28
ATOM     28  S   UNL     1      34.246 -14.642 -22.853  0.00  0.00    +0.077 S 
ATOM     29  O   UNL     1      35.458 -14.017 -23.347  0.00  0.00    -0.150 OA
ATOM     30  O   UNL     1      33.313 -15.266 -23.772  0.00  0.00    -0.150 OA
BRANCH  28  31
ATOM     31  C   UNL     1      33.335 -13.433 -21.942  0.00  0.00    +0.125 C 
ATOM     32  C   UNL     1      33.046 -12.215 -22.535  0.00  0.00    +0.020 C 
ATOM     33  C   UNL     1      32.927 -13.724 -20.652  0.00  0.00    +0.020 C 
ATOM     34  C   UNL     1      31.907 -11.538 -20.515  0.00  0.00    -0.022 C 
ATOM     35  C   UNL     1      32.326 -11.261 -21.815  0.00  0.00    -0.003 C 
ATOM     36  C   UNL     1      32.207 -12.770 -19.933  0.00  0.00    -0.003 C 
ATOM     37  C   UNL     1      31.137 -10.518 -19.747  0.00  0.00    +0.031 C 
ENDBRANCH  28  31
ENDBRANCH  24  28
ENDBRANCH  21  23
ENDBRANCH  20  21
ENDBRANCH   2  20
TORSDOF 7
ENDMDL
MODEL 5
REMARK VINA RESULT:     -12.0      3.593     12.161
REMARK  Name = 11677589
REMARK  7 active torsions:
REMARK  status: ('A' for Active; 'I' for Inactive)
REMARK    1  A    between atoms: C_1  and  N_7
REMARK    2  A    between atoms: C_2  and  C_20
REMARK    3  A    between atoms: C_11  and  C_18
REMARK    4  A    between atoms: C_20  and  C_21
REMARK    5  A    between atoms: C_21  and  N_23
REMARK    6  A    between atoms: N_24  and  S_28
REMARK    7  A    between atoms: S_28  and  C_31
REMARK                            x       y       z     vdW  Elec       q    Type
REMARK                         _______ _______ _______ _____ _____    ______ ____
ROOT
ATOM      1  C   UNL     1      34.051 -13.611 -22.354  0.00  0.00    +0.058 C 
ATOM      2  C   UNL     1      35.069 -16.106 -21.683  0.00  0.00    -0.020 C 
ATOM      3  C   UNL     1      34.419 -13.870 -21.040  0.00  0.00    +0.015 C 
ATOM      4  C   UNL     1      34.185 -14.583 -23.337  0.00  0.00    +0.015 C 
ATOM      5  C   UNL     1      34.931 -15.123 -20.703  0.00  0.00    -0.003 C 
ATOM      6  C   UNL     1      34.696 -15.836 -23.000  0.00  0.00    -0.003 C 
ENDROOT
BRANCH   1   7
ATOM      7  N   UNL     1      33.538 -12.358 -22.692  0.00  0.00    -0.242 N 
ATOM      8  N   UNL     1      33.029 -10.581 -23.928  0.00  0.00    -0.387 NA
ATOM      9  N   UNL     1      31.549  -9.370 -20.755  0.00  0.00    -0.408 NA
ATOM     10  C   UNL     1      32.884 -11.499 -21.847  0.00  0.00    +0.091 C 
ATOM     11  C   UNL     1      33.599 -11.765 -23.923  0.00  0.00    +0.168 C 
ATOM     12  C   UNL     1      32.577 -10.399 -22.642  0.00  0.00    +0.172 C 
ATOM     13  C   UNL     1      32.546 -11.582 -20.503  0.00  0.00    +0.045 C 
ATOM     14  C   UNL     1      31.896  -9.326 -22.065  0.00  0.00    +0.140 C 
ATOM     15  C   UNL     1      31.873 -10.466 -20.026  0.00  0.00    +0.110 C 
ATOM     16  C   UNL     1      31.517  -8.099 -22.822  0.00  0.00    +0.069 C 
ATOM     17  C   UNL     1      31.457 -10.444 -18.591  0.00  0.00    +0.066 C 
BRANCH  11  18
ATOM     18  C   UNL     1      34.241 -12.412 -25.088  0.00  0.00    +0.075 C 
ATOM     19  C   UNL     1      33.277 -12.600 -26.264  0.00  0.00    +0.009 C 
ENDBRANCH  11  18
ENDBRANCH   1   7
BRANCH   2  20
ATOM     20  C   UNL     1      35.616 -17.446 -21.323  0.00  0.00    +0.048 C 
BRANCH  20  21
ATOM     21  C   UNL     1      34.553 -18.550 -21.281  0.00  0.00    +0.096 C 
BRANCH  21  23
ATOM     22  O   UNL     1      32.766 -20.551 -20.255  0.00  0.00    -0.251 OA
ATOM     23  N   UNL     1      34.858 -19.565 -20.309  0.00  0.00    -0.287 N 
ATOM     24  N   UNL     1      34.468 -21.397 -18.896  0.00  0.00    -0.169 N 
ATOM     25  C   UNL     1      33.930 -20.495 -19.868  0.00  0.00    +0.319 C 
ATOM     26  H   UNL     1      35.768 -19.601 -19.938  0.00  0.00    +0.151 HD
ATOM     27  H   UNL     1      35.411 -21.276 -18.641  0.00  0.00    +0.178 HD
BRANCH  24  28
ATOM     28  S   UNL     1      33.607 -22.666 -18.141  0.00  0.00    +0.077 S 
ATOM     29  O   UNL     1      32.261 -22.219 -17.837  0.00  0.00    -0.150 OA
ATOM     30  O   UNL     1      33.825 -23.897 -18.877  0.00  0.00    -0.150 OA
BRANCH  28  31
ATOM     31  C   UNL     1      34.494 -22.818 -16.620  0.00  0.00    +0.125 C 
ATOM     32  C   UNL     1      33.863 -23.377 -15.522  0.00  0.00    +0.020 C 
ATOM     33  C   UNL     1      35.804 -22.375 -16.554  0.00  0.00    +0.020 C 
ATOM     34  C   UNL     1      35.884 -23.055 -14.237  0.00  0.00    -0.022 C 
ATOM     35  C   UNL     1      34.564 -23.496 -14.321  0.00  0.00    -0.003 C 
ATOM     36  C   UNL     1      36.504 -22.495 -15.354  0.00  0.00    -0.003 C 
ATOM     37  C   UNL     1      36.632 -23.185 -12.955  0.00  0.00    +0.031 C 
ENDBRANCH  28  31
ENDBRANCH  24  28
ENDBRANCH  21  23
ENDBRANCH  20  21
ENDBRANCH   2  20
TORSDOF 7
ENDMDL
MODEL 6
REMARK VINA RESULT:     -11.9      1.456      2.148
REMARK  Name = 11677589
REMARK  7 active torsions:
REMARK  status: ('A' for Active; 'I' for Inactive)
REMARK    1  A    between atoms: C_1  and  N_7
REMARK    2  A    between atoms: C_2  and  C_20
REMARK    3  A    between atoms: C_11  and  C_18
REMARK    4  A    between atoms: C_20  and  C_21
REMARK    5  A    between atoms: C_21  and  N_23
REMARK    6  A    between atoms: N_24  and  S_28
REMARK    7  A    between atoms: S_28  and  C_31
REMARK                            x       y       z     vdW  Elec       q    Type
REMARK                         _______ _______ _______ _____ _____    ______ ____
ROOT
ATOM      1  C   UNL     1      35.608 -22.360 -16.684  0.00  0.00    +0.058 C 
ATOM      2  C   UNL     1      35.253 -21.181 -19.172  0.00  0.00    -0.020 C 
ATOM      3  C   UNL     1      36.604 -21.544 -17.203  0.00  0.00    +0.015 C 
ATOM      4  C   UNL     1      34.436 -22.595 -17.392  0.00  0.00    +0.015 C 
ATOM      5  C   UNL     1      36.426 -20.952 -18.454  0.00  0.00    -0.003 C 
ATOM      6  C   UNL     1      34.258 -22.003 -18.642  0.00  0.00    -0.003 C 
ENDROOT
BRANCH   1   7
ATOM      7  N   UNL     1      35.785 -22.953 -15.433  0.00  0.00    -0.242 N 
ATOM      8  N   UNL     1      36.819 -23.880 -13.696  0.00  0.00    -0.387 NA
ATOM      9  N   UNL     1      33.380 -24.063 -12.331  0.00  0.00    -0.408 NA
ATOM     10  C   UNL     1      34.796 -23.239 -14.528  0.00  0.00    +0.091 C 
ATOM     11  C   UNL     1      36.975 -23.354 -14.890  0.00  0.00    +0.168 C 
ATOM     12  C   UNL     1      35.467 -23.817 -13.454  0.00  0.00    +0.172 C 
ATOM     13  C   UNL     1      33.421 -23.052 -14.552  0.00  0.00    +0.045 C 
ATOM     14  C   UNL     1      34.726 -24.228 -12.346  0.00  0.00    +0.140 C 
ATOM     15  C   UNL     1      32.777 -23.494 -13.404  0.00  0.00    +0.110 C 
ATOM     16  C   UNL     1      35.340 -24.858 -11.142  0.00  0.00    +0.069 C 
ATOM     17  C   UNL     1      31.293 -23.343 -13.317  0.00  0.00    +0.066 C 
BRANCH  11  18
ATOM     18  C   UNL     1      38.266 -23.199 -15.596  0.00  0.00    +0.075 C 
ATOM     19  C   UNL     1      39.340 -24.162 -15.081  0.00  0.00    +0.009 C 
ENDBRANCH  11  18
ENDBRANCH   1   7
BRANCH   2  20
ATOM     20  C   UNL     1      35.063 -20.548 -20.510  0.00  0.00    +0.048 C 
BRANCH  20  21
ATOM     21  C   UNL     1      36.108 -19.475 -20.834  0.00  0.00    +0.096 C 
BRANCH  21  23
ATOM     22  O   UNL     1      35.299 -19.027 -23.553  0.00  0.00    -0.251 OA
ATOM     23  N   UNL     1      35.516 -18.281 -21.374  0.00  0.00    -0.287 N 
ATOM     24  N   UNL     1      34.590 -16.869 -23.003  0.00  0.00    -0.169 N 
ATOM     25  C   UNL     1      35.154 -18.151 -22.706  0.00  0.00    +0.319 C 
ATOM     26  H   UNL     1      35.360 -17.519 -20.770  0.00  0.00    +0.151 HD
ATOM     27  H   UNL     1      34.516 -16.225 -22.262  0.00  0.00    +0.178 HD
BRANCH  24  28
ATOM     28  S   UNL     1      34.036 -16.366 -24.540  0.00  0.00    +0.077 S 
ATOM     29  O   UNL     1      35.075 -16.598 -25.525  0.00  0.00    -0.150 OA
ATOM     30  O   UNL     1      32.693 -16.871 -24.754  0.00  0.00    -0.150 OA
BRANCH  28  31
ATOM     31  C   UNL     1      33.892 -14.622 -24.293  0.00  0.00    +0.125 C 
ATOM     32  C   UNL     1      34.197 -14.087 -23.053  0.00  0.00    +0.020 C 
ATOM     33  C   UNL     1      33.476 -13.822 -25.343  0.00  0.00    +0.020 C 
ATOM     34  C   UNL     1      33.666 -11.890 -23.906  0.00  0.00    -0.022 C 
ATOM     35  C   UNL     1      34.084 -12.710 -22.858  0.00  0.00    -0.003 C 
ATOM     36  C   UNL     1      33.363 -12.445 -25.149  0.00  0.00    -0.003 C 
ATOM     37  C   UNL     1      33.546 -10.418 -23.698  0.00  0.00    +0.031 C 
ENDBRANCH  28  31
ENDBRANCH  24  28
ENDBRANCH  21  23
ENDBRANCH  20  21
ENDBRANCH   2  20
TORSDOF 7
ENDMDL
MODEL 7
REMARK VINA RESULT:     -11.8      4.444     13.661
REMARK  Name = 11677589
REMARK  7 active torsions:
REMARK  status: ('A' for Active; 'I' for Inactive)
REMARK    1  A    between atoms: C_1  and  N_7
REMARK    2  A    between atoms: C_2  and  C_20
REMARK    3  A    between atoms: C_11  and  C_18
REMARK    4  A    between atoms: C_20  and  C_21
REMARK    5  A    between atoms: C_21  and  N_23
REMARK    6  A    between atoms: N_24  and  S_28
REMARK    7  A    between atoms: S_28  and  C_31
REMARK                            x       y       z     vdW  Elec       q    Type
REMARK                         _______ _______ _______ _____ _____    ______ ____
ROOT
ATOM      1  C   UNL     1      32.981  -9.380 -22.413  0.00  0.00    +0.058 C 
ATOM      2  C   UNL     1      33.861 -11.860 -23.299  0.00  0.00    -0.020 C 
ATOM      3  C   UNL     1      32.304 -10.527 -22.021  0.00  0.00    +0.015 C 
ATOM      4  C   UNL     1      34.093  -9.456 -23.242  0.00  0.00    +0.015 C 
ATOM      5  C   UNL     1      32.746 -11.773 -22.466  0.00  0.00    -0.003 C 
ATOM      6  C   UNL     1      34.535 -10.702 -23.688  0.00  0.00    -0.003 C 
ENDROOT
BRANCH   1   7
ATOM      7  N   UNL     1      32.540  -8.132 -21.969  0.00  0.00    -0.242 N 
ATOM      8  N   UNL     1      31.567  -6.608 -20.675  0.00  0.00    -0.387 NA
ATOM      9  N   UNL     1      32.730  -4.288 -23.318  0.00  0.00    -0.408 NA
ATOM     10  C   UNL     1      32.726  -6.935 -22.610  0.00  0.00    +0.091 C 
ATOM     11  C   UNL     1      31.843  -7.885 -20.818  0.00  0.00    +0.168 C 
ATOM     12  C   UNL     1      32.110  -6.001 -21.782  0.00  0.00    +0.172 C 
ATOM     13  C   UNL     1      33.356  -6.597 -23.799  0.00  0.00    +0.045 C 
ATOM     14  C   UNL     1      32.125  -4.659 -22.162  0.00  0.00    +0.140 C 
ATOM     15  C   UNL     1      33.315  -5.239 -24.087  0.00  0.00    +0.110 C 
ATOM     16  C   UNL     1      31.497  -3.574 -21.353  0.00  0.00    +0.069 C 
ATOM     17  C   UNL     1      33.962  -4.758 -25.345  0.00  0.00    +0.066 C 
BRANCH  11  18
ATOM     18  C   UNL     1      31.462  -8.956 -19.872  0.00  0.00    +0.075 C 
ATOM     19  C   UNL     1      32.523  -9.195 -18.792  0.00  0.00    +0.009 C 
ENDBRANCH  11  18
ENDBRANCH   1   7
BRANCH   2  20
ATOM     20  C   UNL     1      34.333 -13.192 -23.775  0.00  0.00    +0.048 C 
BRANCH  20  21
ATOM     21  C   UNL     1      33.529 -14.367 -23.206  0.00  0.00    +0.096 C 
BRANCH  21  23
ATOM     22  O   UNL     1      34.800 -16.860 -23.855  0.00  0.00    -0.251 OA
ATOM     23  N   UNL     1      34.314 -15.192 -22.328  0.00  0.00    -0.287 N 
ATOM     24  N   UNL     1      35.620 -17.028 -21.674  0.00  0.00    -0.169 N 
ATOM     25  C   UNL     1      34.893 -16.386 -22.727  0.00  0.00    +0.319 C 
ATOM     26  H   UNL     1      34.445 -14.895 -21.398  0.00  0.00    +0.151 HD
ATOM     27  H   UNL     1      35.638 -16.578 -20.798  0.00  0.00    +0.178 HD
BRANCH  24  28
ATOM     28  S   UNL     1      36.457 -18.512 -21.812  0.00  0.00    +0.077 S 
ATOM     29  O   UNL     1      36.352 -18.997 -23.175  0.00  0.00    -0.150 OA
ATOM     30  O   UNL     1      37.753 -18.392 -21.172  0.00  0.00    -0.150 OA
BRANCH  28  31
ATOM     31  C   UNL     1      35.471 -19.553 -20.779  0.00  0.00    +0.125 C 
ATOM     32  C   UNL     1      34.092 -19.456 -20.839  0.00  0.00    +0.020 C 
ATOM     33  C   UNL     1      36.097 -20.448 -19.928  0.00  0.00    +0.020 C 
ATOM     34  C   UNL     1      33.928 -21.186 -19.161  0.00  0.00    -0.022 C 
ATOM     35  C   UNL     1      33.314 -20.279 -20.024  0.00  0.00    -0.003 C 
ATOM     36  C   UNL     1      35.319 -21.271 -19.113  0.00  0.00    -0.003 C 
ATOM     37  C   UNL     1      33.097 -22.066 -18.291  0.00  0.00    +0.031 C 
ENDBRANCH  28  31
ENDBRANCH  24  28
ENDBRANCH  21  23
ENDBRANCH  20  21
ENDBRANCH   2  20
TORSDOF 7
ENDMDL
MODEL 8
REMARK VINA RESULT:     -11.6      1.937      2.419
REMARK  Name = 11677589
REMARK  7 active torsions:
REMARK  status: ('A' for Active; 'I' for Inactive)
REMARK    1  A    between atoms: C_1  and  N_7
REMARK    2  A    between atoms: C_2  and  C_20
REMARK    3  A    between atoms: C_11  and  C_18
REMARK    4  A    between atoms: C_20  and  C_21
REMARK    5  A    between atoms: C_21  and  N_23
REMARK    6  A    between atoms: N_24  and  S_28
REMARK    7  A    between atoms: S_28  and  C_31
REMARK                            x       y       z     vdW  Elec       q    Type
REMARK                         _______ _______ _______ _____ _____    ______ ____
ROOT
ATOM      1  C   UNL     1      33.986 -22.282 -17.390  0.00  0.00    +0.058 C 
ATOM      2  C   UNL     1      34.828 -20.950 -19.676  0.00  0.00    -0.020 C 
ATOM      3  C   UNL     1      35.342 -22.075 -17.601  0.00  0.00    +0.015 C 
ATOM      4  C   UNL     1      33.044 -21.832 -18.306  0.00  0.00    +0.015 C 
ATOM      5  C   UNL     1      35.765 -21.406 -18.750  0.00  0.00    -0.003 C 
ATOM      6  C   UNL     1      33.467 -21.163 -19.455  0.00  0.00    -0.003 C 
ENDROOT
BRANCH   1   7
ATOM      7  N   UNL     1      33.562 -22.951 -16.241  0.00  0.00    -0.242 N 
ATOM      8  N   UNL     1      33.673 -24.078 -14.327  0.00  0.00    -0.387 NA
ATOM      9  N   UNL     1      29.979 -23.912 -14.545  0.00  0.00    -0.408 NA
ATOM     10  C   UNL     1      32.261 -23.160 -15.862  0.00  0.00    +0.091 C 
ATOM     11  C   UNL     1      34.368 -23.517 -15.292  0.00  0.00    +0.168 C 
ATOM     12  C   UNL     1      32.358 -23.865 -14.666  0.00  0.00    +0.172 C 
ATOM     13  C   UNL     1      31.048 -22.809 -16.440  0.00  0.00    +0.045 C 
ATOM     14  C   UNL     1      31.183 -24.237 -14.012  0.00  0.00    +0.140 C 
ATOM     15  C   UNL     1      29.942 -23.225 -15.713  0.00  0.00    +0.110 C 
ATOM     16  C   UNL     1      31.169 -24.993 -12.727  0.00  0.00    +0.069 C 
ATOM     17  C   UNL     1      28.581 -22.902 -16.240  0.00  0.00    +0.066 C 
BRANCH  11  18
ATOM     18  C   UNL     1      35.844 -23.483 -15.376  0.00  0.00    +0.075 C 
ATOM     19  C   UNL     1      36.506 -24.627 -14.600  0.00  0.00    +0.009 C 
ENDBRANCH  11  18
ENDBRANCH   1   7
BRANCH   2  20
ATOM     20  C   UNL     1      35.280 -20.236 -20.905  0.00  0.00    +0.048 C 
BRANCH  20  21
ATOM     21  C   UNL     1      36.168 -19.020 -20.614  0.00  0.00    +0.096 C 
BRANCH  21  23
ATOM     22  O   UNL     1      35.217 -16.537 -19.528  0.00  0.00    -0.251 OA
ATOM     23  N   UNL     1      35.757 -17.855 -21.350  0.00  0.00    -0.287 N 
ATOM     24  N   UNL     1      34.953 -15.676 -21.684  0.00  0.00    -0.169 N 
ATOM     25  C   UNL     1      35.309 -16.693 -20.742  0.00  0.00    +0.319 C 
ATOM     26  H   UNL     1      35.794 -17.884 -22.334  0.00  0.00    +0.151 HD
ATOM     27  H   UNL     1      35.054 -15.891 -22.640  0.00  0.00    +0.178 HD
BRANCH  24  28
ATOM     28  S   UNL     1      34.363 -14.122 -21.286  0.00  0.00    +0.077 S 
ATOM     29  O   UNL     1      33.149 -14.255 -20.504  0.00  0.00    -0.150 OA
ATOM     30  O   UNL     1      35.460 -13.302 -20.808  0.00  0.00    -0.150 OA
BRANCH  28  31
ATOM     31  C   UNL     1      33.924 -13.508 -22.884  0.00  0.00    +0.125 C 
ATOM     32  C   UNL     1      33.548 -14.400 -23.872  0.00  0.00    +0.020 C 
ATOM     33  C   UNL     1      33.965 -12.144 -23.118  0.00  0.00    +0.020 C 
ATOM     34  C   UNL     1      33.237 -12.544 -25.386  0.00  0.00    -0.022 C 
ATOM     35  C   UNL     1      33.201 -13.914 -25.133  0.00  0.00    -0.003 C 
ATOM     36  C   UNL     1      33.618 -11.658 -24.379  0.00  0.00    -0.003 C 
ATOM     37  C   UNL     1      32.865 -12.025 -26.734  0.00  0.00    +0.031 C 
ENDBRANCH  28  31
ENDBRANCH  24  28
ENDBRANCH  21  23
ENDBRANCH  20  21
ENDBRANCH   2  20
TORSDOF 7
ENDMDL
MODEL 9
REMARK VINA RESULT:     -11.6      3.570     12.380
REMARK  Name = 11677589
REMARK  7 active torsions:
REMARK  status: ('A' for Active; 'I' for Inactive)
REMARK    1  A    between atoms: C_1  and  N_7
REMARK    2  A    between atoms: C_2  and  C_20
REMARK    3  A    between atoms: C_11  and  C_18
REMARK    4  A    between atoms: C_20  and  C_21
REMARK    5  A    between atoms: C_21  and  N_23
REMARK    6  A    between atoms: N_24  and  S_28
REMARK    7  A    between atoms: S_28  and  C_31
REMARK                            x       y       z     vdW  Elec       q    Type
REMARK                         _______ _______ _______ _____ _____    ______ ____
ROOT
ATOM      1  C   UNL     1      33.956 -13.530 -22.141  0.00  0.00    +0.058 C 
ATOM      2  C   UNL     1      35.059 -16.072 -21.967  0.00  0.00    -0.020 C 
ATOM      3  C   UNL     1      34.423 -13.991 -20.918  0.00  0.00    +0.015 C 
ATOM      4  C   UNL     1      34.032 -14.323 -23.279  0.00  0.00    +0.015 C 
ATOM      5  C   UNL     1      34.977 -15.268 -20.830  0.00  0.00    -0.003 C 
ATOM      6  C   UNL     1      34.586 -15.600 -23.192  0.00  0.00    -0.003 C 
ENDROOT
BRANCH   1   7
ATOM      7  N   UNL     1      33.401 -12.252 -22.230  0.00  0.00    -0.242 N 
ATOM      8  N   UNL     1      32.058 -10.532 -21.806  0.00  0.00    -0.387 NA
ATOM      9  N   UNL     1      34.085  -8.891 -24.437  0.00  0.00    -0.408 NA
ATOM     10  C   UNL     1      33.809 -11.252 -23.074  0.00  0.00    +0.091 C 
ATOM     11  C   UNL     1      32.353 -11.774 -21.493  0.00  0.00    +0.168 C 
ATOM     12  C   UNL     1      32.956 -10.190 -22.790  0.00  0.00    +0.172 C 
ATOM     13  C   UNL     1      34.814 -11.183 -24.029  0.00  0.00    +0.045 C 
ATOM     14  C   UNL     1      33.115  -8.997 -23.496  0.00  0.00    +0.140 C 
ATOM     15  C   UNL     1      34.889  -9.957 -24.674  0.00  0.00    +0.110 C 
ATOM     16  C   UNL     1      32.258  -7.797 -23.273  0.00  0.00    +0.069 C 
ATOM     17  C   UNL     1      35.935  -9.767 -25.724  0.00  0.00    +0.066 C 
BRANCH  11  18
ATOM     18  C   UNL     1      31.658 -12.588 -20.473  0.00  0.00    +0.075 C 
ATOM     19  C   UNL     1      31.908 -12.089 -19.047  0.00  0.00    +0.009 C 
ENDBRANCH  11  18
ENDBRANCH   1   7
BRANCH   2  20
ATOM     20  C   UNL     1      35.650 -17.438 -21.873  0.00  0.00    +0.048 C 
BRANCH  20  21
ATOM     21  C   UNL     1      34.603 -18.554 -21.770  0.00  0.00    +0.096 C 
BRANCH  21  23
ATOM     22  O   UNL     1      32.825 -20.438 -20.530  0.00  0.00    -0.251 OA
ATOM     23  N   UNL     1      34.938 -19.526 -20.765  0.00  0.00    -0.287 N 
ATOM     24  N   UNL     1      34.584 -21.269 -19.235  0.00  0.00    -0.169 N 
ATOM     25  C   UNL     1      34.012 -20.401 -20.219  0.00  0.00    +0.319 C 
ATOM     26  H   UNL     1      35.869 -19.572 -20.449  0.00  0.00    +0.151 HD
ATOM     27  H   UNL     1      35.544 -21.166 -19.045  0.00  0.00    +0.178 HD
BRANCH  24  28
ATOM     28  S   UNL     1      33.735 -22.467 -18.361  0.00  0.00    +0.077 S 
ATOM     29  O   UNL     1      32.449 -21.940 -17.946  0.00  0.00    -0.150 OA
ATOM     30  O   UNL     1      33.817 -23.728 -19.074  0.00  0.00    -0.150 OA
BRANCH  28  31
ATOM     31  C   UNL     1      34.754 -22.626 -16.926  0.00  0.00    +0.125 C 
ATOM     32  C   UNL     1      36.043 -22.122 -16.953  0.00  0.00    +0.020 C 
ATOM     33  C   UNL     1      34.245 -23.251 -15.801  0.00  0.00    +0.020 C 
ATOM     34  C   UNL     1      36.350 -22.874 -14.678  0.00  0.00    -0.022 C 
ATOM     35  C   UNL     1      36.847 -22.247 -15.819  0.00  0.00    -0.003 C 
ATOM     36  C   UNL     1      35.049 -23.376 -14.668  0.00  0.00    -0.003 C 
ATOM     37  C   UNL     1      37.209 -23.006 -13.466  0.00  0.00    +0.031 C 
ENDBRANCH  28  31
ENDBRANCH  24  28
ENDBRANCH  21  23
ENDBRANCH  20  21
ENDBRANCH   2  20
TORSDOF 7
ENDMDL
