MODEL 1
REMARK VINA RESULT:     -12.3      0.000      0.000
REMARK  Name = 3815
REMARK  0 active torsions:
REMARK  status: ('A' for Active; 'I' for Inactive)
REMARK                            x       y       z     vdW  Elec       q    Type
REMARK                         _______ _______ _______ _____ _____    ______ ____
ROOT
ATOM      1  O   UNL     1      37.484 -22.608 -15.950  0.00  0.00    -0.270 OA
ATOM      2  N   UNL     1      30.990 -23.025 -16.764  0.00  0.00    -0.352 N 
ATOM      3  N   UNL     1      32.724 -21.744 -18.532  0.00  0.00    -0.352 N 
ATOM      4  N   UNL     1      36.402 -23.772 -14.223  0.00  0.00    -0.297 N 
ATOM      5  C   UNL     1      34.271 -23.596 -15.025  0.00  0.00    +0.003 A 
ATOM      6  C   UNL     1      32.921 -23.579 -15.372  0.00  0.00    +0.016 A 
ATOM      7  C   UNL     1      34.581 -22.355 -17.060  0.00  0.00    +0.022 A 
ATOM      8  C   UNL     1      32.322 -22.981 -16.527  0.00  0.00    +0.072 A 
ATOM      9  C   UNL     1      35.126 -22.950 -15.922  0.00  0.00    +0.053 A 
ATOM     10  C   UNL     1      33.191 -22.339 -17.412  0.00  0.00    +0.073 A 
ATOM     11  C   UNL     1      35.046 -24.161 -13.882  0.00  0.00    +0.117 C 
ATOM     12  C   UNL     1      31.661 -24.081 -14.814  0.00  0.00    +0.017 A 
ATOM     13  C   UNL     1      35.020 -21.596 -18.242  0.00  0.00    +0.017 A 
ATOM     14  C   UNL     1      30.552 -23.738 -15.655  0.00  0.00    +0.057 A 
ATOM     15  C   UNL     1      33.902 -21.258 -19.079  0.00  0.00    +0.057 A 
ATOM     16  C   UNL     1      36.489 -23.059 -15.416  0.00  0.00    +0.246 C 
ATOM     17  C   UNL     1      31.388 -24.813 -13.633  0.00  0.00    +0.001 C 
ATOM     18  C   UNL     1      36.298 -21.166 -18.672  0.00  0.00    +0.001 C 
ATOM     19  C   UNL     1      29.240 -24.111 -15.329  0.00  0.00    +0.017 C 
ATOM     20  C   UNL     1      34.062 -20.533 -20.269  0.00  0.00    +0.017 C 
ATOM     21  C   UNL     1      30.076 -25.180 -13.318  0.00  0.00    +0.000 C 
ATOM     22  C   UNL     1      36.447 -20.443 -19.860  0.00  0.00    +0.000 C 
ATOM     23  C   UNL     1      29.022 -24.833 -14.154  0.00  0.00    +0.001 C 
ATOM     24  C   UNL     1      35.344 -20.133 -20.646  0.00  0.00    +0.001 C 
ATOM     25  H   UNL     1      30.473 -22.654 -17.515  0.00  0.00    +0.166 HD
ATOM     26  H   UNL     1      31.801 -21.675 -18.868  0.00  0.00    +0.166 HD
ATOM     27  H   UNL     1      37.184 -23.992 -13.666  0.00  0.00    +0.150 HD
ENDROOT
TORSDOF 0
ENDMDL
MODEL 2
REMARK VINA RESULT:     -12.3      1.045      5.932
REMARK  Name = 3815
REMARK  0 active torsions:
REMARK  status: ('A' for Active; 'I' for Inactive)
REMARK                            x       y       z     vdW  Elec       q    Type
REMARK                         _______ _______ _______ _____ _____    ______ ____
ROOT
ATOM      1  O   UNL     1      35.775 -24.251 -13.784  0.00  0.00    -0.270 OA
ATOM      2  N   UNL     1      32.504 -21.461 -18.736  0.00  0.00    -0.352 N 
ATOM      3  N   UNL     1      31.309 -22.886 -16.659  0.00  0.00    -0.352 N 
ATOM      4  N   UNL     1      37.169 -23.150 -15.318  0.00  0.00    -0.297 N 
ATOM      5  C   UNL     1      35.540 -22.417 -16.739  0.00  0.00    +0.003 A 
ATOM      6  C   UNL     1      34.675 -21.896 -17.701  0.00  0.00    +0.016 A 
ATOM      7  C   UNL     1      33.535 -23.260 -15.714  0.00  0.00    +0.022 A 
ATOM      8  C   UNL     1      33.248 -22.009 -17.747  0.00  0.00    +0.072 A 
ATOM      9  C   UNL     1      34.924 -23.128 -15.705  0.00  0.00    +0.053 A 
ATOM     10  C   UNL     1      32.650 -22.723 -16.706  0.00  0.00    +0.073 A 
ATOM     11  C   UNL     1      37.019 -22.393 -16.546  0.00  0.00    +0.117 C 
ATOM     12  C   UNL     1      34.785 -21.111 -18.934  0.00  0.00    +0.017 A 
ATOM     13  C   UNL     1      32.467 -23.873 -14.909  0.00  0.00    +0.017 A 
ATOM     14  C   UNL     1      33.495 -20.875 -19.513  0.00  0.00    +0.057 A 
ATOM     15  C   UNL     1      31.179 -23.631 -15.497  0.00  0.00    +0.057 A 
ATOM     16  C   UNL     1      35.960 -23.599 -14.793  0.00  0.00    +0.246 C 
ATOM     17  C   UNL     1      35.913 -20.578 -19.604  0.00  0.00    +0.001 C 
ATOM     18  C   UNL     1      32.496 -24.625 -13.710  0.00  0.00    +0.001 C 
ATOM     19  C   UNL     1      33.345 -20.143 -20.699  0.00  0.00    +0.017 C 
ATOM     20  C   UNL     1      29.998 -24.116 -14.914  0.00  0.00    +0.017 C 
ATOM     21  C   UNL     1      35.752 -19.850 -20.787  0.00  0.00    +0.000 C 
ATOM     22  C   UNL     1      31.313 -25.105 -13.138  0.00  0.00    +0.000 C 
ATOM     23  C   UNL     1      34.488 -19.638 -21.324  0.00  0.00    +0.001 C 
ATOM     24  C   UNL     1      30.083 -24.853 -13.733  0.00  0.00    +0.001 C 
ATOM     25  H   UNL     1      31.529 -21.474 -18.869  0.00  0.00    +0.166 HD
ATOM     26  H   UNL     1      30.616 -22.564 -17.278  0.00  0.00    +0.166 HD
ATOM     27  H   UNL     1      38.041 -23.329 -14.896  0.00  0.00    +0.150 HD
ENDROOT
TORSDOF 0
ENDMDL
MODEL 3
REMARK VINA RESULT:     -12.2      2.139      4.705
REMARK  Name = 3815
REMARK  0 active torsions:
REMARK  status: ('A' for Active; 'I' for Inactive)
REMARK                            x       y       z     vdW  Elec       q    Type
REMARK                         _______ _______ _______ _____ _____    ______ ____
ROOT
ATOM      1  O   UNL     1      31.261 -22.556 -17.038  0.00  0.00    -0.270 OA
ATOM      2  N   UNL     1      37.526 -23.301 -15.251  0.00  0.00    -0.352 N 
ATOM      3  N   UNL     1      36.688 -21.949 -17.540  0.00  0.00    -0.352 N 
ATOM      4  N   UNL     1      31.522 -23.763 -15.043  0.00  0.00    -0.297 N 
ATOM      5  C   UNL     1      33.803 -23.696 -14.943  0.00  0.00    +0.003 A 
ATOM      6  C   UNL     1      35.180 -23.747 -14.732  0.00  0.00    +0.016 A 
ATOM      7  C   UNL     1      34.375 -22.456 -16.921  0.00  0.00    +0.022 A 
ATOM      8  C   UNL     1      36.212 -23.189 -15.553  0.00  0.00    +0.072 A 
ATOM      9  C   UNL     1      33.400 -23.014 -16.095  0.00  0.00    +0.053 A 
ATOM     10  C   UNL     1      35.791 -22.512 -16.700  0.00  0.00    +0.073 A 
ATOM     11  C   UNL     1      32.616 -24.215 -14.203  0.00  0.00    +0.117 C 
ATOM     12  C   UNL     1      36.095 -24.308 -13.733  0.00  0.00    +0.017 A 
ATOM     13  C   UNL     1      34.472 -21.687 -18.172  0.00  0.00    +0.017 A 
ATOM     14  C   UNL     1      37.461 -24.028 -14.069  0.00  0.00    +0.057 A 
ATOM     15  C   UNL     1      35.843 -21.411 -18.500  0.00  0.00    +0.057 A 
ATOM     16  C   UNL     1      31.944 -23.053 -16.165  0.00  0.00    +0.246 C 
ATOM     17  C   UNL     1      35.848 -25.046 -12.550  0.00  0.00    +0.001 C 
ATOM     18  C   UNL     1      33.486 -21.198 -19.063  0.00  0.00    +0.001 C 
ATOM     19  C   UNL     1      38.520 -24.463 -13.260  0.00  0.00    +0.017 C 
ATOM     20  C   UNL     1      36.197 -20.690 -19.650  0.00  0.00    +0.017 C 
ATOM     21  C   UNL     1      36.912 -25.475 -11.751  0.00  0.00    +0.000 C 
ATOM     22  C   UNL     1      33.850 -20.481 -20.207  0.00  0.00    +0.000 C 
ATOM     23  C   UNL     1      38.225 -25.187 -12.103  0.00  0.00    +0.001 C 
ATOM     24  C   UNL     1      35.186 -20.231 -20.495  0.00  0.00    +0.001 C 
ATOM     25  H   UNL     1      38.313 -22.962 -15.735  0.00  0.00    +0.166 HD
ATOM     26  H   UNL     1      37.670 -21.926 -17.486  0.00  0.00    +0.166 HD
ATOM     27  H   UNL     1      30.575 -23.939 -14.839  0.00  0.00    +0.150 HD
ENDROOT
TORSDOF 0
ENDMDL
MODEL 4
REMARK VINA RESULT:     -11.9      2.191      6.330
REMARK  Name = 3815
REMARK  0 active torsions:
REMARK  status: ('A' for Active; 'I' for Inactive)
REMARK                            x       y       z     vdW  Elec       q    Type
REMARK                         _______ _______ _______ _____ _____    ______ ____
ROOT
ATOM      1  O   UNL     1      32.656 -24.871 -12.799  0.00  0.00    -0.270 OA
ATOM      2  N   UNL     1      36.401 -22.120 -17.426  0.00  0.00    -0.352 N 
ATOM      3  N   UNL     1      37.385 -23.403 -15.155  0.00  0.00    -0.352 N 
ATOM      4  N   UNL     1      31.419 -23.896 -14.539  0.00  0.00    -0.297 N 
ATOM      5  C   UNL     1      33.182 -23.142 -15.779  0.00  0.00    +0.003 A 
ATOM      6  C   UNL     1      34.138 -22.619 -16.650  0.00  0.00    +0.016 A 
ATOM      7  C   UNL     1      35.076 -23.847 -14.478  0.00  0.00    +0.022 A 
ATOM      8  C   UNL     1      35.562 -22.664 -16.514  0.00  0.00    +0.072 A 
ATOM      9  C   UNL     1      33.693 -23.783 -14.647  0.00  0.00    +0.053 A 
ATOM     10  C   UNL     1      36.055 -23.308 -15.376  0.00  0.00    +0.073 A 
ATOM     11  C   UNL     1      31.691 -23.180 -15.772  0.00  0.00    +0.117 C 
ATOM     12  C   UNL     1      34.150 -21.887 -17.920  0.00  0.00    +0.017 A 
ATOM     13  C   UNL     1      36.060 -24.375 -13.519  0.00  0.00    +0.017 A 
ATOM     14  C   UNL     1      35.492 -21.611 -18.344  0.00  0.00    +0.057 A 
ATOM     15  C   UNL     1      37.400 -24.094 -13.952  0.00  0.00    +0.057 A 
ATOM     16  C   UNL     1      32.572 -24.266 -13.850  0.00  0.00    +0.246 C 
ATOM     17  C   UNL     1      33.093 -21.435 -18.747  0.00  0.00    +0.001 C 
ATOM     18  C   UNL     1      35.912 -25.080 -12.300  0.00  0.00    +0.001 C 
ATOM     19  C   UNL     1      35.758 -20.920 -19.535  0.00  0.00    +0.017 C 
ATOM     20  C   UNL     1      38.518 -24.496 -13.206  0.00  0.00    +0.017 C 
ATOM     21  C   UNL     1      33.371 -20.746 -19.932  0.00  0.00    +0.000 C 
ATOM     22  C   UNL     1      37.033 -25.475 -11.563  0.00  0.00    +0.000 C 
ATOM     23  C   UNL     1      34.682 -20.494 -20.317  0.00  0.00    +0.001 C 
ATOM     24  C   UNL     1      38.316 -25.187 -12.011  0.00  0.00    +0.001 C 
ATOM     25  H   UNL     1      37.385 -22.090 -17.436  0.00  0.00    +0.166 HD
ATOM     26  H   UNL     1      38.137 -23.074 -15.698  0.00  0.00    +0.166 HD
ATOM     27  H   UNL     1      30.510 -24.100 -14.221  0.00  0.00    +0.150 HD
ENDROOT
TORSDOF 0
ENDMDL
MODEL 5
REMARK VINA RESULT:     -10.9      2.143      6.011
REMARK  Name = 3815
REMARK  0 active torsions:
REMARK  status: ('A' for Active; 'I' for Inactive)
REMARK                            x       y       z     vdW  Elec       q    Type
REMARK                         _______ _______ _______ _____ _____    ______ ____
ROOT
ATOM      1  O   UNL     1      32.414 -21.776 -18.525  0.00  0.00    -0.270 OA
ATOM      2  N   UNL     1      34.429 -24.756 -13.042  0.00  0.00    -0.352 N 
ATOM      3  N   UNL     1      31.757 -24.386 -13.747  0.00  0.00    -0.352 N 
ATOM      4  N   UNL     1      34.750 -21.872 -18.322  0.00  0.00    -0.297 N 
ATOM      5  C   UNL     1      34.837 -22.965 -16.319  0.00  0.00    +0.003 A 
ATOM      6  C   UNL     1      35.066 -23.624 -15.112  0.00  0.00    +0.016 A 
ATOM      7  C   UNL     1      32.512 -23.268 -15.789  0.00  0.00    +0.022 A 
ATOM      8  C   UNL     1      34.091 -24.130 -14.193  0.00  0.00    +0.072 A 
ATOM      9  C   UNL     1      33.493 -22.789 -16.658  0.00  0.00    +0.053 A 
ATOM     10  C   UNL     1      32.753 -23.944 -14.547  0.00  0.00    +0.073 A 
ATOM     11  C   UNL     1      35.720 -22.385 -17.372  0.00  0.00    +0.117 C 
ATOM     12  C   UNL     1      36.226 -24.048 -14.321  0.00  0.00    +0.017 A 
ATOM     13  C   UNL     1      31.046 -23.331 -15.685  0.00  0.00    +0.017 A 
ATOM     14  C   UNL     1      35.815 -24.708 -13.116  0.00  0.00    +0.057 A 
ATOM     15  C   UNL     1      30.645 -23.993 -14.475  0.00  0.00    +0.057 A 
ATOM     16  C   UNL     1      33.430 -22.091 -17.936  0.00  0.00    +0.246 C 
ATOM     17  C   UNL     1      37.615 -23.913 -14.555  0.00  0.00    +0.001 C 
ATOM     18  C   UNL     1      30.015 -22.870 -16.539  0.00  0.00    +0.001 C 
ATOM     19  C   UNL     1      36.749 -25.205 -12.196  0.00  0.00    +0.017 C 
ATOM     20  C   UNL     1      29.293 -24.178 -14.148  0.00  0.00    +0.017 C 
ATOM     21  C   UNL     1      38.538 -24.412 -13.630  0.00  0.00    +0.000 C 
ATOM     22  C   UNL     1      28.670 -23.059 -16.203  0.00  0.00    +0.000 C 
ATOM     23  C   UNL     1      38.110 -25.047 -12.471  0.00  0.00    +0.001 C 
ATOM     24  C   UNL     1      28.317 -23.704 -15.024  0.00  0.00    +0.001 C 
ATOM     25  H   UNL     1      33.852 -25.141 -12.343  0.00  0.00    +0.166 HD
ATOM     26  H   UNL     1      31.807 -24.857 -12.884  0.00  0.00    +0.166 HD
ATOM     27  H   UNL     1      35.000 -21.415 -19.157  0.00  0.00    +0.150 HD
ENDROOT
TORSDOF 0
ENDMDL
MODEL 6
REMARK VINA RESULT:     -10.6      8.049     11.683
REMARK  Name = 3815
REMARK  0 active torsions:
REMARK  status: ('A' for Active; 'I' for Inactive)
REMARK                            x       y       z     vdW  Elec       q    Type
REMARK                         _______ _______ _______ _____ _____    ______ ____
ROOT
ATOM      1  O   UNL     1      34.571 -15.662 -25.697  0.00  0.00    -0.270 OA
ATOM      2  N   UNL     1      33.170 -13.043 -19.850  0.00  0.00    -0.352 N 
ATOM      3  N   UNL     1      34.506 -15.463 -20.217  0.00  0.00    -0.352 N 
ATOM      4  N   UNL     1      33.433 -13.614 -25.842  0.00  0.00    -0.297 N 
ATOM      5  C   UNL     1      33.234 -13.217 -23.603  0.00  0.00    +0.003 A 
ATOM      6  C   UNL     1      33.029 -12.826 -22.280  0.00  0.00    +0.016 A 
ATOM      7  C   UNL     1      34.306 -15.138 -22.634  0.00  0.00    +0.022 A 
ATOM      8  C   UNL     1      33.423 -13.520 -21.092  0.00  0.00    +0.072 A 
ATOM      9  C   UNL     1      33.906 -14.432 -23.769  0.00  0.00    +0.053 A 
ATOM     10  C   UNL     1      34.092 -14.732 -21.276  0.00  0.00    +0.073 A 
ATOM     11  C   UNL     1      32.893 -12.625 -24.929  0.00  0.00    +0.117 C 
ATOM     12  C   UNL     1      32.410 -11.698 -21.576  0.00  0.00    +0.017 A 
ATOM     13  C   UNL     1      35.000 -16.388 -22.285  0.00  0.00    +0.017 A 
ATOM     14  C   UNL     1      32.511 -11.860 -20.155  0.00  0.00    +0.057 A 
ATOM     15  C   UNL     1      35.096 -16.541 -20.860  0.00  0.00    +0.057 A 
ATOM     16  C   UNL     1      34.036 -14.692 -25.197  0.00  0.00    +0.246 C 
ATOM     17  C   UNL     1      31.762 -10.537 -22.061  0.00  0.00    +0.001 C 
ATOM     18  C   UNL     1      35.561 -17.415 -23.082  0.00  0.00    +0.001 C 
ATOM     19  C   UNL     1      31.990 -10.905 -19.269  0.00  0.00    +0.017 C 
ATOM     20  C   UNL     1      35.717 -17.655 -20.276  0.00  0.00    +0.017 C 
ATOM     21  C   UNL     1      31.246  -9.592 -21.168  0.00  0.00    +0.000 C 
ATOM     22  C   UNL     1      36.177 -18.523 -22.489  0.00  0.00    +0.000 C 
ATOM     23  C   UNL     1      31.360  -9.776 -19.795  0.00  0.00    +0.001 C 
ATOM     24  C   UNL     1      36.253 -18.639 -21.107  0.00  0.00    +0.001 C 
ATOM     25  H   UNL     1      33.391 -13.430 -18.972  0.00  0.00    +0.166 HD
ATOM     26  H   UNL     1      34.414 -15.281 -19.254  0.00  0.00    +0.166 HD
ATOM     27  H   UNL     1      33.380 -13.532 -26.822  0.00  0.00    +0.150 HD
ENDROOT
TORSDOF 0
ENDMDL
MODEL 7
REMARK VINA RESULT:     -10.5      1.852      4.702
REMARK  Name = 3815
REMARK  0 active torsions:
REMARK  status: ('A' for Active; 'I' for Inactive)
REMARK                            x       y       z     vdW  Elec       q    Type
REMARK                         _______ _______ _______ _____ _____    ______ ____
ROOT
ATOM      1  O   UNL     1      36.747 -22.361 -17.261  0.00  0.00    -0.270 OA
ATOM      2  N   UNL     1      31.600 -24.381 -13.734  0.00  0.00    -0.352 N 
ATOM      3  N   UNL     1      34.262 -24.719 -12.978  0.00  0.00    -0.352 N 
ATOM      4  N   UNL     1      34.682 -21.877 -18.265  0.00  0.00    -0.297 N 
ATOM      5  C   UNL     1      33.339 -22.775 -16.651  0.00  0.00    +0.003 A 
ATOM      6  C   UNL     1      32.384 -23.272 -15.766  0.00  0.00    +0.016 A 
ATOM      7  C   UNL     1      34.930 -23.594 -15.046  0.00  0.00    +0.022 A 
ATOM      8  C   UNL     1      32.610 -23.936 -14.517  0.00  0.00    +0.072 A 
ATOM      9  C   UNL     1      34.669 -22.952 -16.256  0.00  0.00    +0.053 A 
ATOM     10  C   UNL     1      33.944 -24.105 -14.139  0.00  0.00    +0.073 A 
ATOM     11  C   UNL     1      33.275 -22.073 -17.966  0.00  0.00    +0.117 C 
ATOM     12  C   UNL     1      30.921 -23.349 -15.694  0.00  0.00    +0.017 A 
ATOM     13  C   UNL     1      36.081 -24.005 -14.226  0.00  0.00    +0.017 A 
ATOM     14  C   UNL     1      30.498 -24.005 -14.491  0.00  0.00    +0.057 A 
ATOM     15  C   UNL     1      35.647 -24.661 -13.024  0.00  0.00    +0.057 A 
ATOM     16  C   UNL     1      35.532 -22.380 -17.283  0.00  0.00    +0.246 C 
ATOM     17  C   UNL     1      29.918 -22.898 -16.584  0.00  0.00    +0.001 C 
ATOM     18  C   UNL     1      37.478 -23.868 -14.416  0.00  0.00    +0.001 C 
ATOM     19  C   UNL     1      29.140 -24.196 -14.198  0.00  0.00    +0.017 C 
ATOM     20  C   UNL     1      36.560 -25.147 -12.076  0.00  0.00    +0.017 C 
ATOM     21  C   UNL     1      28.567 -23.094 -16.282  0.00  0.00    +0.000 C 
ATOM     22  C   UNL     1      38.380 -24.357 -13.465  0.00  0.00    +0.000 C 
ATOM     23  C   UNL     1      28.187 -23.733 -15.108  0.00  0.00    +0.001 C 
ATOM     24  C   UNL     1      37.925 -24.987 -12.313  0.00  0.00    +0.001 C 
ATOM     25  H   UNL     1      31.636 -24.845 -12.867  0.00  0.00    +0.166 HD
ATOM     26  H   UNL     1      33.674 -25.102 -12.289  0.00  0.00    +0.166 HD
ATOM     27  H   UNL     1      35.004 -21.431 -19.082  0.00  0.00    +0.150 HD
ENDROOT
TORSDOF 0
ENDMDL
MODEL 8
REMARK VINA RESULT:      -9.6      8.150     11.724
REMARK  Name = 3815
REMARK  0 active torsions:
REMARK  status: ('A' for Active; 'I' for Inactive)
REMARK                            x       y       z     vdW  Elec       q    Type
REMARK                         _______ _______ _______ _____ _____    ______ ____
ROOT
ATOM      1  O   UNL     1      32.681 -11.750 -25.258  0.00  0.00    -0.270 OA
ATOM      2  N   UNL     1      34.496 -15.546 -20.228  0.00  0.00    -0.352 N 
ATOM      3  N   UNL     1      33.164 -13.111 -19.968  0.00  0.00    -0.352 N 
ATOM      4  N   UNL     1      33.780 -13.714 -25.923  0.00  0.00    -0.297 N 
ATOM      5  C   UNL     1      34.147 -14.578 -23.841  0.00  0.00    +0.003 A 
ATOM      6  C   UNL     1      34.448 -15.241 -22.652  0.00  0.00    +0.016 A 
ATOM      7  C   UNL     1      33.174 -12.912 -22.406  0.00  0.00    +0.022 A 
ATOM      8  C   UNL     1      34.154 -14.818 -21.316  0.00  0.00    +0.072 A 
ATOM      9  C   UNL     1      33.478 -13.359 -23.692  0.00  0.00    +0.053 A 
ATOM     10  C   UNL     1      33.486 -13.598 -21.186  0.00  0.00    +0.073 A 
ATOM     11  C   UNL     1      34.378 -14.873 -25.285  0.00  0.00    +0.117 C 
ATOM     12  C   UNL     1      35.106 -16.489 -22.254  0.00  0.00    +0.017 A 
ATOM     13  C   UNL     1      32.523 -11.769 -21.747  0.00  0.00    +0.017 A 
ATOM     14  C   UNL     1      35.116 -16.635 -20.827  0.00  0.00    +0.057 A 
ATOM     15  C   UNL     1      32.538 -11.924 -20.319  0.00  0.00    +0.057 A 
ATOM     16  C   UNL     1      33.241 -12.802 -25.019  0.00  0.00    +0.246 C 
ATOM     17  C   UNL     1      35.702 -17.517 -23.023  0.00  0.00    +0.001 C 
ATOM     18  C   UNL     1      31.914 -10.599 -22.261  0.00  0.00    +0.001 C 
ATOM     19  C   UNL     1      35.692 -17.753 -20.208  0.00  0.00    +0.017 C 
ATOM     20  C   UNL     1      31.977 -10.962 -19.465  0.00  0.00    +0.017 C 
ATOM     21  C   UNL     1      36.273 -18.628 -22.394  0.00  0.00    +0.000 C 
ATOM     22  C   UNL     1      31.358  -9.646 -21.401  0.00  0.00    +0.000 C 
ATOM     23  C   UNL     1      36.268 -18.741 -21.009  0.00  0.00    +0.001 C 
ATOM     24  C   UNL     1      31.390  -9.827 -20.024  0.00  0.00    +0.001 C 
ATOM     25  H   UNL     1      34.347 -15.357 -19.273  0.00  0.00    +0.166 HD
ATOM     26  H   UNL     1      33.327 -13.493 -19.076  0.00  0.00    +0.166 HD
ATOM     27  H   UNL     1      33.758 -13.585 -26.899  0.00  0.00    +0.150 HD
ENDROOT
TORSDOF 0
ENDMDL
MODEL 9
REMARK VINA RESULT:      -9.6      2.439      6.932
REMARK  Name = 3815
REMARK  0 active torsions:
REMARK  status: ('A' for Active; 'I' for Inactive)
REMARK                            x       y       z     vdW  Elec       q    Type
REMARK                         _______ _______ _______ _____ _____    ______ ____
ROOT
ATOM      1  O   UNL     1      32.336 -23.672 -15.935  0.00  0.00    -0.270 OA
ATOM      2  N   UNL     1      37.219 -20.495 -18.946  0.00  0.00    -0.352 N 
ATOM      3  N   UNL     1      37.527 -22.060 -16.660  0.00  0.00    -0.352 N 
ATOM      4  N   UNL     1      31.638 -22.469 -17.825  0.00  0.00    -0.297 N 
ATOM      5  C   UNL     1      33.674 -21.620 -18.415  0.00  0.00    +0.003 A 
ATOM      6  C   UNL     1      34.833 -21.024 -18.909  0.00  0.00    +0.016 A 
ATOM      7  C   UNL     1      35.125 -22.521 -16.724  0.00  0.00    +0.022 A 
ATOM      8  C   UNL     1      36.161 -21.121 -18.381  0.00  0.00    +0.072 A 
ATOM      9  C   UNL     1      33.847 -22.402 -17.269  0.00  0.00    +0.053 A 
ATOM     10  C   UNL     1      36.314 -21.905 -17.236  0.00  0.00    +0.073 A 
ATOM     11  C   UNL     1      32.243 -21.620 -18.835  0.00  0.00    +0.117 C 
ATOM     12  C   UNL     1      35.200 -20.148 -20.027  0.00  0.00    +0.017 A 
ATOM     13  C   UNL     1      35.800 -23.183 -15.595  0.00  0.00    +0.017 A 
ATOM     14  C   UNL     1      36.604 -19.859 -20.017  0.00  0.00    +0.057 A 
ATOM     15  C   UNL     1      37.206 -22.887 -15.594  0.00  0.00    +0.057 A 
ATOM     16  C   UNL     1      32.550 -22.947 -16.887  0.00  0.00    +0.246 C 
ATOM     17  C   UNL     1      34.419 -19.575 -21.059  0.00  0.00    +0.001 C 
ATOM     18  C   UNL     1      35.318 -24.022 -14.562  0.00  0.00    +0.001 C 
ATOM     19  C   UNL     1      37.192 -19.040 -20.991  0.00  0.00    +0.017 C 
ATOM     20  C   UNL     1      38.068 -23.403 -14.615  0.00  0.00    +0.017 C 
ATOM     21  C   UNL     1      35.016 -18.760 -22.026  0.00  0.00    +0.000 C 
ATOM     22  C   UNL     1      36.186 -24.529 -13.590  0.00  0.00    +0.000 C 
ATOM     23  C   UNL     1      36.380 -18.498 -21.990  0.00  0.00    +0.001 C 
ATOM     24  C   UNL     1      37.541 -24.224 -13.618  0.00  0.00    +0.001 C 
ATOM     25  H   UNL     1      38.165 -20.490 -18.673  0.00  0.00    +0.166 HD
ATOM     26  H   UNL     1      38.400 -21.689 -16.924  0.00  0.00    +0.166 HD
ATOM     27  H   UNL     1      30.678 -22.685 -17.805  0.00  0.00    +0.150 HD
ENDROOT
TORSDOF 0
ENDMDL
