MODEL 1
REMARK VINA RESULT:     -12.3      0.000      0.000
REMARK  Name = 3151
REMARK  5 active torsions:
REMARK  status: ('A' for Active; 'I' for Inactive)
REMARK    1  A    between atoms: N_1  and  C_20
REMARK    2  A    between atoms: C_2  and  N_10
REMARK    3  A    between atoms: C_20  and  C_21
REMARK    4  A    between atoms: C_21  and  C_22
REMARK    5  A    between atoms: C_22  and  N_24
REMARK                            x       y       z     vdW  Elec       q    Type
REMARK                         _______ _______ _______ _____ _____    ______ ____
ROOT
ATOM      1  N   UNL     1      35.242 -15.634 -22.926  0.00  0.00    +0.387 N 
ATOM      2  C   UNL     1      34.924 -18.054 -21.314  0.00  0.00    +0.086 C 
ATOM      3  C   UNL     1      35.285 -16.704 -20.695  0.00  0.00    -0.000 C 
ATOM      4  C   UNL     1      35.364 -18.100 -22.777  0.00  0.00    -0.000 C 
ATOM      5  C   UNL     1      34.753 -15.546 -21.543  0.00  0.00    -0.075 C 
ATOM      6  C   UNL     1      34.829 -16.896 -23.555  0.00  0.00    -0.075 C 
ATOM      7  H   UNL     1      36.260 -15.613 -22.903  0.00  0.00    -0.080 HD
ENDROOT
BRANCH   2  10
ATOM      8 CL   UNL     1      33.310 -23.604 -17.482  0.00  0.00    -0.082 Cl
ATOM      9  O   UNL     1      37.841 -18.746 -20.818  0.00  0.00    -0.247 OA
ATOM     10  N   UNL     1      35.509 -19.136 -20.562  0.00  0.00    -0.282 N 
ATOM     11  N   UNL     1      36.971 -20.556 -19.570  0.00  0.00    -0.305 N 
ATOM     12  C   UNL     1      34.771 -20.117 -19.887  0.00  0.00    +0.079 A 
ATOM     13  C   UNL     1      36.896 -19.387 -20.380  0.00  0.00    +0.328 A 
ATOM     14  C   UNL     1      35.676 -20.987 -19.280  0.00  0.00    +0.077 A 
ATOM     15  C   UNL     1      33.409 -20.298 -19.770  0.00  0.00    +0.020 C 
ATOM     16  C   UNL     1      35.271 -22.070 -18.532  0.00  0.00    +0.030 C 
ATOM     17  C   UNL     1      32.973 -21.392 -19.015  0.00  0.00    +0.013 C 
ATOM     18  C   UNL     1      33.894 -22.268 -18.403  0.00  0.00    +0.059 C 
ATOM     19  H   UNL     1      37.801 -20.990 -19.266  0.00  0.00    +0.170 HD
ENDBRANCH   2  10
BRANCH   1  20
ATOM     20  C   UNL     1      34.765 -14.493 -23.710  0.00  0.00    -0.075 C 
BRANCH  20  21
ATOM     21  C   UNL     1      34.366 -13.314 -22.818  0.00  0.00    +0.002 C 
BRANCH  21  22
ATOM     22  C   UNL     1      32.907 -12.885 -22.955  0.00  0.00    +0.108 C 
BRANCH  22  24
ATOM     23  O   UNL     1      31.985 -13.639 -20.181  0.00  0.00    -0.247 OA
ATOM     24  N   UNL     1      32.477 -12.041 -21.874  0.00  0.00    -0.280 N 
ATOM     25  N   UNL     1      31.726 -11.312 -19.856  0.00  0.00    -0.305 N 
ATOM     26  C   UNL     1      32.402 -10.638 -21.910  0.00  0.00    +0.079 A 
ATOM     27  C   UNL     1      32.055 -12.488 -20.587  0.00  0.00    +0.328 A 
ATOM     28  C   UNL     1      31.941 -10.199 -20.670  0.00  0.00    +0.076 A 
ATOM     29  C   UNL     1      32.701  -9.751 -22.923  0.00  0.00    +0.019 C 
ATOM     30  C   UNL     1      31.757  -8.865 -20.380  0.00  0.00    +0.019 C 
ATOM     31  C   UNL     1      32.521  -8.390 -22.653  0.00  0.00    +0.002 C 
ATOM     32  C   UNL     1      32.056  -7.952 -21.395  0.00  0.00    +0.002 C 
ATOM     33  H   UNL     1      31.399 -11.287 -18.927  0.00  0.00    +0.170 HD
ENDBRANCH  22  24
ENDBRANCH  21  22
ENDBRANCH  20  21
ENDBRANCH   1  20
TORSDOF 5
ENDMDL
MODEL 2
REMARK VINA RESULT:     -12.2      1.707      2.256
REMARK  Name = 3151
REMARK  5 active torsions:
REMARK  status: ('A' for Active; 'I' for Inactive)
REMARK    1  A    between atoms: N_1  and  C_20
REMARK    2  A    between atoms: C_2  and  N_10
REMARK    3  A    between atoms: C_20  and  C_21
REMARK    4  A    between atoms: C_21  and  C_22
REMARK    5  A    between atoms: C_22  and  N_24
REMARK                            x       y       z     vdW  Elec       q    Type
REMARK                         _______ _______ _______ _____ _____    ______ ____
ROOT
ATOM      1  N   UNL     1      34.874 -16.629 -23.976  0.00  0.00    +0.387 N 
ATOM      2  C   UNL     1      34.731 -18.389 -21.645  0.00  0.00    +0.086 C 
ATOM      3  C   UNL     1      35.356 -16.996 -21.577  0.00  0.00    -0.000 C 
ATOM      4  C   UNL     1      34.797 -18.930 -23.073  0.00  0.00    -0.000 C 
ATOM      5  C   UNL     1      34.746 -16.063 -22.626  0.00  0.00    -0.075 C 
ATOM      6  C   UNL     1      34.205 -17.933 -24.071  0.00  0.00    -0.075 C 
ATOM      7  H   UNL     1      35.865 -16.769 -24.166  0.00  0.00    -0.080 HD
ENDROOT
BRANCH   2  10
ATOM      8 CL   UNL     1      33.463 -23.496 -17.130  0.00  0.00    -0.082 Cl
ATOM      9  O   UNL     1      37.669 -18.686 -20.927  0.00  0.00    -0.247 OA
ATOM     10  N   UNL     1      35.378 -19.287 -20.720  0.00  0.00    -0.282 N 
ATOM     11  N   UNL     1      36.915 -20.390 -19.471  0.00  0.00    -0.305 N 
ATOM     12  C   UNL     1      34.704 -20.239 -19.944  0.00  0.00    +0.079 A 
ATOM     13  C   UNL     1      36.770 -19.359 -20.443  0.00  0.00    +0.328 A 
ATOM     14  C   UNL     1      35.655 -20.913 -19.179  0.00  0.00    +0.077 A 
ATOM     15  C   UNL     1      33.362 -20.549 -19.862  0.00  0.00    +0.020 C 
ATOM     16  C   UNL     1      35.318 -21.920 -18.302  0.00  0.00    +0.030 C 
ATOM     17  C   UNL     1      32.995 -21.568 -18.978  0.00  0.00    +0.013 C 
ATOM     18  C   UNL     1      33.962 -22.246 -18.207  0.00  0.00    +0.059 C 
ATOM     19  H   UNL     1      37.764 -20.685 -19.072  0.00  0.00    +0.170 HD
ENDBRANCH   2  10
BRANCH   1  20
ATOM     20  C   UNL     1      34.331 -15.702 -24.971  0.00  0.00    -0.075 C 
BRANCH  20  21
ATOM     21  C   UNL     1      33.615 -14.517 -24.318  0.00  0.00    +0.002 C 
BRANCH  21  22
ATOM     22  C   UNL     1      34.549 -13.460 -23.732  0.00  0.00    +0.108 C 
BRANCH  22  24
ATOM     23  O   UNL     1      34.525 -10.829 -25.213  0.00  0.00    -0.247 OA
ATOM     24  N   UNL     1      33.865 -12.237 -23.412  0.00  0.00    -0.280 N 
ATOM     25  N   UNL     1      33.090 -10.101 -23.480  0.00  0.00    -0.305 N 
ATOM     26  C   UNL     1      33.039 -12.029 -22.294  0.00  0.00    +0.079 A 
ATOM     27  C   UNL     1      33.911 -11.033 -24.174  0.00  0.00    +0.328 A 
ATOM     28  C   UNL     1      32.568 -10.719 -22.342  0.00  0.00    +0.076 A 
ATOM     29  C   UNL     1      32.685 -12.885 -21.271  0.00  0.00    +0.019 C 
ATOM     30  C   UNL     1      31.729 -10.199 -21.383  0.00  0.00    +0.019 C 
ATOM     31  C   UNL     1      31.833 -12.380 -20.284  0.00  0.00    +0.002 C 
ATOM     32  C   UNL     1      31.359 -11.052 -20.339  0.00  0.00    +0.002 C 
ATOM     33  H   UNL     1      32.918  -9.171 -23.756  0.00  0.00    +0.170 HD
ENDBRANCH  22  24
ENDBRANCH  21  22
ENDBRANCH  20  21
ENDBRANCH   1  20
TORSDOF 5
ENDMDL
MODEL 3
REMARK VINA RESULT:     -11.9      3.454      9.971
REMARK  Name = 3151
REMARK  5 active torsions:
REMARK  status: ('A' for Active; 'I' for Inactive)
REMARK    1  A    between atoms: N_1  and  C_20
REMARK    2  A    between atoms: C_2  and  N_10
REMARK    3  A    between atoms: C_20  and  C_21
REMARK    4  A    between atoms: C_21  and  C_22
REMARK    5  A    between atoms: C_22  and  N_24
REMARK                            x       y       z     vdW  Elec       q    Type
REMARK                         _______ _______ _______ _____ _____    ______ ____
ROOT
ATOM      1  N   UNL     1      34.241 -15.824 -23.417  0.00  0.00    +0.387 N 
ATOM      2  C   UNL     1      33.766 -12.972 -22.976  0.00  0.00    +0.086 C 
ATOM      3  C   UNL     1      34.476 -13.849 -21.945  0.00  0.00    -0.000 C 
ATOM      4  C   UNL     1      32.854 -13.824 -23.858  0.00  0.00    -0.000 C 
ATOM      5  C   UNL     1      35.182 -15.030 -22.614  0.00  0.00    -0.075 C 
ATOM      6  C   UNL     1      33.615 -15.005 -24.464  0.00  0.00    -0.075 C 
ATOM      7  H   UNL     1      33.505 -16.161 -22.798  0.00  0.00    -0.080 HD
ENDROOT
BRANCH   2  10
ATOM      8 CL   UNL     1      32.880  -6.095 -22.921  0.00  0.00    -0.082 Cl
ATOM      9  O   UNL     1      31.687 -13.107 -20.764  0.00  0.00    -0.247 OA
ATOM     10  N   UNL     1      33.025 -11.918 -22.328  0.00  0.00    -0.282 N 
ATOM     11  N   UNL     1      31.614 -10.754 -20.989  0.00  0.00    -0.305 N 
ATOM     12  C   UNL     1      33.154 -10.557 -22.639  0.00  0.00    +0.079 A 
ATOM     13  C   UNL     1      32.063 -12.071 -21.294  0.00  0.00    +0.328 A 
ATOM     14  C   UNL     1      32.285  -9.849 -21.812  0.00  0.00    +0.077 A 
ATOM     15  C   UNL     1      33.952  -9.917 -23.564  0.00  0.00    +0.020 C 
ATOM     16  C   UNL     1      32.168  -8.478 -21.865  0.00  0.00    +0.030 C 
ATOM     17  C   UNL     1      33.853  -8.524 -23.636  0.00  0.00    +0.013 C 
ATOM     18  C   UNL     1      32.970  -7.812 -22.796  0.00  0.00    +0.059 C 
ATOM     19  H   UNL     1      30.941 -10.522 -20.310  0.00  0.00    +0.170 HD
ENDBRANCH   2  10
BRANCH   1  20
ATOM     20  C   UNL     1      34.922 -16.977 -24.009  0.00  0.00    -0.075 C 
BRANCH  20  21
ATOM     21  C   UNL     1      34.909 -18.190 -23.075  0.00  0.00    +0.002 C 
BRANCH  21  22
ATOM     22  C   UNL     1      34.966 -17.843 -21.589  0.00  0.00    +0.108 C 
BRANCH  22  24
ATOM     23  O   UNL     1      37.782 -18.624 -20.833  0.00  0.00    -0.247 OA
ATOM     24  N   UNL     1      35.424 -18.942 -20.783  0.00  0.00    -0.280 N 
ATOM     25  N   UNL     1      36.755 -20.402 -19.660  0.00  0.00    -0.305 N 
ATOM     26  C   UNL     1      34.606 -19.904 -20.168  0.00  0.00    +0.079 A 
ATOM     27  C   UNL     1      36.785 -19.236 -20.476  0.00  0.00    +0.328 A 
ATOM     28  C   UNL     1      35.428 -20.795 -19.482  0.00  0.00    +0.076 A 
ATOM     29  C   UNL     1      33.233 -20.044 -20.169  0.00  0.00    +0.019 C 
ATOM     30  C   UNL     1      34.930 -21.862 -18.769  0.00  0.00    +0.019 C 
ATOM     31  C   UNL     1      32.702 -21.121 -19.452  0.00  0.00    +0.002 C 
ATOM     32  C   UNL     1      33.541 -22.020 -18.758  0.00  0.00    +0.002 C 
ATOM     33  H   UNL     1      37.543 -20.857 -19.283  0.00  0.00    +0.170 HD
ENDBRANCH  22  24
ENDBRANCH  21  22
ENDBRANCH  20  21
ENDBRANCH   1  20
TORSDOF 5
ENDMDL
MODEL 4
REMARK VINA RESULT:     -11.8      3.069      9.334
REMARK  Name = 3151
REMARK  5 active torsions:
REMARK  status: ('A' for Active; 'I' for Inactive)
REMARK    1  A    between atoms: N_1  and  C_20
REMARK    2  A    between atoms: C_2  and  N_10
REMARK    3  A    between atoms: C_20  and  C_21
REMARK    4  A    between atoms: C_21  and  C_22
REMARK    5  A    between atoms: C_22  and  N_24
REMARK                            x       y       z     vdW  Elec       q    Type
REMARK                         _______ _______ _______ _____ _____    ______ ____
ROOT
ATOM      1  N   UNL     1      34.138 -16.497 -23.732  0.00  0.00    +0.387 N 
ATOM      2  C   UNL     1      34.269 -13.588 -24.010  0.00  0.00    +0.086 C 
ATOM      3  C   UNL     1      34.850 -14.319 -22.799  0.00  0.00    -0.000 C 
ATOM      4  C   UNL     1      33.154 -14.420 -24.644  0.00  0.00    -0.000 C 
ATOM      5  C   UNL     1      35.265 -15.746 -23.160  0.00  0.00    -0.075 C 
ATOM      6  C   UNL     1      33.625 -15.844 -24.944  0.00  0.00    -0.075 C 
ATOM      7  H   UNL     1      33.388 -16.514 -23.042  0.00  0.00    -0.080 HD
ENDROOT
BRANCH   2  10
ATOM      8 CL   UNL     1      30.750 -10.199 -19.089  0.00  0.00    -0.082 Cl
ATOM      9  O   UNL     1      34.558 -10.919 -25.432  0.00  0.00    -0.247 OA
ATOM     10  N   UNL     1      33.793 -12.279 -23.638  0.00  0.00    -0.282 N 
ATOM     11  N   UNL     1      33.330 -10.060 -23.602  0.00  0.00    -0.305 N 
ATOM     12  C   UNL     1      33.065 -12.006 -22.473  0.00  0.00    +0.079 A 
ATOM     13  C   UNL     1      33.975 -11.073 -24.368  0.00  0.00    +0.328 A 
ATOM     14  C   UNL     1      32.784 -10.641 -22.457  0.00  0.00    +0.077 A 
ATOM     15  C   UNL     1      32.645 -12.839 -21.457  0.00  0.00    +0.020 C 
ATOM     16  C   UNL     1      32.076 -10.044 -21.438  0.00  0.00    +0.030 C 
ATOM     17  C   UNL     1      31.924 -12.256 -20.410  0.00  0.00    +0.013 C 
ATOM     18  C   UNL     1      31.643 -10.874 -20.401  0.00  0.00    +0.059 C 
ATOM     19  H   UNL     1      33.279  -9.107 -23.842  0.00  0.00    +0.170 HD
ENDBRANCH   2  10
BRANCH   1  20
ATOM     20  C   UNL     1      34.538 -17.875 -24.025  0.00  0.00    -0.075 C 
BRANCH  20  21
ATOM     21  C   UNL     1      34.297 -18.805 -22.833  0.00  0.00    +0.002 C 
BRANCH  21  22
ATOM     22  C   UNL     1      34.731 -18.231 -21.486  0.00  0.00    +0.108 C 
BRANCH  22  24
ATOM     23  O   UNL     1      37.619 -18.733 -20.763  0.00  0.00    -0.247 OA
ATOM     24  N   UNL     1      35.296 -19.229 -20.618  0.00  0.00    -0.280 N 
ATOM     25  N   UNL     1      36.767 -20.494 -19.435  0.00  0.00    -0.305 N 
ATOM     26  C   UNL     1      34.573 -20.203 -19.910  0.00  0.00    +0.079 A 
ATOM     27  C   UNL     1      36.683 -19.393 -20.333  0.00  0.00    +0.328 A 
ATOM     28  C   UNL     1      35.480 -20.975 -19.188  0.00  0.00    +0.076 A 
ATOM     29  C   UNL     1      33.216 -20.450 -19.859  0.00  0.00    +0.019 C 
ATOM     30  C   UNL     1      35.086 -22.021 -18.385  0.00  0.00    +0.019 C 
ATOM     31  C   UNL     1      32.791 -21.509 -19.050  0.00  0.00    +0.002 C 
ATOM     32  C   UNL     1      33.715 -22.286 -18.321  0.00  0.00    +0.002 C 
ATOM     33  H   UNL     1      37.598 -20.858 -19.050  0.00  0.00    +0.170 HD
ENDBRANCH  22  24
ENDBRANCH  21  22
ENDBRANCH  20  21
ENDBRANCH   1  20
TORSDOF 5
ENDMDL
MODEL 5
REMARK VINA RESULT:     -11.6      3.000      4.772
REMARK  Name = 3151
REMARK  5 active torsions:
REMARK  status: ('A' for Active; 'I' for Inactive)
REMARK    1  A    between atoms: N_1  and  C_20
REMARK    2  A    between atoms: C_2  and  N_10
REMARK    3  A    between atoms: C_20  and  C_21
REMARK    4  A    between atoms: C_21  and  C_22
REMARK    5  A    between atoms: C_22  and  N_24
REMARK                            x       y       z     vdW  Elec       q    Type
REMARK                         _______ _______ _______ _____ _____    ______ ____
ROOT
ATOM      1  N   UNL     1      35.807 -18.671 -20.698  0.00  0.00    +0.387 N 
ATOM      2  C   UNL     1      35.255 -21.207 -19.350  0.00  0.00    +0.086 C 
ATOM      3  C   UNL     1      34.141 -20.318 -19.901  0.00  0.00    -0.000 C 
ATOM      4  C   UNL     1      36.495 -20.370 -19.037  0.00  0.00    -0.000 C 
ATOM      5  C   UNL     1      34.636 -19.474 -21.078  0.00  0.00    -0.075 C 
ATOM      6  C   UNL     1      36.912 -19.525 -20.243  0.00  0.00    -0.075 C 
ATOM      7  H   UNL     1      35.536 -18.067 -19.923  0.00  0.00    -0.080 HD
ENDROOT
BRANCH   2  10
ATOM      8 CL   UNL     1      37.391 -23.614 -13.208  0.00  0.00    -0.082 Cl
ATOM      9  O   UNL     1      32.527 -22.372 -18.690  0.00  0.00    -0.247 OA
ATOM     10  N   UNL     1      34.807 -21.926 -18.183  0.00  0.00    -0.282 N 
ATOM     11  N   UNL     1      33.553 -23.062 -16.674  0.00  0.00    -0.305 N 
ATOM     12  C   UNL     1      35.619 -22.227 -17.082  0.00  0.00    +0.079 A 
ATOM     13  C   UNL     1      33.501 -22.440 -17.954  0.00  0.00    +0.328 A 
ATOM     14  C   UNL     1      34.842 -22.924 -16.159  0.00  0.00    +0.077 A 
ATOM     15  C   UNL     1      36.946 -21.941 -16.837  0.00  0.00    +0.020 C 
ATOM     16  C   UNL     1      35.345 -23.369 -14.956  0.00  0.00    +0.030 C 
ATOM     17  C   UNL     1      37.481 -22.384 -15.623  0.00  0.00    +0.013 C 
ATOM     18  C   UNL     1      36.689 -23.089 -14.693  0.00  0.00    +0.059 C 
ATOM     19  H   UNL     1      32.802 -23.514 -16.227  0.00  0.00    +0.170 HD
ENDBRANCH   2  10
BRANCH   1  20
ATOM     20  C   UNL     1      36.237 -17.833 -21.819  0.00  0.00    -0.075 C 
BRANCH  20  21
ATOM     21  C   UNL     1      35.076 -17.497 -22.759  0.00  0.00    +0.002 C 
BRANCH  21  22
ATOM     22  C   UNL     1      35.375 -16.379 -23.757  0.00  0.00    +0.108 C 
BRANCH  22  24
ATOM     23  O   UNL     1      33.640 -15.419 -26.033  0.00  0.00    -0.247 OA
ATOM     24  N   UNL     1      34.359 -15.362 -23.765  0.00  0.00    -0.280 N 
ATOM     25  N   UNL     1      32.717 -13.941 -24.435  0.00  0.00    -0.305 N 
ATOM     26  C   UNL     1      33.966 -14.587 -22.661  0.00  0.00    +0.079 A 
ATOM     27  C   UNL     1      33.584 -14.971 -24.896  0.00  0.00    +0.328 A 
ATOM     28  C   UNL     1      32.960 -13.719 -23.079  0.00  0.00    +0.076 A 
ATOM     29  C   UNL     1      34.418 -14.593 -21.357  0.00  0.00    +0.019 C 
ATOM     30  C   UNL     1      32.358 -12.821 -22.227  0.00  0.00    +0.019 C 
ATOM     31  C   UNL     1      33.821 -13.690 -20.472  0.00  0.00    +0.002 C 
ATOM     32  C   UNL     1      32.802 -12.814 -20.901  0.00  0.00    +0.002 C 
ATOM     33  H   UNL     1      32.053 -13.462 -24.984  0.00  0.00    +0.170 HD
ENDBRANCH  22  24
ENDBRANCH  21  22
ENDBRANCH  20  21
ENDBRANCH   1  20
TORSDOF 5
ENDMDL
MODEL 6
REMARK VINA RESULT:     -11.3      4.191     10.354
REMARK  Name = 3151
REMARK  5 active torsions:
REMARK  status: ('A' for Active; 'I' for Inactive)
REMARK    1  A    between atoms: N_1  and  C_20
REMARK    2  A    between atoms: C_2  and  N_10
REMARK    3  A    between atoms: C_20  and  C_21
REMARK    4  A    between atoms: C_21  and  C_22
REMARK    5  A    between atoms: C_22  and  N_24
REMARK                            x       y       z     vdW  Elec       q    Type
REMARK                         _______ _______ _______ _____ _____    ______ ____
ROOT
ATOM      1  N   UNL     1      35.382 -20.945 -19.913  0.00  0.00    +0.387 N 
ATOM      2  C   UNL     1      34.906 -18.344 -21.165  0.00  0.00    +0.086 C 
ATOM      3  C   UNL     1      33.823 -19.420 -21.082  0.00  0.00    -0.000 C 
ATOM      4  C   UNL     1      36.293 -18.986 -21.117  0.00  0.00    -0.000 C 
ATOM      5  C   UNL     1      34.044 -20.338 -19.878  0.00  0.00    -0.075 C 
ATOM      6  C   UNL     1      36.432 -19.917 -19.911  0.00  0.00    -0.075 C 
ATOM      7  H   UNL     1      35.464 -21.477 -20.779  0.00  0.00    -0.080 HD
ENDROOT
BRANCH   2  10
ATOM      8 CL   UNL     1      34.272 -11.796 -23.354  0.00  0.00    -0.082 Cl
ATOM      9  O   UNL     1      34.697 -19.181 -24.079  0.00  0.00    -0.247 OA
ATOM     10  N   UNL     1      34.745 -17.545 -22.354  0.00  0.00    -0.282 N 
ATOM     11  N   UNL     1      34.504 -16.863 -24.502  0.00  0.00    -0.305 N 
ATOM     12  C   UNL     1      34.651 -16.147 -22.358  0.00  0.00    +0.079 A 
ATOM     13  C   UNL     1      34.655 -18.022 -23.690  0.00  0.00    +0.328 A 
ATOM     14  C   UNL     1      34.504 -15.735 -23.681  0.00  0.00    +0.077 A 
ATOM     15  C   UNL     1      34.686 -15.240 -21.320  0.00  0.00    +0.020 C 
ATOM     16  C   UNL     1      34.384 -14.409 -24.032  0.00  0.00    +0.030 C 
ATOM     17  C   UNL     1      34.565 -13.886 -21.651  0.00  0.00    +0.013 C 
ATOM     18  C   UNL     1      34.416 -13.476 -22.992  0.00  0.00    +0.059 C 
ATOM     19  H   UNL     1      34.416 -16.858 -25.482  0.00  0.00    +0.170 HD
ENDBRANCH   2  10
BRANCH   1  20
ATOM     20  C   UNL     1      35.559 -21.858 -18.783  0.00  0.00    -0.075 C 
BRANCH  20  21
ATOM     21  C   UNL     1      34.272 -22.013 -17.967  0.00  0.00    +0.002 C 
BRANCH  21  22
ATOM     22  C   UNL     1      33.992 -23.438 -17.495  0.00  0.00    +0.108 C 
BRANCH  22  24
ATOM     23  O   UNL     1      36.045 -23.961 -15.345  0.00  0.00    -0.247 OA
ATOM     24  N   UNL     1      33.821 -23.524 -16.070  0.00  0.00    -0.280 N 
ATOM     25  N   UNL     1      34.225 -23.772 -13.848  0.00  0.00    -0.305 N 
ATOM     26  C   UNL     1      32.607 -23.373 -15.380  0.00  0.00    +0.079 A 
ATOM     27  C   UNL     1      34.856 -23.777 -15.123  0.00  0.00    +0.328 A 
ATOM     28  C   UNL     1      32.861 -23.526 -14.019  0.00  0.00    +0.076 A 
ATOM     29  C   UNL     1      31.335 -23.118 -15.851  0.00  0.00    +0.019 C 
ATOM     30  C   UNL     1      31.872 -23.434 -13.067  0.00  0.00    +0.019 C 
ATOM     31  C   UNL     1      30.312 -23.020 -14.903  0.00  0.00    +0.002 C 
ATOM     32  C   UNL     1      30.577 -23.176 -13.526  0.00  0.00    +0.002 C 
ATOM     33  H   UNL     1      34.676 -23.919 -12.984  0.00  0.00    +0.170 HD
ENDBRANCH  22  24
ENDBRANCH  21  22
ENDBRANCH  20  21
ENDBRANCH   1  20
TORSDOF 5
ENDMDL
MODEL 7
REMARK VINA RESULT:     -11.3      4.907     11.329
REMARK  Name = 3151
REMARK  5 active torsions:
REMARK  status: ('A' for Active; 'I' for Inactive)
REMARK    1  A    between atoms: N_1  and  C_20
REMARK    2  A    between atoms: C_2  and  N_10
REMARK    3  A    between atoms: C_20  and  C_21
REMARK    4  A    between atoms: C_21  and  C_22
REMARK    5  A    between atoms: C_22  and  N_24
REMARK                            x       y       z     vdW  Elec       q    Type
REMARK                         _______ _______ _______ _____ _____    ______ ____
ROOT
ATOM      1  N   UNL     1      32.796 -12.026 -21.692  0.00  0.00    +0.387 N 
ATOM      2  C   UNL     1      31.964  -9.231 -21.916  0.00  0.00    +0.086 C 
ATOM      3  C   UNL     1      33.206  -9.771 -22.624  0.00  0.00    -0.000 C 
ATOM      4  C   UNL     1      31.643 -10.082 -20.688  0.00  0.00    -0.000 C 
ATOM      5  C   UNL     1      33.070 -11.266 -22.920  0.00  0.00    -0.075 C 
ATOM      6  C   UNL     1      31.558 -11.567 -21.048  0.00  0.00    -0.075 C 
ATOM      7  H   UNL     1      33.566 -11.866 -21.044  0.00  0.00    -0.080 HD
ENDROOT
BRANCH   2  10
ATOM      8 CL   UNL     1      30.942  -2.770 -24.215  0.00  0.00    -0.082 Cl
ATOM      9  O   UNL     1      33.139  -7.991 -19.403  0.00  0.00    -0.247 OA
ATOM     10  N   UNL     1      32.141  -7.846 -21.556  0.00  0.00    -0.282 N 
ATOM     11  N   UNL     1      32.662  -5.931 -20.461  0.00  0.00    -0.305 N 
ATOM     12  C   UNL     1      31.771  -6.766 -22.369  0.00  0.00    +0.079 A 
ATOM     13  C   UNL     1      32.704  -7.350 -20.349  0.00  0.00    +0.328 A 
ATOM     14  C   UNL     1      32.094  -5.593 -21.690  0.00  0.00    +0.077 A 
ATOM     15  C   UNL     1      31.190  -6.739 -23.620  0.00  0.00    +0.020 C 
ATOM     16  C   UNL     1      31.857  -4.344 -22.219  0.00  0.00    +0.030 C 
ATOM     17  C   UNL     1      30.940  -5.481 -24.179  0.00  0.00    +0.013 C 
ATOM     18  C   UNL     1      31.270  -4.298 -23.486  0.00  0.00    +0.059 C 
ATOM     19  H   UNL     1      32.980  -5.293 -19.782  0.00  0.00    +0.170 HD
ENDBRANCH   2  10
BRANCH   1  20
ATOM     20  C   UNL     1      32.718 -13.458 -21.985  0.00  0.00    -0.075 C 
BRANCH  20  21
ATOM     21  C   UNL     1      33.306 -13.794 -23.359  0.00  0.00    +0.002 C 
BRANCH  21  22
ATOM     22  C   UNL     1      34.654 -14.509 -23.310  0.00  0.00    +0.108 C 
BRANCH  22  24
ATOM     23  O   UNL     1      33.675 -15.942 -25.780  0.00  0.00    -0.247 OA
ATOM     24  N   UNL     1      34.540 -15.919 -23.564  0.00  0.00    -0.280 N 
ATOM     25  N   UNL     1      34.127 -17.918 -24.563  0.00  0.00    -0.305 N 
ATOM     26  C   UNL     1      34.879 -16.943 -22.663  0.00  0.00    +0.079 A 
ATOM     27  C   UNL     1      34.063 -16.512 -24.769  0.00  0.00    +0.328 A 
ATOM     28  C   UNL     1      34.623 -18.165 -23.282  0.00  0.00    +0.076 A 
ATOM     29  C   UNL     1      35.381 -16.877 -21.380  0.00  0.00    +0.019 C 
ATOM     30  C   UNL     1      34.852 -19.371 -22.660  0.00  0.00    +0.019 C 
ATOM     31  C   UNL     1      35.621 -18.090 -20.726  0.00  0.00    +0.002 C 
ATOM     32  C   UNL     1      35.361 -19.324 -21.359  0.00  0.00    +0.002 C 
ATOM     33  H   UNL     1      33.863 -18.606 -25.218  0.00  0.00    +0.170 HD
ENDBRANCH  22  24
ENDBRANCH  21  22
ENDBRANCH  20  21
ENDBRANCH   1  20
TORSDOF 5
ENDMDL
MODEL 8
REMARK VINA RESULT:     -11.1      4.442     11.205
REMARK  Name = 3151
REMARK  5 active torsions:
REMARK  status: ('A' for Active; 'I' for Inactive)
REMARK    1  A    between atoms: N_1  and  C_20
REMARK    2  A    between atoms: C_2  and  N_10
REMARK    3  A    between atoms: C_20  and  C_21
REMARK    4  A    between atoms: C_21  and  C_22
REMARK    5  A    between atoms: C_22  and  N_24
REMARK                            x       y       z     vdW  Elec       q    Type
REMARK                         _______ _______ _______ _____ _____    ______ ____
ROOT
ATOM      1  N   UNL     1      35.247 -21.447 -19.232  0.00  0.00    +0.387 N 
ATOM      2  C   UNL     1      34.967 -18.866 -20.579  0.00  0.00    +0.086 C 
ATOM      3  C   UNL     1      33.819 -19.872 -20.497  0.00  0.00    -0.000 C 
ATOM      4  C   UNL     1      36.311 -19.587 -20.466  0.00  0.00    -0.000 C 
ATOM      5  C   UNL     1      33.948 -20.761 -19.259  0.00  0.00    -0.075 C 
ATOM      6  C   UNL     1      36.356 -20.484 -19.228  0.00  0.00    -0.075 C 
ATOM      7  H   UNL     1      35.322 -22.011 -20.078  0.00  0.00    -0.080 HD
ENDROOT
BRANCH   2  10
ATOM      8 CL   UNL     1      34.423 -12.382 -22.975  0.00  0.00    -0.082 Cl
ATOM      9  O   UNL     1      35.003 -19.775 -23.478  0.00  0.00    -0.247 OA
ATOM     10  N   UNL     1      34.891 -18.098 -21.797  0.00  0.00    -0.282 N 
ATOM     11  N   UNL     1      34.814 -17.471 -23.974  0.00  0.00    -0.305 N 
ATOM     12  C   UNL     1      34.780 -16.702 -21.843  0.00  0.00    +0.079 A 
ATOM     13  C   UNL     1      34.915 -18.608 -23.123  0.00  0.00    +0.328 A 
ATOM     14  C   UNL     1      34.733 -16.324 -23.184  0.00  0.00    +0.077 A 
ATOM     15  C   UNL     1      34.719 -15.769 -20.829  0.00  0.00    +0.020 C 
ATOM     16  C   UNL     1      34.624 -15.008 -23.577  0.00  0.00    +0.030 C 
ATOM     17  C   UNL     1      34.607 -14.426 -21.203  0.00  0.00    +0.013 C 
ATOM     18  C   UNL     1      34.561 -14.050 -22.561  0.00  0.00    +0.059 C 
ATOM     19  H   UNL     1      34.804 -17.491 -24.958  0.00  0.00    +0.170 HD
ENDBRANCH   2  10
BRANCH   1  20
ATOM     20  C   UNL     1      35.333 -22.331 -18.069  0.00  0.00    -0.075 C 
BRANCH  20  21
ATOM     21  C   UNL     1      36.492 -21.947 -17.144  0.00  0.00    +0.002 C 
BRANCH  21  22
ATOM     22  C   UNL     1      36.141 -21.951 -15.657  0.00  0.00    +0.108 C 
BRANCH  22  24
ATOM     23  O   UNL     1      33.615 -23.524 -15.149  0.00  0.00    -0.247 OA
ATOM     24  N   UNL     1      35.982 -23.280 -15.132  0.00  0.00    -0.280 N 
ATOM     25  N   UNL     1      35.071 -25.227 -14.395  0.00  0.00    -0.305 N 
ATOM     26  C   UNL     1      37.025 -24.135 -14.739  0.00  0.00    +0.079 A 
ATOM     27  C   UNL     1      34.740 -23.948 -14.924  0.00  0.00    +0.328 A 
ATOM     28  C   UNL     1      36.459 -25.326 -14.288  0.00  0.00    +0.076 A 
ATOM     29  C   UNL     1      38.391 -23.945 -14.750  0.00  0.00    +0.019 C 
ATOM     30  C   UNL     1      37.220 -26.379 -13.830  0.00  0.00    +0.019 C 
ATOM     31  C   UNL     1      39.185 -25.000 -14.289  0.00  0.00    +0.002 C 
ATOM     32  C   UNL     1      38.607 -26.204 -13.834  0.00  0.00    +0.002 C 
ATOM     33  H   UNL     1      34.426 -25.929 -14.144  0.00  0.00    +0.170 HD
ENDBRANCH  22  24
ENDBRANCH  21  22
ENDBRANCH  20  21
ENDBRANCH   1  20
TORSDOF 5
ENDMDL
MODEL 9
REMARK VINA RESULT:     -11.1      3.338      5.721
REMARK  Name = 3151
REMARK  5 active torsions:
REMARK  status: ('A' for Active; 'I' for Inactive)
REMARK    1  A    between atoms: N_1  and  C_20
REMARK    2  A    between atoms: C_2  and  N_10
REMARK    3  A    between atoms: C_20  and  C_21
REMARK    4  A    between atoms: C_21  and  C_22
REMARK    5  A    between atoms: C_22  and  N_24
REMARK                            x       y       z     vdW  Elec       q    Type
REMARK                         _______ _______ _______ _____ _____    ______ ____
ROOT
ATOM      1  N   UNL     1      34.658 -20.167 -19.880  0.00  0.00    +0.387 N 
ATOM      2  C   UNL     1      34.678 -22.357 -17.941  0.00  0.00    +0.086 C 
ATOM      3  C   UNL     1      33.408 -21.574 -18.274  0.00  0.00    -0.000 C 
ATOM      4  C   UNL     1      35.915 -21.503 -18.221  0.00  0.00    -0.000 C 
ATOM      5  C   UNL     1      33.464 -21.003 -19.692  0.00  0.00    -0.075 C 
ATOM      6  C   UNL     1      35.887 -20.935 -19.642  0.00  0.00    -0.075 C 
ATOM      7  H   UNL     1      34.622 -19.410 -19.199  0.00  0.00    -0.080 HD
ENDROOT
BRANCH   2  10
ATOM      8 CL   UNL     1      30.412 -24.476 -12.903  0.00  0.00    -0.082 Cl
ATOM      9  O   UNL     1      36.959 -22.757 -15.974  0.00  0.00    -0.247 OA
ATOM     10  N   UNL     1      34.659 -22.809 -16.573  0.00  0.00    -0.282 N 
ATOM     11  N   UNL     1      35.258 -23.433 -14.477  0.00  0.00    -0.305 N 
ATOM     12  C   UNL     1      33.496 -23.164 -15.876  0.00  0.00    +0.079 A 
ATOM     13  C   UNL     1      35.782 -22.969 -15.717  0.00  0.00    +0.328 A 
ATOM     14  C   UNL     1      33.871 -23.546 -14.589  0.00  0.00    +0.077 A 
ATOM     15  C   UNL     1      32.176 -23.177 -16.275  0.00  0.00    +0.020 C 
ATOM     16  C   UNL     1      32.958 -23.956 -13.644  0.00  0.00    +0.030 C 
ATOM     17  C   UNL     1      31.228 -23.588 -15.332  0.00  0.00    +0.013 C 
ATOM     18  C   UNL     1      31.615 -23.974 -14.032  0.00  0.00    +0.059 C 
ATOM     19  H   UNL     1      35.786 -23.641 -13.674  0.00  0.00    +0.170 HD
ENDBRANCH   2  10
BRANCH   1  20
ATOM     20  C   UNL     1      34.669 -19.589 -21.225  0.00  0.00    -0.075 C 
BRANCH  20  21
ATOM     21  C   UNL     1      34.898 -18.075 -21.194  0.00  0.00    +0.002 C 
BRANCH  21  22
ATOM     22  C   UNL     1      35.655 -17.526 -22.402  0.00  0.00    +0.108 C 
BRANCH  22  24
ATOM     23  O   UNL     1      34.239 -18.350 -24.938  0.00  0.00    -0.247 OA
ATOM     24  N   UNL     1      34.815 -16.750 -23.273  0.00  0.00    -0.280 N 
ATOM     25  N   UNL     1      33.462 -16.118 -24.986  0.00  0.00    -0.305 N 
ATOM     26  C   UNL     1      34.480 -15.397 -23.097  0.00  0.00    +0.079 A 
ATOM     27  C   UNL     1      34.183 -17.226 -24.459  0.00  0.00    +0.328 A 
ATOM     28  C   UNL     1      33.652 -15.016 -24.150  0.00  0.00    +0.076 A 
ATOM     29  C   UNL     1      34.843 -14.507 -22.107  0.00  0.00    +0.019 C 
ATOM     30  C   UNL     1      33.146 -13.741 -24.270  0.00  0.00    +0.019 C 
ATOM     31  C   UNL     1      34.342 -13.205 -22.206  0.00  0.00    +0.002 C 
ATOM     32  C   UNL     1      33.502 -12.826 -23.275  0.00  0.00    +0.002 C 
ATOM     33  H   UNL     1      32.918 -16.126 -25.808  0.00  0.00    +0.170 HD
ENDBRANCH  22  24
ENDBRANCH  21  22
ENDBRANCH  20  21
ENDBRANCH   1  20
TORSDOF 5
ENDMDL
