MODEL 1
REMARK VINA RESULT:     -12.3      0.000      0.000
REMARK  Name = 3168
REMARK  6 active torsions:
REMARK  status: ('A' for Active; 'I' for Inactive)
REMARK    1  A    between atoms: N_1  and  C_19
REMARK    2  A    between atoms: C_5  and  N_9
REMARK    3  A    between atoms: C_19  and  C_20
REMARK    4  A    between atoms: C_20  and  C_21
REMARK    5  A    between atoms: C_21  and  C_23
REMARK    6  A    between atoms: C_23  and  C_25
REMARK                            x       y       z     vdW  Elec       q    Type
REMARK                         _______ _______ _______ _____ _____    ______ ____
ROOT
ATOM      1  N   UNL     1      34.045 -16.084 -23.892  0.00  0.00    +0.390 N 
ATOM      2  C   UNL     1      35.106 -15.367 -23.176  0.00  0.00    -0.071 C 
ATOM      3  C   UNL     1      34.559 -14.055 -22.589  0.00  0.00    +0.021 C 
ATOM      4  C   UNL     1      33.558 -15.295 -25.036  0.00  0.00    -0.049 C 
ATOM      5  C   UNL     1      33.718 -13.288 -23.570  0.00  0.00    +0.037 C 
ATOM      6  C   UNL     1      33.273 -13.856 -24.701  0.00  0.00    -0.036 C 
ATOM      7  H   UNL     1      33.269 -16.222 -23.245  0.00  0.00    -0.079 HD
ENDROOT
BRANCH   5   9
ATOM      8  O   UNL     1      34.617 -10.813 -24.990  0.00  0.00    -0.246 OA
ATOM      9  N   UNL     1      33.442 -11.986 -23.269  0.00  0.00    -0.263 N 
ATOM     10  N   UNL     1      33.370  -9.708 -23.319  0.00  0.00    -0.305 N 
ATOM     11  C   UNL     1      32.651 -11.537 -22.194  0.00  0.00    +0.083 A 
ATOM     12  C   UNL     1      33.907 -10.839 -23.994  0.00  0.00    +0.332 A 
ATOM     13  C   UNL     1      32.614 -10.145 -22.233  0.00  0.00    +0.076 A 
ATOM     14  C   UNL     1      31.983 -12.242 -21.213  0.00  0.00    +0.019 C 
ATOM     15  C   UNL     1      31.919  -9.394 -21.310  0.00  0.00    +0.019 C 
ATOM     16  C   UNL     1      31.270 -11.502 -20.263  0.00  0.00    +0.002 C 
ATOM     17  C   UNL     1      31.238 -10.093 -20.312  0.00  0.00    +0.002 C 
ATOM     18  H   UNL     1      33.510  -8.768 -23.577  0.00  0.00    +0.170 HD
ENDBRANCH   5   9
BRANCH   1  19
ATOM     19  C   UNL     1      34.505 -17.401 -24.331  0.00  0.00    -0.076 C 
BRANCH  19  20
ATOM     20  C   UNL     1      34.149 -18.460 -23.286  0.00  0.00    -0.015 C 
BRANCH  20  21
ATOM     21  C   UNL     1      35.383 -18.985 -22.546  0.00  0.00    +0.067 C 
BRANCH  21  23
ATOM     22  O   UNL     1      35.582 -17.759 -20.476  0.00  0.00    -0.291 OA
ATOM     23  C   UNL     1      35.299 -18.816 -21.036  0.00  0.00    +0.173 C 
BRANCH  23  25
ATOM     24  F   UNL     1      33.574 -23.136 -17.948  0.00  0.00    -0.204 F 
ATOM     25  C   UNL     1      34.839 -19.971 -20.213  0.00  0.00    +0.035 C 
ATOM     26  C   UNL     1      33.486 -20.179 -20.065  0.00  0.00    +0.005 C 
ATOM     27  C   UNL     1      35.783 -20.785 -19.629  0.00  0.00    +0.005 C 
ATOM     28  C   UNL     1      33.055 -21.258 -19.293  0.00  0.00    +0.030 C 
ATOM     29  C   UNL     1      35.353 -21.864 -18.856  0.00  0.00    +0.030 C 
ATOM     30  C   UNL     1      33.987 -22.100 -18.689  0.00  0.00    +0.140 C 
ENDBRANCH  23  25
ENDBRANCH  21  23
ENDBRANCH  20  21
ENDBRANCH  19  20
ENDBRANCH   1  19
TORSDOF 6
ENDMDL
MODEL 2
REMARK VINA RESULT:     -12.1      3.684      9.164
REMARK  Name = 3168
REMARK  6 active torsions:
REMARK  status: ('A' for Active; 'I' for Inactive)
REMARK    1  A    between atoms: N_1  and  C_19
REMARK    2  A    between atoms: C_5  and  N_9
REMARK    3  A    between atoms: C_19  and  C_20
REMARK    4  A    between atoms: C_20  and  C_21
REMARK    5  A    between atoms: C_21  and  C_23
REMARK    6  A    between atoms: C_23  and  C_25
REMARK                            x       y       z     vdW  Elec       q    Type
REMARK                         _______ _______ _______ _____ _____    ______ ____
ROOT
ATOM      1  N   UNL     1      34.227 -15.727 -23.043  0.00  0.00    +0.390 N 
ATOM      2  C   UNL     1      34.930 -16.794 -23.764  0.00  0.00    -0.071 C 
ATOM      3  C   UNL     1      34.923 -18.090 -22.938  0.00  0.00    +0.021 C 
ATOM      4  C   UNL     1      34.911 -15.411 -21.778  0.00  0.00    -0.049 C 
ATOM      5  C   UNL     1      35.271 -17.858 -21.494  0.00  0.00    +0.037 C 
ATOM      6  C   UNL     1      35.279 -16.624 -20.969  0.00  0.00    -0.036 C 
ATOM      7  H   UNL     1      33.289 -16.064 -22.824  0.00  0.00    -0.079 HD
ENDROOT
BRANCH   5   9
ATOM      8  O   UNL     1      37.981 -18.830 -20.679  0.00  0.00    -0.246 OA
ATOM      9  N   UNL     1      35.593 -18.955 -20.747  0.00  0.00    -0.263 N 
ATOM     10  N   UNL     1      36.763 -20.550 -19.616  0.00  0.00    -0.305 N 
ATOM     11  C   UNL     1      34.681 -19.874 -20.195  0.00  0.00    +0.083 A 
ATOM     12  C   UNL     1      36.920 -19.367 -20.391  0.00  0.00    +0.332 A 
ATOM     13  C   UNL     1      35.406 -20.844 -19.506  0.00  0.00    +0.076 A 
ATOM     14  C   UNL     1      33.303 -19.919 -20.252  0.00  0.00    +0.019 C 
ATOM     15  C   UNL     1      34.803 -21.894 -18.848  0.00  0.00    +0.019 C 
ATOM     16  C   UNL     1      32.666 -20.976 -19.592  0.00  0.00    +0.002 C 
ATOM     17  C   UNL     1      33.409 -21.953 -18.897  0.00  0.00    +0.002 C 
ATOM     18  H   UNL     1      37.496 -21.076 -19.220  0.00  0.00    +0.170 HD
ENDBRANCH   5   9
BRANCH   1  19
ATOM     19  C   UNL     1      34.094 -14.531 -23.872  0.00  0.00    -0.076 C 
BRANCH  19  20
ATOM     20  C   UNL     1      33.966 -13.288 -22.990  0.00  0.00    -0.015 C 
BRANCH  20  21
ATOM     21  C   UNL     1      32.505 -12.927 -22.702  0.00  0.00    +0.067 C 
BRANCH  21  23
ATOM     22  O   UNL     1      32.133 -13.658 -20.432  0.00  0.00    -0.291 OA
ATOM     23  C   UNL     1      32.215 -12.721 -21.222  0.00  0.00    +0.173 C 
BRANCH  23  25
ATOM     24  F   UNL     1      31.581  -7.508 -19.327  0.00  0.00    -0.204 F 
ATOM     25  C   UNL     1      32.044 -11.329 -20.715  0.00  0.00    +0.035 C 
ATOM     26  C   UNL     1      31.919 -10.305 -21.627  0.00  0.00    +0.005 C 
ATOM     27  C   UNL     1      32.019 -11.119 -19.355  0.00  0.00    +0.005 C 
ATOM     28  C   UNL     1      31.761  -9.002 -21.154  0.00  0.00    +0.030 C 
ATOM     29  C   UNL     1      31.862  -9.817 -18.881  0.00  0.00    +0.030 C 
ATOM     30  C   UNL     1      31.732  -8.758 -19.781  0.00  0.00    +0.140 C 
ENDBRANCH  23  25
ENDBRANCH  21  23
ENDBRANCH  20  21
ENDBRANCH  19  20
ENDBRANCH   1  19
TORSDOF 6
ENDMDL
MODEL 3
REMARK VINA RESULT:     -11.8      1.407      2.294
REMARK  Name = 3168
REMARK  6 active torsions:
REMARK  status: ('A' for Active; 'I' for Inactive)
REMARK    1  A    between atoms: N_1  and  C_19
REMARK    2  A    between atoms: C_5  and  N_9
REMARK    3  A    between atoms: C_19  and  C_20
REMARK    4  A    between atoms: C_20  and  C_21
REMARK    5  A    between atoms: C_21  and  C_23
REMARK    6  A    between atoms: C_23  and  C_25
REMARK                            x       y       z     vdW  Elec       q    Type
REMARK                         _______ _______ _______ _____ _____    ______ ____
ROOT
ATOM      1  N   UNL     1      34.147 -16.129 -23.590  0.00  0.00    +0.390 N 
ATOM      2  C   UNL     1      35.141 -15.358 -22.833  0.00  0.00    -0.071 C 
ATOM      3  C   UNL     1      34.458 -14.213 -22.069  0.00  0.00    +0.021 C 
ATOM      4  C   UNL     1      33.496 -15.287 -24.608  0.00  0.00    -0.049 C 
ATOM      5  C   UNL     1      33.468 -13.462 -22.914  0.00  0.00    +0.037 C 
ATOM      6  C   UNL     1      33.040 -13.952 -24.088  0.00  0.00    -0.036 C 
ATOM      7  H   UNL     1      33.434 -16.447 -22.934  0.00  0.00    -0.079 HD
ENDROOT
BRANCH   5   9
ATOM      8  O   UNL     1      31.545 -12.902 -20.691  0.00  0.00    -0.246 OA
ATOM      9  N   UNL     1      33.037 -12.255 -22.445  0.00  0.00    -0.263 N 
ATOM     10  N   UNL     1      31.965 -10.645 -21.239  0.00  0.00    -0.305 N 
ATOM     11  C   UNL     1      33.428 -10.993 -22.932  0.00  0.00    +0.083 A 
ATOM     12  C   UNL     1      32.109 -12.054 -21.370  0.00  0.00    +0.332 A 
ATOM     13  C   UNL     1      32.767 -10.016 -22.188  0.00  0.00    +0.076 A 
ATOM     14  C   UNL     1      34.295 -10.650 -23.949  0.00  0.00    +0.019 C 
ATOM     15  C   UNL     1      32.935  -8.668 -22.418  0.00  0.00    +0.019 C 
ATOM     16  C   UNL     1      34.482  -9.286 -24.203  0.00  0.00    +0.002 C 
ATOM     17  C   UNL     1      33.809  -8.306 -23.445  0.00  0.00    +0.002 C 
ATOM     18  H   UNL     1      31.391 -10.187 -20.582  0.00  0.00    +0.170 HD
ENDBRANCH   5   9
BRANCH   1  19
ATOM     19  C   UNL     1      34.754 -17.308 -24.205  0.00  0.00    -0.076 C 
BRANCH  19  20
ATOM     20  C   UNL     1      34.401 -18.562 -23.403  0.00  0.00    -0.015 C 
BRANCH  20  21
ATOM     21  C   UNL     1      35.546 -19.009 -22.489  0.00  0.00    +0.067 C 
BRANCH  21  23
ATOM     22  O   UNL     1      35.357 -17.719 -20.457  0.00  0.00    -0.291 OA
ATOM     23  C   UNL     1      35.250 -18.812 -21.009  0.00  0.00    +0.173 C 
BRANCH  23  25
ATOM     24  F   UNL     1      33.551 -23.210 -18.019  0.00  0.00    -0.204 F 
ATOM     25  C   UNL     1      34.795 -19.985 -20.209  0.00  0.00    +0.035 C 
ATOM     26  C   UNL     1      35.745 -20.812 -19.652  0.00  0.00    +0.005 C 
ATOM     27  C   UNL     1      33.444 -20.201 -20.060  0.00  0.00    +0.005 C 
ATOM     28  C   UNL     1      35.321 -21.911 -18.905  0.00  0.00    +0.030 C 
ATOM     29  C   UNL     1      33.019 -21.300 -19.313  0.00  0.00    +0.030 C 
ATOM     30  C   UNL     1      33.958 -22.155 -18.736  0.00  0.00    +0.140 C 
ENDBRANCH  23  25
ENDBRANCH  21  23
ENDBRANCH  20  21
ENDBRANCH  19  20
ENDBRANCH   1  19
TORSDOF 6
ENDMDL
MODEL 4
REMARK VINA RESULT:     -11.7      3.052      8.786
REMARK  Name = 3168
REMARK  6 active torsions:
REMARK  status: ('A' for Active; 'I' for Inactive)
REMARK    1  A    between atoms: N_1  and  C_19
REMARK    2  A    between atoms: C_5  and  N_9
REMARK    3  A    between atoms: C_19  and  C_20
REMARK    4  A    between atoms: C_20  and  C_21
REMARK    5  A    between atoms: C_21  and  C_23
REMARK    6  A    between atoms: C_23  and  C_25
REMARK                            x       y       z     vdW  Elec       q    Type
REMARK                         _______ _______ _______ _____ _____    ______ ____
ROOT
ATOM      1  N   UNL     1      34.784 -16.078 -24.013  0.00  0.00    +0.390 N 
ATOM      2  C   UNL     1      34.603 -15.664 -22.617  0.00  0.00    -0.071 C 
ATOM      3  C   UNL     1      35.390 -16.593 -21.679  0.00  0.00    +0.021 C 
ATOM      4  C   UNL     1      34.247 -17.432 -24.232  0.00  0.00    -0.049 C 
ATOM      5  C   UNL     1      35.210 -18.046 -22.020  0.00  0.00    +0.037 C 
ATOM      6  C   UNL     1      34.670 -18.427 -23.187  0.00  0.00    -0.036 C 
ATOM      7  H   UNL     1      35.785 -16.096 -24.206  0.00  0.00    -0.079 HD
ENDROOT
BRANCH   5   9
ATOM      8  O   UNL     1      37.970 -18.619 -21.017  0.00  0.00    -0.246 OA
ATOM      9  N   UNL     1      35.604 -18.958 -21.083  0.00  0.00    -0.263 N 
ATOM     10  N   UNL     1      36.874 -20.218 -19.670  0.00  0.00    -0.305 N 
ATOM     11  C   UNL     1      34.758 -19.838 -20.381  0.00  0.00    +0.083 A 
ATOM     12  C   UNL     1      36.951 -19.184 -20.646  0.00  0.00    +0.332 A 
ATOM     13  C   UNL     1      35.544 -20.603 -19.521  0.00  0.00    +0.076 A 
ATOM     14  C   UNL     1      33.390 -20.011 -20.441  0.00  0.00    +0.019 C 
ATOM     15  C   UNL     1      35.014 -21.564 -18.689  0.00  0.00    +0.019 C 
ATOM     16  C   UNL     1      32.827 -20.982 -19.606  0.00  0.00    +0.002 C 
ATOM     17  C   UNL     1      33.631 -21.751 -18.739  0.00  0.00    +0.002 C 
ATOM     18  H   UNL     1      37.638 -20.599 -19.180  0.00  0.00    +0.170 HD
ENDBRANCH   5   9
BRANCH   1  19
ATOM     19  C   UNL     1      34.165 -15.122 -24.929  0.00  0.00    -0.076 C 
BRANCH  19  20
ATOM     20  C   UNL     1      33.317 -14.116 -24.149  0.00  0.00    -0.015 C 
BRANCH  20  21
ATOM     21  C   UNL     1      33.315 -12.729 -24.800  0.00  0.00    +0.067 C 
BRANCH  21  23
ATOM     22  O   UNL     1      34.831 -11.005 -24.053  0.00  0.00    -0.291 OA
ATOM     23  C   UNL     1      33.785 -11.623 -23.866  0.00  0.00    +0.173 C 
BRANCH  23  25
ATOM     24  F   UNL     1      30.601 -10.286 -19.479  0.00  0.00    -0.204 F 
ATOM     25  C   UNL     1      32.933 -11.267 -22.695  0.00  0.00    +0.035 C 
ATOM     26  C   UNL     1      32.568  -9.951 -22.521  0.00  0.00    +0.005 C 
ATOM     27  C   UNL     1      32.546 -12.266 -21.831  0.00  0.00    +0.005 C 
ATOM     28  C   UNL     1      31.773  -9.616 -21.424  0.00  0.00    +0.030 C 
ATOM     29  C   UNL     1      31.751 -11.932 -20.734  0.00  0.00    +0.030 C 
ATOM     30  C   UNL     1      31.364 -10.607 -20.531  0.00  0.00    +0.140 C 
ENDBRANCH  23  25
ENDBRANCH  21  23
ENDBRANCH  20  21
ENDBRANCH  19  20
ENDBRANCH   1  19
TORSDOF 6
ENDMDL
MODEL 5
REMARK VINA RESULT:     -11.4      3.689      6.805
REMARK  Name = 3168
REMARK  6 active torsions:
REMARK  status: ('A' for Active; 'I' for Inactive)
REMARK    1  A    between atoms: N_1  and  C_19
REMARK    2  A    between atoms: C_5  and  N_9
REMARK    3  A    between atoms: C_19  and  C_20
REMARK    4  A    between atoms: C_20  and  C_21
REMARK    5  A    between atoms: C_21  and  C_23
REMARK    6  A    between atoms: C_23  and  C_25
REMARK                            x       y       z     vdW  Elec       q    Type
REMARK                         _______ _______ _______ _____ _____    ______ ____
ROOT
ATOM      1  N   UNL     1      35.312 -21.053 -18.616  0.00  0.00    +0.390 N 
ATOM      2  C   UNL     1      36.464 -20.925 -19.517  0.00  0.00    -0.071 C 
ATOM      3  C   UNL     1      36.416 -19.577 -20.253  0.00  0.00    +0.021 C 
ATOM      4  C   UNL     1      34.050 -21.045 -19.374  0.00  0.00    -0.049 C 
ATOM      5  C   UNL     1      35.049 -19.262 -20.795  0.00  0.00    +0.037 C 
ATOM      6  C   UNL     1      33.967 -19.949 -20.400  0.00  0.00    -0.036 C 
ATOM      7  H   UNL     1      35.314 -20.249 -17.990  0.00  0.00    -0.079 HD
ENDROOT
BRANCH   5   9
ATOM      8  O   UNL     1      34.927 -19.472 -23.777  0.00  0.00    -0.246 OA
ATOM      9  N   UNL     1      34.961 -18.258 -21.717  0.00  0.00    -0.263 N 
ATOM     10  N   UNL     1      34.819 -17.116 -23.684  0.00  0.00    -0.305 N 
ATOM     11  C   UNL     1      34.908 -16.880 -21.433  0.00  0.00    +0.083 A 
ATOM     12  C   UNL     1      34.906 -18.427 -23.139  0.00  0.00    +0.332 A 
ATOM     13  C   UNL     1      34.821 -16.191 -22.642  0.00  0.00    +0.076 A 
ATOM     14  C   UNL     1      34.930 -16.207 -20.229  0.00  0.00    +0.019 C 
ATOM     15  C   UNL     1      34.753 -14.817 -22.710  0.00  0.00    +0.019 C 
ATOM     16  C   UNL     1      34.862 -14.810 -20.271  0.00  0.00    +0.002 C 
ATOM     17  C   UNL     1      34.774 -14.123 -21.499  0.00  0.00    +0.002 C 
ATOM     18  H   UNL     1      34.766 -16.896 -24.643  0.00  0.00    +0.170 HD
ENDBRANCH   5   9
BRANCH   1  19
ATOM     19  C   UNL     1      35.417 -22.261 -17.798  0.00  0.00    -0.076 C 
BRANCH  19  20
ATOM     20  C   UNL     1      36.402 -22.037 -16.650  0.00  0.00    -0.015 C 
BRANCH  20  21
ATOM     21  C   UNL     1      35.761 -22.273 -15.279  0.00  0.00    +0.067 C 
BRANCH  21  23
ATOM     22  O   UNL     1      35.317 -24.644 -15.362  0.00  0.00    -0.291 OA
ATOM     23  C   UNL     1      34.870 -23.507 -15.234  0.00  0.00    +0.173 C 
BRANCH  23  25
ATOM     24  F   UNL     1      29.395 -22.817 -14.385  0.00  0.00    -0.204 F 
ATOM     25  C   UNL     1      33.408 -23.324 -15.006  0.00  0.00    +0.035 C 
ATOM     26  C   UNL     1      32.583 -23.177 -16.099  0.00  0.00    +0.005 C 
ATOM     27  C   UNL     1      32.937 -23.307 -13.713  0.00  0.00    +0.005 C 
ATOM     28  C   UNL     1      31.215 -23.004 -15.887  0.00  0.00    +0.030 C 
ATOM     29  C   UNL     1      31.569 -23.134 -13.501  0.00  0.00    +0.030 C 
ATOM     30  C   UNL     1      30.708 -22.982 -14.589  0.00  0.00    +0.140 C 
ENDBRANCH  23  25
ENDBRANCH  21  23
ENDBRANCH  20  21
ENDBRANCH  19  20
ENDBRANCH   1  19
TORSDOF 6
ENDMDL
MODEL 6
REMARK VINA RESULT:     -11.4      3.603      6.342
REMARK  Name = 3168
REMARK  6 active torsions:
REMARK  status: ('A' for Active; 'I' for Inactive)
REMARK    1  A    between atoms: N_1  and  C_19
REMARK    2  A    between atoms: C_5  and  N_9
REMARK    3  A    between atoms: C_19  and  C_20
REMARK    4  A    between atoms: C_20  and  C_21
REMARK    5  A    between atoms: C_21  and  C_23
REMARK    6  A    between atoms: C_23  and  C_25
REMARK                            x       y       z     vdW  Elec       q    Type
REMARK                         _______ _______ _______ _____ _____    ______ ____
ROOT
ATOM      1  N   UNL     1      35.629 -20.464 -19.126  0.00  0.00    +0.390 N 
ATOM      2  C   UNL     1      36.752 -20.141 -20.014  0.00  0.00    -0.071 C 
ATOM      3  C   UNL     1      36.519 -18.784 -20.695  0.00  0.00    +0.021 C 
ATOM      4  C   UNL     1      34.378 -20.599 -19.891  0.00  0.00    -0.049 C 
ATOM      5  C   UNL     1      35.122 -18.638 -21.232  0.00  0.00    +0.037 C 
ATOM      6  C   UNL     1      34.145 -19.483 -20.872  0.00  0.00    -0.036 C 
ATOM      7  H   UNL     1      35.519 -19.693 -18.467  0.00  0.00    -0.079 HD
ENDROOT
BRANCH   5   9
ATOM      8  O   UNL     1      34.710 -18.786 -24.192  0.00  0.00    -0.246 OA
ATOM      9  N   UNL     1      34.897 -17.619 -22.113  0.00  0.00    -0.263 N 
ATOM     10  N   UNL     1      34.507 -16.440 -24.024  0.00  0.00    -0.305 N 
ATOM     11  C   UNL     1      34.811 -16.252 -21.788  0.00  0.00    +0.083 A 
ATOM     12  C   UNL     1      34.707 -17.759 -23.527  0.00  0.00    +0.332 A 
ATOM     13  C   UNL     1      34.572 -15.541 -22.963  0.00  0.00    +0.076 A 
ATOM     14  C   UNL     1      34.923 -15.606 -20.574  0.00  0.00    +0.019 C 
ATOM     15  C   UNL     1      34.436 -14.170 -22.986  0.00  0.00    +0.019 C 
ATOM     16  C   UNL     1      34.789 -14.213 -20.571  0.00  0.00    +0.002 C 
ATOM     17  C   UNL     1      34.547 -13.503 -21.765  0.00  0.00    +0.002 C 
ATOM     18  H   UNL     1      34.348 -16.202 -24.967  0.00  0.00    +0.170 HD
ENDBRANCH   5   9
BRANCH   1  19
ATOM     19  C   UNL     1      35.899 -21.678 -18.357  0.00  0.00    -0.076 C 
BRANCH  19  20
ATOM     20  C   UNL     1      34.671 -22.590 -18.361  0.00  0.00    -0.015 C 
BRANCH  20  21
ATOM     21  C   UNL     1      34.162 -22.888 -16.948  0.00  0.00    +0.067 C 
BRANCH  21  23
ATOM     22  O   UNL     1      31.950 -22.287 -17.704  0.00  0.00    -0.291 OA
ATOM     23  C   UNL     1      32.654 -22.742 -16.805  0.00  0.00    +0.173 C 
BRANCH  23  25
ATOM     24  F   UNL     1      30.241 -24.399 -12.050  0.00  0.00    -0.204 F 
ATOM     25  C   UNL     1      32.010 -23.186 -15.536  0.00  0.00    +0.035 C 
ATOM     26  C   UNL     1      30.640 -23.107 -15.428  0.00  0.00    +0.005 C 
ATOM     27  C   UNL     1      32.809 -23.657 -14.518  0.00  0.00    +0.005 C 
ATOM     28  C   UNL     1      30.037 -23.521 -14.239  0.00  0.00    +0.030 C 
ATOM     29  C   UNL     1      32.207 -24.070 -13.330  0.00  0.00    +0.030 C 
ATOM     30  C   UNL     1      30.820 -24.002 -13.191  0.00  0.00    +0.140 C 
ENDBRANCH  23  25
ENDBRANCH  21  23
ENDBRANCH  20  21
ENDBRANCH  19  20
ENDBRANCH   1  19
TORSDOF 6
ENDMDL
MODEL 7
REMARK VINA RESULT:     -11.2      5.435     11.198
REMARK  Name = 3168
REMARK  6 active torsions:
REMARK  status: ('A' for Active; 'I' for Inactive)
REMARK    1  A    between atoms: N_1  and  C_19
REMARK    2  A    between atoms: C_5  and  N_9
REMARK    3  A    between atoms: C_19  and  C_20
REMARK    4  A    between atoms: C_20  and  C_21
REMARK    5  A    between atoms: C_21  and  C_23
REMARK    6  A    between atoms: C_23  and  C_25
REMARK                            x       y       z     vdW  Elec       q    Type
REMARK                         _______ _______ _______ _____ _____    ______ ____
ROOT
ATOM      1  N   UNL     1      35.637 -21.314 -18.366  0.00  0.00    +0.390 N 
ATOM      2  C   UNL     1      34.733 -22.406 -18.745  0.00  0.00    -0.071 C 
ATOM      3  C   UNL     1      33.861 -22.816 -17.548  0.00  0.00    +0.021 C 
ATOM      4  C   UNL     1      36.568 -21.747 -17.310  0.00  0.00    -0.049 C 
ATOM      5  C   UNL     1      34.652 -22.955 -16.277  0.00  0.00    +0.037 C 
ATOM      6  C   UNL     1      35.901 -22.477 -16.177  0.00  0.00    -0.036 C 
ATOM      7  H   UNL     1      35.069 -20.551 -17.998  0.00  0.00    -0.079 HD
ENDROOT
BRANCH   5   9
ATOM      8  O   UNL     1      35.893 -24.741 -14.222  0.00  0.00    -0.246 OA
ATOM      9  N   UNL     1      34.050 -23.604 -15.237  0.00  0.00    -0.263 N 
ATOM     10  N   UNL     1      33.687 -24.897 -13.396  0.00  0.00    -0.305 N 
ATOM     11  C   UNL     1      32.680 -23.557 -14.918  0.00  0.00    +0.083 A 
ATOM     12  C   UNL     1      34.705 -24.450 -14.283  0.00  0.00    +0.332 A 
ATOM     13  C   UNL     1      32.468 -24.350 -13.792  0.00  0.00    +0.076 A 
ATOM     14  C   UNL     1      31.636 -22.889 -15.526  0.00  0.00    +0.019 C 
ATOM     15  C   UNL     1      31.225 -24.516 -13.223  0.00  0.00    +0.019 C 
ATOM     16  C   UNL     1      30.362 -23.041 -14.967  0.00  0.00    +0.002 C 
ATOM     17  C   UNL     1      30.159 -23.846 -13.827  0.00  0.00    +0.002 C 
ATOM     18  H   UNL     1      33.821 -25.497 -12.626  0.00  0.00    +0.170 HD
ENDBRANCH   5   9
BRANCH   1  19
ATOM     19  C   UNL     1      36.370 -20.811 -19.527  0.00  0.00    -0.076 C 
BRANCH  19  20
ATOM     20  C   UNL     1      35.473 -19.892 -20.359  0.00  0.00    -0.015 C 
BRANCH  20  21
ATOM     21  C   UNL     1      36.262 -18.766 -21.034  0.00  0.00    +0.067 C 
BRANCH  21  23
ATOM     22  O   UNL     1      35.355 -16.789 -19.987  0.00  0.00    -0.291 OA
ATOM     23  C   UNL     1      35.537 -17.428 -21.021  0.00  0.00    +0.173 C 
BRANCH  23  25
ATOM     24  F   UNL     1      33.711 -15.334 -25.865  0.00  0.00    -0.204 F 
ATOM     25  C   UNL     1      35.048 -16.868 -22.314  0.00  0.00    +0.035 C 
ATOM     26  C   UNL     1      34.713 -17.740 -23.326  0.00  0.00    +0.005 C 
ATOM     27  C   UNL     1      34.951 -15.502 -22.449  0.00  0.00    +0.005 C 
ATOM     28  C   UNL     1      34.257 -17.217 -24.536  0.00  0.00    +0.030 C 
ATOM     29  C   UNL     1      34.496 -14.978 -23.659  0.00  0.00    +0.030 C 
ATOM     30  C   UNL     1      34.149 -15.836 -24.703  0.00  0.00    +0.140 C 
ENDBRANCH  23  25
ENDBRANCH  21  23
ENDBRANCH  20  21
ENDBRANCH  19  20
ENDBRANCH   1  19
TORSDOF 6
ENDMDL
MODEL 8
REMARK VINA RESULT:     -11.1      4.604      7.261
REMARK  Name = 3168
REMARK  6 active torsions:
REMARK  status: ('A' for Active; 'I' for Inactive)
REMARK    1  A    between atoms: N_1  and  C_19
REMARK    2  A    between atoms: C_5  and  N_9
REMARK    3  A    between atoms: C_19  and  C_20
REMARK    4  A    between atoms: C_20  and  C_21
REMARK    5  A    between atoms: C_21  and  C_23
REMARK    6  A    between atoms: C_23  and  C_25
REMARK                            x       y       z     vdW  Elec       q    Type
REMARK                         _______ _______ _______ _____ _____    ______ ____
ROOT
ATOM      1  N   UNL     1      35.574 -20.822 -18.747  0.00  0.00    +0.390 N 
ATOM      2  C   UNL     1      36.705 -20.605 -19.657  0.00  0.00    -0.071 C 
ATOM      3  C   UNL     1      36.549 -19.264 -20.391  0.00  0.00    +0.021 C 
ATOM      4  C   UNL     1      34.309 -20.909 -19.496  0.00  0.00    -0.049 C 
ATOM      5  C   UNL     1      35.159 -19.053 -20.921  0.00  0.00    +0.037 C 
ATOM      6  C   UNL     1      34.135 -19.821 -20.520  0.00  0.00    -0.036 C 
ATOM      7  H   UNL     1      35.520 -20.021 -18.120  0.00  0.00    -0.079 HD
ENDROOT
BRANCH   5   9
ATOM      8  O   UNL     1      34.881 -19.283 -23.892  0.00  0.00    -0.246 OA
ATOM      9  N   UNL     1      34.987 -18.058 -21.840  0.00  0.00    -0.263 N 
ATOM     10  N   UNL     1      34.701 -16.931 -23.801  0.00  0.00    -0.305 N 
ATOM     11  C   UNL     1      34.904 -16.681 -21.560  0.00  0.00    +0.083 A 
ATOM     12  C   UNL     1      34.860 -18.237 -23.257  0.00  0.00    +0.332 A 
ATOM     13  C   UNL     1      34.729 -16.002 -22.764  0.00  0.00    +0.076 A 
ATOM     14  C   UNL     1      34.969 -16.001 -20.360  0.00  0.00    +0.019 C 
ATOM     15  C   UNL     1      34.612 -14.631 -22.833  0.00  0.00    +0.019 C 
ATOM     16  C   UNL     1      34.853 -14.607 -20.404  0.00  0.00    +0.002 C 
ATOM     17  C   UNL     1      34.676 -13.930 -21.628  0.00  0.00    +0.002 C 
ATOM     18  H   UNL     1      34.588 -16.719 -24.756  0.00  0.00    +0.170 HD
ENDBRANCH   5   9
BRANCH   1  19
ATOM     19  C   UNL     1      35.776 -22.019 -17.933  0.00  0.00    -0.076 C 
BRANCH  19  20
ATOM     20  C   UNL     1      36.883 -21.778 -16.905  0.00  0.00    -0.015 C 
BRANCH  20  21
ATOM     21  C   UNL     1      36.405 -22.014 -15.470  0.00  0.00    +0.067 C 
BRANCH  21  23
ATOM     22  O   UNL     1      38.382 -23.350 -15.104  0.00  0.00    -0.291 OA
ATOM     23  C   UNL     1      37.283 -22.984 -14.693  0.00  0.00    +0.173 C 
BRANCH  23  25
ATOM     24  F   UNL     1      35.460 -24.879  -9.767  0.00  0.00    -0.204 F 
ATOM     25  C   UNL     1      36.797 -23.492 -13.378  0.00  0.00    +0.035 C 
ATOM     26  C   UNL     1      35.440 -23.592 -13.170  0.00  0.00    +0.005 C 
ATOM     27  C   UNL     1      37.722 -23.840 -12.420  0.00  0.00    +0.005 C 
ATOM     28  C   UNL     1      34.984 -24.065 -11.939  0.00  0.00    +0.030 C 
ATOM     29  C   UNL     1      37.267 -24.313 -11.189  0.00  0.00    +0.030 C 
ATOM     30  C   UNL     1      35.897 -24.425 -10.948  0.00  0.00    +0.140 C 
ENDBRANCH  23  25
ENDBRANCH  21  23
ENDBRANCH  20  21
ENDBRANCH  19  20
ENDBRANCH   1  19
TORSDOF 6
ENDMDL
MODEL 9
REMARK VINA RESULT:     -11.0      2.592      4.079
REMARK  Name = 3168
REMARK  6 active torsions:
REMARK  status: ('A' for Active; 'I' for Inactive)
REMARK    1  A    between atoms: N_1  and  C_19
REMARK    2  A    between atoms: C_5  and  N_9
REMARK    3  A    between atoms: C_19  and  C_20
REMARK    4  A    between atoms: C_20  and  C_21
REMARK    5  A    between atoms: C_21  and  C_23
REMARK    6  A    between atoms: C_23  and  C_25
REMARK                            x       y       z     vdW  Elec       q    Type
REMARK                         _______ _______ _______ _____ _____    ______ ____
ROOT
ATOM      1  N   UNL     1      33.359 -12.828 -22.489  0.00  0.00    +0.390 N 
ATOM      2  C   UNL     1      33.429 -11.728 -23.459  0.00  0.00    -0.071 C 
ATOM      3  C   UNL     1      33.446 -10.376 -22.730  0.00  0.00    +0.021 C 
ATOM      4  C   UNL     1      32.109 -12.764 -21.714  0.00  0.00    -0.049 C 
ATOM      5  C   UNL     1      32.419 -10.295 -21.635  0.00  0.00    +0.037 C 
ATOM      6  C   UNL     1      31.795 -11.393 -21.182  0.00  0.00    -0.036 C 
ATOM      7  H   UNL     1      34.141 -12.725 -21.843  0.00  0.00    -0.079 HD
ENDROOT
BRANCH   5   9
ATOM      8  O   UNL     1      32.642  -9.326 -18.813  0.00  0.00    -0.246 OA
ATOM      9  N   UNL     1      32.137  -9.056 -21.135  0.00  0.00    -0.263 N 
ATOM     10  N   UNL     1      31.865  -7.290 -19.720  0.00  0.00    -0.305 N 
ATOM     11  C   UNL     1      31.672  -7.954 -21.876  0.00  0.00    +0.083 A 
ATOM     12  C   UNL     1      32.266  -8.655 -19.765  0.00  0.00    +0.332 A 
ATOM     13  C   UNL     1      31.508  -6.881 -21.003  0.00  0.00    +0.076 A 
ATOM     14  C   UNL     1      31.389  -7.828 -23.221  0.00  0.00    +0.019 C 
ATOM     15  C   UNL     1      31.061  -5.646 -21.419  0.00  0.00    +0.019 C 
ATOM     16  C   UNL     1      30.933  -6.584 -23.669  0.00  0.00    +0.002 C 
ATOM     17  C   UNL     1      30.771  -5.504 -22.777  0.00  0.00    +0.002 C 
ATOM     18  H   UNL     1      31.843  -6.727 -18.913  0.00  0.00    +0.170 HD
ENDBRANCH   5   9
BRANCH   1  19
ATOM     19  C   UNL     1      33.491 -14.124 -23.154  0.00  0.00    -0.076 C 
BRANCH  19  20
ATOM     20  C   UNL     1      34.517 -14.991 -22.422  0.00  0.00    -0.015 C 
BRANCH  20  21
ATOM     21  C   UNL     1      35.282 -15.914 -23.374  0.00  0.00    +0.067 C 
BRANCH  21  23
ATOM     22  O   UNL     1      34.059 -17.822 -24.207  0.00  0.00    -0.291 OA
ATOM     23  C   UNL     1      34.794 -17.356 -23.340  0.00  0.00    +0.173 C 
BRANCH  23  25
ATOM     24  F   UNL     1      36.470 -20.645 -19.150  0.00  0.00    -0.204 F 
ATOM     25  C   UNL     1      35.243 -18.235 -22.222  0.00  0.00    +0.035 C 
ATOM     26  C   UNL     1      34.345 -19.129 -21.684  0.00  0.00    +0.005 C 
ATOM     27  C   UNL     1      36.537 -18.119 -21.768  0.00  0.00    +0.005 C 
ATOM     28  C   UNL     1      34.763 -19.951 -20.637  0.00  0.00    +0.030 C 
ATOM     29  C   UNL     1      36.956 -18.939 -20.720  0.00  0.00    +0.030 C 
ATOM     30  C   UNL     1      36.068 -19.856 -20.155  0.00  0.00    +0.140 C 
ENDBRANCH  23  25
ENDBRANCH  21  23
ENDBRANCH  20  21
ENDBRANCH  19  20
ENDBRANCH   1  19
TORSDOF 6
ENDMDL
