MODEL 1
REMARK VINA RESULT:     -12.3      0.000      0.000
REMARK  Name = 11282283
REMARK  4 active torsions:
REMARK  status: ('A' for Active; 'I' for Inactive)
REMARK    1  A    between atoms: N_3  and  C_21
REMARK    2  A    between atoms: C_21  and  N_22
REMARK    3  A    between atoms: N_22  and  C_24
REMARK    4  A    between atoms: C_24  and  C_27
REMARK                            x       y       z     vdW  Elec       q    Type
REMARK                         _______ _______ _______ _____ _____    ______ ____
ROOT
ATOM      1  O   UNL     1      33.146  -9.301 -22.408  0.00  0.00    -0.466 OA
ATOM      2  N   UNL     1      32.755 -12.077 -21.517  0.00  0.00    -0.290 N 
ATOM      3  N   UNL     1      33.791 -14.368 -22.920  0.00  0.00    -0.288 N 
ATOM      4  N   UNL     1      31.535 -11.116 -19.702  0.00  0.00    -0.230 NA
ATOM      5  N   UNL     1      31.244  -8.701 -19.481  0.00  0.00    -0.245 NA
ATOM      6  C   UNL     1      33.118 -13.300 -20.793  0.00  0.00    +0.113 C 
ATOM      7  C   UNL     1      32.933 -12.049 -22.973  0.00  0.00    +0.113 C 
ATOM      8  C   UNL     1      34.192 -14.079 -21.551  0.00  0.00    +0.114 C 
ATOM      9  C   UNL     1      32.850 -13.458 -23.556  0.00  0.00    +0.114 C 
ATOM     10  C   UNL     1      32.251 -10.970 -20.839  0.00  0.00    +0.152 C 
ATOM     11  C   UNL     1      32.465  -9.687 -21.299  0.00  0.00    +0.258 C 
ATOM     12  C   UNL     1      31.964  -8.584 -20.623  0.00  0.00    +0.106 C 
ATOM     13  C   UNL     1      32.365  -7.443 -21.365  0.00  0.00    +0.051 C 
ATOM     14  C   UNL     1      33.088  -7.937 -22.450  0.00  0.00    +0.141 C 
ATOM     15  C   UNL     1      31.082  -9.989 -19.101  0.00  0.00    +0.251 C 
ATOM     16  C   UNL     1      32.201  -6.052 -21.244  0.00  0.00    +0.004 C 
ATOM     17  C   UNL     1      33.664  -7.133 -23.433  0.00  0.00    +0.037 C 
ATOM     18  C   UNL     1      32.769  -5.220 -22.218  0.00  0.00    +0.000 C 
ATOM     19  C   UNL     1      33.487  -5.753 -23.292  0.00  0.00    +0.003 C 
ENDROOT
BRANCH   3  21
ATOM     20  S   UNL     1      33.988 -15.669 -25.213  0.00  0.00    -0.019 S 
ATOM     21  C   UNL     1      34.278 -15.449 -23.580  0.00  0.00    +0.135 C 
BRANCH  21  22
ATOM     22  N   UNL     1      35.019 -16.353 -22.862  0.00  0.00    -0.312 N 
ATOM     23  H   UNL     1      35.437 -16.030 -22.032  0.00  0.00    +0.149 HD
BRANCH  22  24
ATOM     24  C   UNL     1      35.242 -17.742 -23.212  0.00  0.00    +0.116 C 
BRANCH  24  27
ATOM     25  O   UNL     1      34.056 -21.060 -19.753  0.00  0.00    -0.435 OA
ATOM     26  O   UNL     1      36.230 -20.933 -18.721  0.00  0.00    -0.435 OA
ATOM     27  C   UNL     1      35.541 -18.585 -22.006  0.00  0.00    +0.001 C 
ATOM     28  C   UNL     1      34.557 -19.429 -21.499  0.00  0.00    +0.038 C 
ATOM     29  C   UNL     1      36.808 -18.506 -21.411  0.00  0.00    +0.001 C 
ATOM     30  C   UNL     1      34.880 -20.183 -20.390  0.00  0.00    +0.176 C 
ATOM     31  C   UNL     1      36.121 -20.111 -19.801  0.00  0.00    +0.176 C 
ATOM     32  C   UNL     1      37.109 -19.280 -20.289  0.00  0.00    +0.040 C 
ATOM     33  C   UNL     1      34.919 -21.531 -18.697  0.00  0.00    +0.429 C 
ENDBRANCH  24  27
ENDBRANCH  22  24
ENDBRANCH  21  22
ENDBRANCH   3  21
TORSDOF 4
ENDMDL
MODEL 2
REMARK VINA RESULT:     -12.3      2.676      4.207
REMARK  Name = 11282283
REMARK  4 active torsions:
REMARK  status: ('A' for Active; 'I' for Inactive)
REMARK    1  A    between atoms: N_3  and  C_21
REMARK    2  A    between atoms: C_21  and  N_22
REMARK    3  A    between atoms: N_22  and  C_24
REMARK    4  A    between atoms: C_24  and  C_27
REMARK                            x       y       z     vdW  Elec       q    Type
REMARK                         _______ _______ _______ _____ _____    ______ ____
ROOT
ATOM      1  O   UNL     1      32.930 -12.991 -21.779  0.00  0.00    -0.466 OA
ATOM      2  N   UNL     1      34.043 -14.782 -23.831  0.00  0.00    -0.290 N 
ATOM      3  N   UNL     1      34.507 -17.593 -23.420  0.00  0.00    -0.288 N 
ATOM      4  N   UNL     1      34.114 -12.833 -25.213  0.00  0.00    -0.230 NA
ATOM      5  N   UNL     1      33.356 -10.655 -24.408  0.00  0.00    -0.245 NA
ATOM      6  C   UNL     1      33.962 -15.727 -24.950  0.00  0.00    +0.113 C 
ATOM      7  C   UNL     1      34.365 -15.302 -22.498  0.00  0.00    +0.113 C 
ATOM      8  C   UNL     1      33.594 -17.124 -24.451  0.00  0.00    +0.114 C 
ATOM      9  C   UNL     1      35.176 -16.592 -22.603  0.00  0.00    +0.114 C 
ATOM     10  C   UNL     1      33.822 -13.420 -24.031  0.00  0.00    +0.152 C 
ATOM     11  C   UNL     1      33.295 -12.625 -23.034  0.00  0.00    +0.258 C 
ATOM     12  C   UNL     1      33.073 -11.270 -23.233  0.00  0.00    +0.106 C 
ATOM     13  C   UNL     1      32.534 -10.770 -22.020  0.00  0.00    +0.051 C 
ATOM     14  C   UNL     1      32.466 -11.866 -21.160  0.00  0.00    +0.141 C 
ATOM     15  C   UNL     1      33.866 -11.506 -25.327  0.00  0.00    +0.251 C 
ATOM     16  C   UNL     1      32.097  -9.520 -21.550  0.00  0.00    +0.004 C 
ATOM     17  C   UNL     1      31.988 -11.800 -19.853  0.00  0.00    +0.037 C 
ATOM     18  C   UNL     1      31.612  -9.425 -20.239  0.00  0.00    +0.000 C 
ATOM     19  C   UNL     1      31.559 -10.546 -19.407  0.00  0.00    +0.003 C 
ENDROOT
BRANCH   3  21
ATOM     20  S   UNL     1      34.878 -19.967 -24.523  0.00  0.00    -0.019 S 
ATOM     21  C   UNL     1      34.727 -18.918 -23.228  0.00  0.00    +0.135 C 
BRANCH  21  22
ATOM     22  N   UNL     1      34.822 -19.368 -21.935  0.00  0.00    -0.312 N 
ATOM     23  H   UNL     1      35.725 -19.563 -21.596  0.00  0.00    +0.149 HD
BRANCH  22  24
ATOM     24  C   UNL     1      33.716 -19.580 -21.022  0.00  0.00    +0.116 C 
BRANCH  24  27
ATOM     25  O   UNL     1      32.599 -22.720 -17.380  0.00  0.00    -0.435 OA
ATOM     26  O   UNL     1      34.917 -23.154 -16.886  0.00  0.00    -0.435 OA
ATOM     27  C   UNL     1      34.074 -20.533 -19.919  0.00  0.00    +0.001 C 
ATOM     28  C   UNL     1      33.060 -21.155 -19.196  0.00  0.00    +0.038 C 
ATOM     29  C   UNL     1      35.424 -20.781 -19.638  0.00  0.00    +0.001 C 
ATOM     30  C   UNL     1      33.439 -22.023 -18.192  0.00  0.00    +0.176 C 
ATOM     31  C   UNL     1      34.763 -22.271 -17.910  0.00  0.00    +0.176 C 
ATOM     32  C   UNL     1      35.781 -21.664 -18.617  0.00  0.00    +0.040 C 
ATOM     33  C   UNL     1      33.542 -23.435 -16.555  0.00  0.00    +0.429 C 
ENDBRANCH  24  27
ENDBRANCH  22  24
ENDBRANCH  21  22
ENDBRANCH   3  21
TORSDOF 4
ENDMDL
MODEL 3
REMARK VINA RESULT:     -11.6      3.181     11.497
REMARK  Name = 11282283
REMARK  4 active torsions:
REMARK  status: ('A' for Active; 'I' for Inactive)
REMARK    1  A    between atoms: N_3  and  C_21
REMARK    2  A    between atoms: C_21  and  N_22
REMARK    3  A    between atoms: N_22  and  C_24
REMARK    4  A    between atoms: C_24  and  C_27
REMARK                            x       y       z     vdW  Elec       q    Type
REMARK                         _______ _______ _______ _____ _____    ______ ____
ROOT
ATOM      1  O   UNL     1      34.408 -14.865 -21.967  0.00  0.00    -0.466 OA
ATOM      2  N   UNL     1      33.306 -12.477 -23.287  0.00  0.00    -0.290 N 
ATOM      3  N   UNL     1      32.617 -10.054 -21.893  0.00  0.00    -0.288 N 
ATOM      4  N   UNL     1      33.464 -13.757 -25.299  0.00  0.00    -0.230 NA
ATOM      5  N   UNL     1      34.321 -16.044 -25.307  0.00  0.00    -0.245 NA
ATOM      6  C   UNL     1      33.391 -11.175 -23.957  0.00  0.00    +0.113 C 
ATOM      7  C   UNL     1      32.862 -12.515 -21.889  0.00  0.00    +0.113 C 
ATOM      8  C   UNL     1      33.626 -10.059 -22.942  0.00  0.00    +0.114 C 
ATOM      9  C   UNL     1      31.969 -11.317 -21.573  0.00  0.00    +0.114 C 
ATOM     10  C   UNL     1      33.636 -13.650 -23.963  0.00  0.00    +0.152 C 
ATOM     11  C   UNL     1      34.152 -14.742 -23.295  0.00  0.00    +0.258 C 
ATOM     12  C   UNL     1      34.483 -15.909 -23.968  0.00  0.00    +0.106 C 
ATOM     13  C   UNL     1      34.976 -16.810 -22.989  0.00  0.00    +0.051 C 
ATOM     14  C   UNL     1      34.910 -16.121 -21.778  0.00  0.00    +0.141 C 
ATOM     15  C   UNL     1      33.812 -14.930 -25.880  0.00  0.00    +0.251 C 
ATOM     16  C   UNL     1      35.469 -18.126 -22.986  0.00  0.00    +0.004 C 
ATOM     17  C   UNL     1      35.305 -16.658 -20.554  0.00  0.00    +0.037 C 
ATOM     18  C   UNL     1      35.874 -18.691 -21.769  0.00  0.00    +0.000 C 
ATOM     19  C   UNL     1      35.793 -17.968 -20.576  0.00  0.00    +0.003 C 
ENDROOT
BRANCH   3  21
ATOM     20  S   UNL     1      31.985  -8.914 -19.593  0.00  0.00    -0.019 S 
ATOM     21  C   UNL     1      32.292  -8.911 -21.238  0.00  0.00    +0.135 C 
BRANCH  21  22
ATOM     22  N   UNL     1      32.226  -7.753 -21.971  0.00  0.00    -0.312 N 
ATOM     23  H   UNL     1      31.564  -7.723 -22.699  0.00  0.00    +0.149 HD
BRANCH  22  24
ATOM     24  C   UNL     1      33.039  -6.570 -21.770  0.00  0.00    +0.116 C 
BRANCH  24  27
ATOM     25  O   UNL     1      30.273  -2.878 -23.532  0.00  0.00    -0.435 OA
ATOM     26  O   UNL     1      31.736  -2.526 -25.414  0.00  0.00    -0.435 OA
ATOM     27  C   UNL     1      32.719  -5.493 -22.767  0.00  0.00    +0.001 C 
ATOM     28  C   UNL     1      31.581  -4.712 -22.590  0.00  0.00    +0.038 C 
ATOM     29  C   UNL     1      33.575  -5.294 -23.859  0.00  0.00    +0.001 C 
ATOM     30  C   UNL     1      31.330  -3.736 -23.532  0.00  0.00    +0.176 C 
ATOM     31  C   UNL     1      32.165  -3.534 -24.607  0.00  0.00    +0.176 C 
ATOM     32  C   UNL     1      33.298  -4.299 -24.799  0.00  0.00    +0.040 C 
ATOM     33  C   UNL     1      30.537  -2.114 -24.726  0.00  0.00    +0.429 C 
ENDBRANCH  24  27
ENDBRANCH  22  24
ENDBRANCH  21  22
ENDBRANCH   3  21
TORSDOF 4
ENDMDL
MODEL 4
REMARK VINA RESULT:     -11.6      3.171     11.578
REMARK  Name = 11282283
REMARK  4 active torsions:
REMARK  status: ('A' for Active; 'I' for Inactive)
REMARK    1  A    between atoms: N_3  and  C_21
REMARK    2  A    between atoms: C_21  and  N_22
REMARK    3  A    between atoms: N_22  and  C_24
REMARK    4  A    between atoms: C_24  and  C_27
REMARK                            x       y       z     vdW  Elec       q    Type
REMARK                         _______ _______ _______ _____ _____    ______ ____
ROOT
ATOM      1  O   UNL     1      34.420 -14.869 -21.962  0.00  0.00    -0.466 OA
ATOM      2  N   UNL     1      33.313 -12.488 -23.291  0.00  0.00    -0.290 N 
ATOM      3  N   UNL     1      32.625 -10.059 -21.908  0.00  0.00    -0.288 N 
ATOM      4  N   UNL     1      33.467 -13.778 -25.297  0.00  0.00    -0.230 NA
ATOM      5  N   UNL     1      34.326 -16.064 -25.295  0.00  0.00    -0.245 NA
ATOM      6  C   UNL     1      33.396 -11.190 -23.968  0.00  0.00    +0.113 C 
ATOM      7  C   UNL     1      32.872 -12.520 -21.892  0.00  0.00    +0.113 C 
ATOM      8  C   UNL     1      33.632 -10.068 -22.958  0.00  0.00    +0.114 C 
ATOM      9  C   UNL     1      31.979 -11.321 -21.579  0.00  0.00    +0.114 C 
ATOM     10  C   UNL     1      33.642 -13.665 -23.961  0.00  0.00    +0.152 C 
ATOM     11  C   UNL     1      34.161 -14.752 -23.290  0.00  0.00    +0.258 C 
ATOM     12  C   UNL     1      34.491 -15.923 -23.957  0.00  0.00    +0.106 C 
ATOM     13  C   UNL     1      34.986 -16.819 -22.975  0.00  0.00    +0.051 C 
ATOM     14  C   UNL     1      34.922 -16.123 -21.768  0.00  0.00    +0.141 C 
ATOM     15  C   UNL     1      33.815 -14.954 -25.873  0.00  0.00    +0.251 C 
ATOM     16  C   UNL     1      35.481 -18.134 -22.966  0.00  0.00    +0.004 C 
ATOM     17  C   UNL     1      35.321 -16.654 -20.542  0.00  0.00    +0.037 C 
ATOM     18  C   UNL     1      35.889 -18.693 -21.747  0.00  0.00    +0.000 C 
ATOM     19  C   UNL     1      35.809 -17.964 -20.558  0.00  0.00    +0.003 C 
ENDROOT
BRANCH   3  21
ATOM     20  S   UNL     1      31.849  -8.931 -19.647  0.00  0.00    -0.019 S 
ATOM     21  C   UNL     1      32.301  -8.913 -21.257  0.00  0.00    +0.135 C 
BRANCH  21  22
ATOM     22  N   UNL     1      32.359  -7.740 -21.966  0.00  0.00    -0.312 N 
ATOM     23  H   UNL     1      31.741  -7.646 -22.726  0.00  0.00    +0.149 HD
BRANCH  22  24
ATOM     24  C   UNL     1      33.245  -6.624 -21.698  0.00  0.00    +0.116 C 
BRANCH  24  27
ATOM     25  O   UNL     1      31.955  -3.310 -25.123  0.00  0.00    -0.435 OA
ATOM     26  O   UNL     1      31.069  -1.786 -23.482  0.00  0.00    -0.435 OA
ATOM     27  C   UNL     1      32.653  -5.318 -22.142  0.00  0.00    +0.001 C 
ATOM     28  C   UNL     1      32.625  -5.004 -23.497  0.00  0.00    +0.038 C 
ATOM     29  C   UNL     1      32.139  -4.436 -21.181  0.00  0.00    +0.001 C 
ATOM     30  C   UNL     1      32.071  -3.792 -23.856  0.00  0.00    +0.176 C 
ATOM     31  C   UNL     1      31.564  -2.921 -22.918  0.00  0.00    +0.176 C 
ATOM     32  C   UNL     1      31.584  -3.215 -21.570  0.00  0.00    +0.040 C 
ATOM     33  C   UNL     1      31.319  -2.040 -24.879  0.00  0.00    +0.429 C 
ENDBRANCH  24  27
ENDBRANCH  22  24
ENDBRANCH  21  22
ENDBRANCH   3  21
TORSDOF 4
ENDMDL
MODEL 5
REMARK VINA RESULT:     -11.0      5.916     12.447
REMARK  Name = 11282283
REMARK  4 active torsions:
REMARK  status: ('A' for Active; 'I' for Inactive)
REMARK    1  A    between atoms: N_3  and  C_21
REMARK    2  A    between atoms: C_21  and  N_22
REMARK    3  A    between atoms: N_22  and  C_24
REMARK    4  A    between atoms: C_24  and  C_27
REMARK                            x       y       z     vdW  Elec       q    Type
REMARK                         _______ _______ _______ _____ _____    ______ ____
ROOT
ATOM      1  O   UNL     1      32.990 -22.876 -15.896  0.00  0.00    -0.466 OA
ATOM      2  N   UNL     1      35.585 -22.272 -17.142  0.00  0.00    -0.290 N 
ATOM      3  N   UNL     1      35.897 -20.572 -19.445  0.00  0.00    -0.288 N 
ATOM      4  N   UNL     1      36.506 -23.681 -15.446  0.00  0.00    -0.230 NA
ATOM      5  N   UNL     1      35.101 -24.764 -13.768  0.00  0.00    -0.245 NA
ATOM      6  C   UNL     1      36.811 -21.491 -17.338  0.00  0.00    +0.113 C 
ATOM      7  C   UNL     1      34.521 -22.166 -18.147  0.00  0.00    +0.113 C 
ATOM      8  C   UNL     1      36.530 -20.245 -18.176  0.00  0.00    +0.114 C 
ATOM      9  C   UNL     1      35.099 -21.787 -19.509  0.00  0.00    +0.114 C 
ATOM     10  C   UNL     1      35.436 -23.097 -16.029  0.00  0.00    +0.152 C 
ATOM     11  C   UNL     1      34.194 -23.347 -15.483  0.00  0.00    +0.258 C 
ATOM     12  C   UNL     1      34.045 -24.167 -14.373  0.00  0.00    +0.106 C 
ATOM     13  C   UNL     1      32.657 -24.203 -14.085  0.00  0.00    +0.051 C 
ATOM     14  C   UNL     1      32.053 -23.394 -15.047  0.00  0.00    +0.141 C 
ATOM     15  C   UNL     1      36.276 -24.467 -14.367  0.00  0.00    +0.251 C 
ATOM     16  C   UNL     1      31.842 -24.823 -13.123  0.00  0.00    +0.004 C 
ATOM     17  C   UNL     1      30.681 -23.160 -15.118  0.00  0.00    +0.037 C 
ATOM     18  C   UNL     1      30.458 -24.606 -13.170  0.00  0.00    +0.000 C 
ATOM     19  C   UNL     1      29.891 -23.788 -14.151  0.00  0.00    +0.003 C 
ENDROOT
BRANCH   3  21
ATOM     20  S   UNL     1      37.497 -19.001 -20.844  0.00  0.00    -0.019 S 
ATOM     21  C   UNL     1      36.046 -19.771 -20.530  0.00  0.00    +0.135 C 
BRANCH  21  22
ATOM     22  N   UNL     1      34.965 -19.617 -21.361  0.00  0.00    -0.312 N 
ATOM     23  H   UNL     1      34.074 -19.655 -20.946  0.00  0.00    +0.149 HD
BRANCH  22  24
ATOM     24  C   UNL     1      35.016 -19.402 -22.794  0.00  0.00    +0.116 C 
BRANCH  24  27
ATOM     25  O   UNL     1      33.517 -15.818 -25.841  0.00  0.00    -0.435 OA
ATOM     26  O   UNL     1      34.069 -14.084 -24.261  0.00  0.00    -0.435 OA
ATOM     27  C   UNL     1      34.774 -17.965 -23.155  0.00  0.00    +0.001 C 
ATOM     28  C   UNL     1      34.234 -17.653 -24.399  0.00  0.00    +0.038 C 
ATOM     29  C   UNL     1      35.098 -16.962 -22.231  0.00  0.00    +0.001 C 
ATOM     30  C   UNL     1      34.030 -16.318 -24.685  0.00  0.00    +0.176 C 
ATOM     31  C   UNL     1      34.345 -15.328 -23.782  0.00  0.00    +0.176 C 
ATOM     32  C   UNL     1      34.882 -15.619 -22.544  0.00  0.00    +0.040 C 
ATOM     33  C   UNL     1      33.543 -14.403 -25.565  0.00  0.00    +0.429 C 
ENDBRANCH  24  27
ENDBRANCH  22  24
ENDBRANCH  21  22
ENDBRANCH   3  21
TORSDOF 4
ENDMDL
MODEL 6
REMARK VINA RESULT:     -10.4      5.164      8.445
REMARK  Name = 11282283
REMARK  4 active torsions:
REMARK  status: ('A' for Active; 'I' for Inactive)
REMARK    1  A    between atoms: N_3  and  C_21
REMARK    2  A    between atoms: C_21  and  N_22
REMARK    3  A    between atoms: N_22  and  C_24
REMARK    4  A    between atoms: C_24  and  C_27
REMARK                            x       y       z     vdW  Elec       q    Type
REMARK                         _______ _______ _______ _____ _____    ______ ____
ROOT
ATOM      1  O   UNL     1      34.917 -16.697 -21.309  0.00  0.00    -0.466 OA
ATOM      2  N   UNL     1      35.132 -19.626 -21.134  0.00  0.00    -0.290 N 
ATOM      3  N   UNL     1      35.710 -21.045 -18.697  0.00  0.00    -0.288 N 
ATOM      4  N   UNL     1      34.664 -19.604 -23.478  0.00  0.00    -0.230 NA
ATOM      5  N   UNL     1      34.289 -17.521 -24.697  0.00  0.00    -0.245 NA
ATOM      6  C   UNL     1      34.617 -20.982 -20.915  0.00  0.00    +0.113 C 
ATOM      7  C   UNL     1      35.948 -19.010 -20.083  0.00  0.00    +0.113 C 
ATOM      8  C   UNL     1      34.468 -21.268 -19.422  0.00  0.00    +0.114 C 
ATOM      9  C   UNL     1      36.649 -20.079 -19.246  0.00  0.00    +0.114 C 
ATOM     10  C   UNL     1      34.855 -18.941 -22.316  0.00  0.00    +0.152 C 
ATOM     11  C   UNL     1      34.763 -17.565 -22.342  0.00  0.00    +0.258 C 
ATOM     12  C   UNL     1      34.486 -16.882 -23.518  0.00  0.00    +0.106 C 
ATOM     13  C   UNL     1      34.466 -15.503 -23.185  0.00  0.00    +0.051 C 
ATOM     14  C   UNL     1      34.736 -15.443 -21.818  0.00  0.00    +0.141 C 
ATOM     15  C   UNL     1      34.396 -18.864 -24.581  0.00  0.00    +0.251 C 
ATOM     16  C   UNL     1      34.253 -14.300 -23.880  0.00  0.00    +0.004 C 
ATOM     17  C   UNL     1      34.808 -14.256 -21.090  0.00  0.00    +0.037 C 
ATOM     18  C   UNL     1      34.319 -13.092 -23.173  0.00  0.00    +0.000 C 
ATOM     19  C   UNL     1      34.592 -13.073 -21.803  0.00  0.00    +0.003 C 
ENDROOT
BRANCH   3  21
ATOM     20  S   UNL     1      37.356 -21.379 -16.656  0.00  0.00    -0.019 S 
ATOM     21  C   UNL     1      35.982 -21.716 -17.549  0.00  0.00    +0.135 C 
BRANCH  21  22
ATOM     22  N   UNL     1      35.090 -22.678 -17.146  0.00  0.00    -0.312 N 
ATOM     23  H   UNL     1      34.547 -23.105 -17.847  0.00  0.00    +0.149 HD
BRANCH  22  24
ATOM     24  C   UNL     1      34.876 -23.124 -15.784  0.00  0.00    +0.116 C 
BRANCH  24  27
ATOM     25  O   UNL     1      30.073 -22.589 -16.798  0.00  0.00    -0.435 OA
ATOM     26  O   UNL     1      29.423 -23.048 -14.524  0.00  0.00    -0.435 OA
ATOM     27  C   UNL     1      33.421 -23.112 -15.411  0.00  0.00    +0.001 C 
ATOM     28  C   UNL     1      32.467 -22.835 -16.385  0.00  0.00    +0.038 C 
ATOM     29  C   UNL     1      33.051 -23.380 -14.086  0.00  0.00    +0.001 C 
ATOM     30  C   UNL     1      31.144 -22.837 -15.995  0.00  0.00    +0.176 C 
ATOM     31  C   UNL     1      30.772 -23.099 -14.696  0.00  0.00    +0.176 C 
ATOM     32  C   UNL     1      31.704 -23.375 -13.716  0.00  0.00    +0.040 C 
ATOM     33  C   UNL     1      28.987 -22.726 -15.859  0.00  0.00    +0.429 C 
ENDBRANCH  24  27
ENDBRANCH  22  24
ENDBRANCH  21  22
ENDBRANCH   3  21
TORSDOF 4
ENDMDL
MODEL 7
REMARK VINA RESULT:     -10.2      3.905      6.485
REMARK  Name = 11282283
REMARK  4 active torsions:
REMARK  status: ('A' for Active; 'I' for Inactive)
REMARK    1  A    between atoms: N_3  and  C_21
REMARK    2  A    between atoms: C_21  and  N_22
REMARK    3  A    between atoms: N_22  and  C_24
REMARK    4  A    between atoms: C_24  and  C_27
REMARK                            x       y       z     vdW  Elec       q    Type
REMARK                         _______ _______ _______ _____ _____    ______ ____
ROOT
ATOM      1  O   UNL     1      33.849  -5.540 -24.360  0.00  0.00    -0.466 OA
ATOM      2  N   UNL     1      31.760  -6.400 -22.476  0.00  0.00    -0.290 N 
ATOM      3  N   UNL     1      31.845  -8.879 -21.015  0.00  0.00    -0.288 N 
ATOM      4  N   UNL     1      30.681  -4.343 -23.039  0.00  0.00    -0.230 NA
ATOM      5  N   UNL     1      31.656  -2.771 -24.633  0.00  0.00    -0.245 NA
ATOM      6  C   UNL     1      31.132  -6.515 -21.155  0.00  0.00    +0.113 C 
ATOM      7  C   UNL     1      32.432  -7.578 -23.035  0.00  0.00    +0.113 C 
ATOM      8  C   UNL     1      31.817  -7.599 -20.325  0.00  0.00    +0.114 C 
ATOM      9  C   UNL     1      31.830  -8.863 -22.470  0.00  0.00    +0.114 C 
ATOM     10  C   UNL     1      31.715  -5.201 -23.185  0.00  0.00    +0.152 C 
ATOM     11  C   UNL     1      32.724  -4.844 -24.055  0.00  0.00    +0.258 C 
ATOM     12  C   UNL     1      32.681  -3.649 -24.760  0.00  0.00    +0.106 C 
ATOM     13  C   UNL     1      33.859  -3.607 -25.549  0.00  0.00    +0.051 C 
ATOM     14  C   UNL     1      34.542  -4.790 -25.267  0.00  0.00    +0.141 C 
ATOM     15  C   UNL     1      30.715  -3.198 -23.762  0.00  0.00    +0.251 C 
ATOM     16  C   UNL     1      34.426  -2.707 -26.468  0.00  0.00    +0.004 C 
ATOM     17  C   UNL     1      35.762  -5.140 -25.843  0.00  0.00    +0.037 C 
ATOM     18  C   UNL     1      35.652  -3.035 -27.063  0.00  0.00    +0.000 C 
ATOM     19  C   UNL     1      36.306  -4.230 -26.754  0.00  0.00    +0.003 C 
ENDROOT
BRANCH   3  21
ATOM     20  S   UNL     1      31.830 -10.067 -18.654  0.00  0.00    -0.019 S 
ATOM     21  C   UNL     1      31.883 -10.047 -20.326  0.00  0.00    +0.135 C 
BRANCH  21  22
ATOM     22  N   UNL     1      31.966 -11.211 -21.048  0.00  0.00    -0.312 N 
ATOM     23  H   UNL     1      31.835 -11.143 -22.021  0.00  0.00    +0.149 HD
BRANCH  22  24
ATOM     24  C   UNL     1      32.228 -12.531 -20.510  0.00  0.00    +0.116 C 
BRANCH  24  27
ATOM     25  O   UNL     1      33.143 -14.346 -25.010  0.00  0.00    -0.435 OA
ATOM     26  O   UNL     1      34.976 -15.696 -24.220  0.00  0.00    -0.435 OA
ATOM     27  C   UNL     1      32.987 -13.392 -21.479  0.00  0.00    +0.001 C 
ATOM     28  C   UNL     1      32.621 -13.399 -22.821  0.00  0.00    +0.038 C 
ATOM     29  C   UNL     1      34.052 -14.174 -21.012  0.00  0.00    +0.001 C 
ATOM     30  C   UNL     1      33.349 -14.205 -23.672  0.00  0.00    +0.176 C 
ATOM     31  C   UNL     1      34.396 -14.975 -23.221  0.00  0.00    +0.176 C 
ATOM     32  C   UNL     1      34.773 -14.982 -21.894  0.00  0.00    +0.040 C 
ATOM     33  C   UNL     1      34.178 -15.291 -25.351  0.00  0.00    +0.429 C 
ENDBRANCH  24  27
ENDBRANCH  22  24
ENDBRANCH  21  22
ENDBRANCH   3  21
TORSDOF 4
ENDMDL
MODEL 8
REMARK VINA RESULT:     -10.0      6.597     13.404
REMARK  Name = 11282283
REMARK  4 active torsions:
REMARK  status: ('A' for Active; 'I' for Inactive)
REMARK    1  A    between atoms: N_3  and  C_21
REMARK    2  A    between atoms: C_21  and  N_22
REMARK    3  A    between atoms: N_22  and  C_24
REMARK    4  A    between atoms: C_24  and  C_27
REMARK                            x       y       z     vdW  Elec       q    Type
REMARK                         _______ _______ _______ _____ _____    ______ ____
ROOT
ATOM      1  O   UNL     1      37.464 -24.074 -15.332  0.00  0.00    -0.466 OA
ATOM      2  N   UNL     1      34.920 -22.807 -16.092  0.00  0.00    -0.290 N 
ATOM      3  N   UNL     1      34.490 -21.461 -18.600  0.00  0.00    -0.288 N 
ATOM      4  N   UNL     1      34.142 -23.541 -13.955  0.00  0.00    -0.230 NA
ATOM      5  N   UNL     1      35.577 -24.783 -12.418  0.00  0.00    -0.245 NA
ATOM      6  C   UNL     1      33.589 -22.772 -16.706  0.00  0.00    +0.113 C 
ATOM      7  C   UNL     1      36.028 -22.140 -16.785  0.00  0.00    +0.113 C 
ATOM      8  C   UNL     1      33.698 -22.622 -18.223  0.00  0.00    +0.114 C 
ATOM      9  C   UNL     1      35.509 -21.006 -17.666  0.00  0.00    +0.114 C 
ATOM     10  C   UNL     1      35.128 -23.456 -14.876  0.00  0.00    +0.152 C 
ATOM     11  C   UNL     1      36.341 -24.035 -14.570  0.00  0.00    +0.258 C 
ATOM     12  C   UNL     1      36.548 -24.683 -13.360  0.00  0.00    +0.106 C 
ATOM     13  C   UNL     1      37.886 -25.152 -13.379  0.00  0.00    +0.051 C 
ATOM     14  C   UNL     1      38.405 -24.753 -14.611  0.00  0.00    +0.141 C 
ATOM     15  C   UNL     1      34.424 -24.190 -12.799  0.00  0.00    +0.251 C 
ATOM     16  C   UNL     1      38.718 -25.866 -12.500  0.00  0.00    +0.004 C 
ATOM     17  C   UNL     1      39.708 -25.019 -15.030  0.00  0.00    +0.037 C 
ATOM     18  C   UNL     1      40.033 -26.148 -12.896  0.00  0.00    +0.000 C 
ATOM     19  C   UNL     1      40.516 -25.731 -14.138  0.00  0.00    +0.003 C 
ENDROOT
BRANCH   3  21
ATOM     20  S   UNL     1      32.750 -20.367 -20.263  0.00  0.00    -0.019 S 
ATOM     21  C   UNL     1      34.286 -20.827 -19.782  0.00  0.00    +0.135 C 
BRANCH  21  22
ATOM     22  N   UNL     1      35.382 -20.573 -20.567  0.00  0.00    -0.312 N 
ATOM     23  H   UNL     1      35.826 -21.349 -20.978  0.00  0.00    +0.149 HD
BRANCH  22  24
ATOM     24  C   UNL     1      35.945 -19.267 -20.849  0.00  0.00    +0.116 C 
BRANCH  24  27
ATOM     25  O   UNL     1      34.592 -15.406 -23.612  0.00  0.00    -0.435 OA
ATOM     26  O   UNL     1      33.682 -16.814 -25.342  0.00  0.00    -0.435 OA
ATOM     27  C   UNL     1      35.331 -18.642 -22.068  0.00  0.00    +0.001 C 
ATOM     28  C   UNL     1      35.295 -17.256 -22.183  0.00  0.00    +0.038 C 
ATOM     29  C   UNL     1      34.804 -19.468 -23.071  0.00  0.00    +0.001 C 
ATOM     30  C   UNL     1      34.721 -16.729 -23.321  0.00  0.00    +0.176 C 
ATOM     31  C   UNL     1      34.202 -17.533 -24.310  0.00  0.00    +0.176 C 
ATOM     32  C   UNL     1      34.228 -18.910 -24.213  0.00  0.00    +0.040 C 
ATOM     33  C   UNL     1      33.934 -15.467 -24.894  0.00  0.00    +0.429 C 
ENDBRANCH  24  27
ENDBRANCH  22  24
ENDBRANCH  21  22
ENDBRANCH   3  21
TORSDOF 4
ENDMDL
MODEL 9
REMARK VINA RESULT:      -9.8      8.885     14.394
REMARK  Name = 11282283
REMARK  4 active torsions:
REMARK  status: ('A' for Active; 'I' for Inactive)
REMARK    1  A    between atoms: N_3  and  C_21
REMARK    2  A    between atoms: C_21  and  N_22
REMARK    3  A    between atoms: N_22  and  C_24
REMARK    4  A    between atoms: C_24  and  C_27
REMARK                            x       y       z     vdW  Elec       q    Type
REMARK                         _______ _______ _______ _____ _____    ______ ____
ROOT
ATOM      1  O   UNL     1      37.054 -24.725 -14.193  0.00  0.00    -0.466 OA
ATOM      2  N   UNL     1      34.328 -23.894 -13.462  0.00  0.00    -0.290 N 
ATOM      3  N   UNL     1      32.316 -23.145 -15.380  0.00  0.00    -0.288 N 
ATOM      4  N   UNL     1      35.038 -24.240 -11.206  0.00  0.00    -0.230 NA
ATOM      5  N   UNL     1      37.298 -24.993 -10.669  0.00  0.00    -0.245 NA
ATOM      6  C   UNL     1      32.905 -24.115 -13.183  0.00  0.00    +0.113 C 
ATOM      7  C   UNL     1      34.702 -23.282 -14.742  0.00  0.00    +0.113 C 
ATOM      8  C   UNL     1      32.118 -24.273 -14.482  0.00  0.00    +0.114 C 
ATOM      9  C   UNL     1      33.567 -22.410 -15.276  0.00  0.00    +0.114 C 
ATOM     10  C   UNL     1      35.302 -24.253 -12.532  0.00  0.00    +0.152 C 
ATOM     11  C   UNL     1      36.566 -24.637 -12.929  0.00  0.00    +0.258 C 
ATOM     12  C   UNL     1      37.535 -24.997 -12.004  0.00  0.00    +0.106 C 
ATOM     13  C   UNL     1      38.696 -25.329 -12.748  0.00  0.00    +0.051 C 
ATOM     14  C   UNL     1      38.349 -25.146 -14.086  0.00  0.00    +0.141 C 
ATOM     15  C   UNL     1      36.038 -24.606 -10.369  0.00  0.00    +0.251 C 
ATOM     16  C   UNL     1      39.999 -25.762 -12.446  0.00  0.00    +0.004 C 
ATOM     17  C   UNL     1      39.218 -25.367 -15.153  0.00  0.00    +0.037 C 
ATOM     18  C   UNL     1      40.894 -25.992 -13.500  0.00  0.00    +0.000 C 
ATOM     19  C   UNL     1      40.508 -25.797 -14.828  0.00  0.00    +0.003 C 
ENDROOT
BRANCH   3  21
ATOM     20  S   UNL     1      29.738 -22.893 -15.910  0.00  0.00    -0.019 S 
ATOM     21  C   UNL     1      31.366 -22.791 -16.282  0.00  0.00    +0.135 C 
BRANCH  21  22
ATOM     22  N   UNL     1      31.788 -22.346 -17.509  0.00  0.00    -0.312 N 
ATOM     23  H   UNL     1      31.209 -21.699 -17.973  0.00  0.00    +0.149 HD
BRANCH  22  24
ATOM     24  C   UNL     1      33.008 -22.739 -18.186  0.00  0.00    +0.116 C 
BRANCH  24  27
ATOM     25  O   UNL     1      36.770 -20.003 -19.842  0.00  0.00    -0.435 OA
ATOM     26  O   UNL     1      35.317 -18.573 -21.126  0.00  0.00    -0.435 OA
ATOM     27  C   UNL     1      33.594 -21.612 -18.987  0.00  0.00    +0.001 C 
ATOM     28  C   UNL     1      34.970 -21.408 -18.976  0.00  0.00    +0.038 C 
ATOM     29  C   UNL     1      32.742 -20.784 -19.731  0.00  0.00    +0.001 C 
ATOM     30  C   UNL     1      35.462 -20.360 -19.728  0.00  0.00    +0.176 C 
ATOM     31  C   UNL     1      34.632 -19.543 -20.461  0.00  0.00    +0.176 C 
ATOM     32  C   UNL     1      33.264 -19.730 -20.483  0.00  0.00    +0.040 C 
ATOM     33  C   UNL     1      36.670 -18.871 -20.730  0.00  0.00    +0.429 C 
ENDBRANCH  24  27
ENDBRANCH  22  24
ENDBRANCH  21  22
ENDBRANCH   3  21
TORSDOF 4
ENDMDL
