MODEL 1
REMARK VINA RESULT:     -12.4      0.000      0.000
REMARK  Name = 24875320
REMARK  6 active torsions:
REMARK  status: ('A' for Active; 'I' for Inactive)
REMARK    1  A    between atoms: C_1  and  N_22
REMARK    2  A    between atoms: C_3  and  C_10
REMARK    3  A    between atoms: N_9  and  C_12
REMARK    4  A    between atoms: C_14  and  C_21
REMARK    5  A    between atoms: N_22  and  C_25
REMARK    6  A    between atoms: C_28  and  C_32
REMARK                            x       y       z     vdW  Elec       q    Type
REMARK                         _______ _______ _______ _____ _____    ______ ____
ROOT
ATOM      1  C   UNL     1      34.653 -22.994 -14.972  0.00  0.00    +0.044 C 
ATOM      2  C   UNL     1      33.346 -23.415 -15.215  0.00  0.00    -0.008 C 
ATOM      3  C   UNL     1      34.846 -22.271 -17.270  0.00  0.00    +0.055 C 
ATOM      4  C   UNL     1      35.403 -22.422 -16.000  0.00  0.00    +0.019 C 
ATOM      5  C   UNL     1      32.789 -23.265 -16.484  0.00  0.00    -0.003 C 
ATOM      6  C   UNL     1      33.539 -22.693 -17.512  0.00  0.00    +0.004 C 
ATOM      7  C   UNL     1      32.519 -24.030 -14.132  0.00  0.00    +0.032 C 
ENDROOT
BRANCH   3  10
ATOM      8  O   UNL     1      36.814 -22.016 -18.483  0.00  0.00    -0.270 OA
ATOM      9  N   UNL     1      34.963 -20.727 -19.130  0.00  0.00    -0.280 N 
ATOM     10  C   UNL     1      35.628 -21.676 -18.341  0.00  0.00    +0.250 C 
ATOM     11  H   UNL     1      34.021 -20.562 -18.897  0.00  0.00    +0.155 HD
BRANCH   9  12
ATOM     12  C   UNL     1      35.470 -19.973 -20.217  0.00  0.00    +0.050 C 
ATOM     13  C   UNL     1      34.713 -19.829 -21.380  0.00  0.00    +0.019 C 
ATOM     14  C   UNL     1      35.212 -19.087 -22.450  0.00  0.00    +0.073 C 
ATOM     15  C   UNL     1      36.726 -19.375 -20.125  0.00  0.00    +0.015 C 
ATOM     16  C   UNL     1      36.469 -18.489 -22.358  0.00  0.00    +0.004 C 
ATOM     17  C   UNL     1      37.226 -18.633 -21.195  0.00  0.00    +0.001 C 
BRANCH  14  21
ATOM     18  F   UNL     1      34.594 -17.739 -24.327  0.00  0.00    -0.166 F 
ATOM     19  F   UNL     1      34.669 -19.884 -24.638  0.00  0.00    -0.166 F 
ATOM     20  F   UNL     1      33.061 -19.014 -23.460  0.00  0.00    -0.166 F 
ATOM     21  C   UNL     1      34.404 -18.933 -23.693  0.00  0.00    +0.419 C 
ENDBRANCH  14  21
ENDBRANCH   9  12
ENDBRANCH   3  10
BRANCH   1  22
ATOM     22  N   UNL     1      35.233 -23.137 -13.692  0.00  0.00    -0.312 N 
ATOM     23  H   UNL     1      34.953 -22.445 -13.050  0.00  0.00    +0.152 HD
BRANCH  22  25
ATOM     24  N   UNL     1      36.675 -25.646 -11.399  0.00  0.00    -0.241 NA
ATOM     25  C   UNL     1      36.133 -24.076 -13.155  0.00  0.00    +0.068 C 
ATOM     26  C   UNL     1      37.329 -24.373 -13.800  0.00  0.00    +0.022 C 
ATOM     27  C   UNL     1      35.856 -24.735 -11.968  0.00  0.00    +0.113 C 
ATOM     28  C   UNL     1      38.198 -25.306 -13.245  0.00  0.00    +0.073 C 
ATOM     29  C   UNL     1      37.829 -25.909 -12.054  0.00  0.00    +0.103 C 
BRANCH  28  32
ATOM     30  O   UNL     1      40.208 -26.519 -13.441  0.00  0.00    -0.270 OA
ATOM     31  N   UNL     1      39.787 -24.947 -15.057  0.00  0.00    -0.325 N 
ATOM     32  C   UNL     1      39.455 -25.637 -13.894  0.00  0.00    +0.244 C 
ATOM     33  H   UNL     1      40.631 -25.146 -15.524  0.00  0.00    +0.145 HD
ATOM     34  H   UNL     1      39.177 -24.261 -15.414  0.00  0.00    +0.145 HD
ENDBRANCH  28  32
ENDBRANCH  22  25
ENDBRANCH   1  22
TORSDOF 6
ENDMDL
MODEL 2
REMARK VINA RESULT:     -12.1      5.983      9.264
REMARK  Name = 24875320
REMARK  6 active torsions:
REMARK  status: ('A' for Active; 'I' for Inactive)
REMARK    1  A    between atoms: C_1  and  N_22
REMARK    2  A    between atoms: C_3  and  C_10
REMARK    3  A    between atoms: N_9  and  C_12
REMARK    4  A    between atoms: C_14  and  C_21
REMARK    5  A    between atoms: N_22  and  C_25
REMARK    6  A    between atoms: C_28  and  C_32
REMARK                            x       y       z     vdW  Elec       q    Type
REMARK                         _______ _______ _______ _____ _____    ______ ____
ROOT
ATOM      1  C   UNL     1      34.993 -17.918 -22.571  0.00  0.00    +0.044 C 
ATOM      2  C   UNL     1      34.581 -18.256 -23.860  0.00  0.00    -0.008 C 
ATOM      3  C   UNL     1      34.567 -15.587 -23.047  0.00  0.00    +0.055 C 
ATOM      4  C   UNL     1      34.987 -16.583 -22.165  0.00  0.00    +0.019 C 
ATOM      5  C   UNL     1      34.162 -17.261 -24.742  0.00  0.00    -0.003 C 
ATOM      6  C   UNL     1      34.155 -15.926 -24.336  0.00  0.00    +0.004 C 
ATOM      7  C   UNL     1      34.577 -19.678 -24.321  0.00  0.00    +0.032 C 
ENDROOT
BRANCH   3  10
ATOM      8  O   UNL     1      35.080 -13.894 -21.538  0.00  0.00    -0.270 OA
ATOM      9  N   UNL     1      33.932 -13.295 -23.494  0.00  0.00    -0.280 N 
ATOM     10  C   UNL     1      34.561 -14.197 -22.624  0.00  0.00    +0.250 C 
ATOM     11  H   UNL     1      33.566 -13.683 -24.322  0.00  0.00    +0.155 HD
BRANCH   9  12
ATOM     12  C   UNL     1      33.753 -11.898 -23.338  0.00  0.00    +0.050 C 
ATOM     13  C   UNL     1      32.804 -11.412 -22.438  0.00  0.00    +0.019 C 
ATOM     14  C   UNL     1      32.628 -10.037 -22.285  0.00  0.00    +0.073 C 
ATOM     15  C   UNL     1      34.525 -11.009 -24.085  0.00  0.00    +0.015 C 
ATOM     16  C   UNL     1      33.401  -9.148 -23.033  0.00  0.00    +0.004 C 
ATOM     17  C   UNL     1      34.349  -9.634 -23.932  0.00  0.00    +0.001 C 
BRANCH  14  21
ATOM     18  F   UNL     1      32.083  -9.390 -20.048  0.00  0.00    -0.166 F 
ATOM     19  F   UNL     1      31.134  -8.281 -21.652  0.00  0.00    -0.166 F 
ATOM     20  F   UNL     1      30.516 -10.323 -21.232  0.00  0.00    -0.166 F 
ATOM     21  C   UNL     1      31.614  -9.517 -21.324  0.00  0.00    +0.419 C 
ENDBRANCH  14  21
ENDBRANCH   9  12
ENDBRANCH   3  10
BRANCH   1  22
ATOM     22  N   UNL     1      35.420 -18.913 -21.664  0.00  0.00    -0.312 N 
ATOM     23  H   UNL     1      36.393 -19.062 -21.670  0.00  0.00    +0.152 HD
BRANCH  22  25
ATOM     24  N   UNL     1      32.619 -20.592 -19.941  0.00  0.00    -0.241 NA
ATOM     25  C   UNL     1      34.727 -19.732 -20.754  0.00  0.00    +0.068 C 
ATOM     26  C   UNL     1      35.408 -20.475 -19.796  0.00  0.00    +0.022 C 
ATOM     27  C   UNL     1      33.345 -19.825 -20.785  0.00  0.00    +0.113 C 
ATOM     28  C   UNL     1      34.696 -21.277 -18.910  0.00  0.00    +0.073 C 
ATOM     29  C   UNL     1      33.316 -21.300 -19.023  0.00  0.00    +0.103 C 
BRANCH  28  32
ATOM     30  O   UNL     1      34.808 -23.001 -17.309  0.00  0.00    -0.270 OA
ATOM     31  N   UNL     1      36.705 -21.749 -17.616  0.00  0.00    -0.325 N 
ATOM     32  C   UNL     1      35.378 -22.064 -17.898  0.00  0.00    +0.244 C 
ATOM     33  H   UNL     1      37.199 -22.262 -16.936  0.00  0.00    +0.145 HD
ATOM     34  H   UNL     1      37.151 -21.015 -18.098  0.00  0.00    +0.145 HD
ENDBRANCH  28  32
ENDBRANCH  22  25
ENDBRANCH   1  22
TORSDOF 6
ENDMDL
MODEL 3
REMARK VINA RESULT:     -12.1      6.739     10.313
REMARK  Name = 24875320
REMARK  6 active torsions:
REMARK  status: ('A' for Active; 'I' for Inactive)
REMARK    1  A    between atoms: C_1  and  N_22
REMARK    2  A    between atoms: C_3  and  C_10
REMARK    3  A    between atoms: N_9  and  C_12
REMARK    4  A    between atoms: C_14  and  C_21
REMARK    5  A    between atoms: N_22  and  C_25
REMARK    6  A    between atoms: C_28  and  C_32
REMARK                            x       y       z     vdW  Elec       q    Type
REMARK                         _______ _______ _______ _____ _____    ______ ____
ROOT
ATOM      1  C   UNL     1      35.098 -16.648 -22.957  0.00  0.00    +0.044 C 
ATOM      2  C   UNL     1      34.421 -17.121 -24.081  0.00  0.00    -0.008 C 
ATOM      3  C   UNL     1      34.014 -14.503 -23.206  0.00  0.00    +0.055 C 
ATOM      4  C   UNL     1      34.895 -15.339 -22.520  0.00  0.00    +0.019 C 
ATOM      5  C   UNL     1      33.540 -16.285 -24.767  0.00  0.00    -0.003 C 
ATOM      6  C   UNL     1      33.337 -14.976 -24.331  0.00  0.00    +0.004 C 
ATOM      7  C   UNL     1      34.618 -18.519 -24.570  0.00  0.00    +0.032 C 
ENDROOT
BRANCH   3  10
ATOM      8  O   UNL     1      34.544 -12.238 -23.178  0.00  0.00    -0.270 OA
ATOM      9  N   UNL     1      32.764 -12.955 -21.828  0.00  0.00    -0.280 N 
ATOM     10  C   UNL     1      33.803 -13.138 -22.752  0.00  0.00    +0.250 C 
ATOM     11  H   UNL     1      32.260 -13.765 -21.583  0.00  0.00    +0.155 HD
BRANCH   9  12
ATOM     12  C   UNL     1      32.345 -11.757 -21.198  0.00  0.00    +0.050 C 
ATOM     13  C   UNL     1      32.220 -10.584 -21.943  0.00  0.00    +0.019 C 
ATOM     14  C   UNL     1      31.807  -9.404 -21.323  0.00  0.00    +0.073 C 
ATOM     15  C   UNL     1      32.059 -11.750 -19.833  0.00  0.00    +0.015 C 
ATOM     16  C   UNL     1      31.521  -9.398 -19.957  0.00  0.00    +0.004 C 
ATOM     17  C   UNL     1      31.646 -10.571 -19.213  0.00  0.00    +0.001 C 
BRANCH  14  21
ATOM     18  F   UNL     1      32.575  -8.049 -23.139  0.00  0.00    -0.166 F 
ATOM     19  F   UNL     1      30.449  -8.006 -22.708  0.00  0.00    -0.166 F 
ATOM     20  F   UNL     1      31.849  -7.028 -21.362  0.00  0.00    -0.166 F 
ATOM     21  C   UNL     1      31.673  -8.151 -22.118  0.00  0.00    +0.419 C 
ENDBRANCH  14  21
ENDBRANCH   9  12
ENDBRANCH   3  10
BRANCH   1  22
ATOM     22  N   UNL     1      35.993 -17.480 -22.249  0.00  0.00    -0.312 N 
ATOM     23  H   UNL     1      36.941 -17.299 -22.444  0.00  0.00    +0.152 HD
BRANCH  22  25
ATOM     24  N   UNL     1      36.731 -20.030 -19.682  0.00  0.00    -0.241 NA
ATOM     25  C   UNL     1      35.795 -18.518 -21.319  0.00  0.00    +0.068 C 
ATOM     26  C   UNL     1      34.531 -19.056 -21.105  0.00  0.00    +0.022 C 
ATOM     27  C   UNL     1      36.852 -19.035 -20.589  0.00  0.00    +0.113 C 
ATOM     28  C   UNL     1      34.365 -20.080 -20.178  0.00  0.00    +0.073 C 
ATOM     29  C   UNL     1      35.487 -20.528 -19.500  0.00  0.00    +0.103 C 
BRANCH  28  32
ATOM     30  O   UNL     1      32.022 -20.159 -20.399  0.00  0.00    -0.270 OA
ATOM     31  N   UNL     1      33.000 -21.824 -19.164  0.00  0.00    -0.325 N 
ATOM     32  C   UNL     1      33.059 -20.663 -19.931  0.00  0.00    +0.244 C 
ATOM     33  H   UNL     1      32.131 -22.248 -18.976  0.00  0.00    +0.145 HD
ATOM     34  H   UNL     1      33.828 -22.223 -18.809  0.00  0.00    +0.145 HD
ENDBRANCH  28  32
ENDBRANCH  22  25
ENDBRANCH   1  22
TORSDOF 6
ENDMDL
MODEL 4
REMARK VINA RESULT:     -11.9      6.161      9.587
REMARK  Name = 24875320
REMARK  6 active torsions:
REMARK  status: ('A' for Active; 'I' for Inactive)
REMARK    1  A    between atoms: C_1  and  N_22
REMARK    2  A    between atoms: C_3  and  C_10
REMARK    3  A    between atoms: N_9  and  C_12
REMARK    4  A    between atoms: C_14  and  C_21
REMARK    5  A    between atoms: N_22  and  C_25
REMARK    6  A    between atoms: C_28  and  C_32
REMARK                            x       y       z     vdW  Elec       q    Type
REMARK                         _______ _______ _______ _____ _____    ______ ____
ROOT
ATOM      1  C   UNL     1      35.485 -17.595 -22.491  0.00  0.00    +0.044 C 
ATOM      2  C   UNL     1      34.824 -18.047 -23.633  0.00  0.00    -0.008 C 
ATOM      3  C   UNL     1      34.614 -15.372 -22.869  0.00  0.00    +0.055 C 
ATOM      4  C   UNL     1      35.380 -16.257 -22.110  0.00  0.00    +0.019 C 
ATOM      5  C   UNL     1      34.059 -17.163 -24.393  0.00  0.00    -0.003 C 
ATOM      6  C   UNL     1      33.954 -15.826 -24.011  0.00  0.00    +0.004 C 
ATOM      7  C   UNL     1      34.918 -19.475 -24.065  0.00  0.00    +0.032 C 
ENDROOT
BRANCH   3  10
ATOM      8  O   UNL     1      34.767 -13.663 -21.299  0.00  0.00    -0.270 OA
ATOM      9  N   UNL     1      34.083 -13.089 -23.469  0.00  0.00    -0.280 N 
ATOM     10  C   UNL     1      34.506 -13.978 -22.471  0.00  0.00    +0.250 C 
ATOM     11  H   UNL     1      33.914 -13.487 -24.354  0.00  0.00    +0.155 HD
BRANCH   9  12
ATOM     12  C   UNL     1      33.866 -11.692 -23.371  0.00  0.00    +0.050 C 
ATOM     13  C   UNL     1      32.822 -11.201 -22.586  0.00  0.00    +0.019 C 
ATOM     14  C   UNL     1      32.608  -9.826 -22.489  0.00  0.00    +0.073 C 
ATOM     15  C   UNL     1      34.696 -10.807 -24.059  0.00  0.00    +0.015 C 
ATOM     16  C   UNL     1      33.439  -8.942 -23.178  0.00  0.00    +0.004 C 
ATOM     17  C   UNL     1      34.483  -9.433 -23.962  0.00  0.00    +0.001 C 
BRANCH  14  21
ATOM     18  F   UNL     1      30.541 -10.235 -21.358  0.00  0.00    -0.166 F 
ATOM     19  F   UNL     1      31.901  -8.815 -20.441  0.00  0.00    -0.166 F 
ATOM     20  F   UNL     1      30.824  -8.274 -22.252  0.00  0.00    -0.166 F 
ATOM     21  C   UNL     1      31.493  -9.301 -21.651  0.00  0.00    +0.419 C 
ENDBRANCH  14  21
ENDBRANCH   9  12
ENDBRANCH   3  10
BRANCH   1  22
ATOM     22  N   UNL     1      36.264 -18.476 -21.710  0.00  0.00    -0.312 N 
ATOM     23  H   UNL     1      37.228 -18.428 -21.901  0.00  0.00    +0.152 HD
BRANCH  22  25
ATOM     24  N   UNL     1      36.660 -20.916 -18.967  0.00  0.00    -0.241 NA
ATOM     25  C   UNL     1      35.931 -19.411 -20.712  0.00  0.00    +0.068 C 
ATOM     26  C   UNL     1      34.607 -19.759 -20.469  0.00  0.00    +0.022 C 
ATOM     27  C   UNL     1      36.911 -20.012 -19.940  0.00  0.00    +0.113 C 
ATOM     28  C   UNL     1      34.308 -20.685 -19.475  0.00  0.00    +0.073 C 
ATOM     29  C   UNL     1      35.361 -21.230 -18.759  0.00  0.00    +0.103 C 
BRANCH  28  32
ATOM     30  O   UNL     1      31.975 -20.393 -19.605  0.00  0.00    -0.270 OA
ATOM     31  N   UNL     1      32.724 -22.240 -18.472  0.00  0.00    -0.325 N 
ATOM     32  C   UNL     1      32.936 -21.070 -19.198  0.00  0.00    +0.244 C 
ATOM     33  H   UNL     1      31.806 -22.532 -18.265  0.00  0.00    +0.145 HD
ATOM     34  H   UNL     1      33.491 -22.776 -18.166  0.00  0.00    +0.145 HD
ENDBRANCH  28  32
ENDBRANCH  22  25
ENDBRANCH   1  22
TORSDOF 6
ENDMDL
MODEL 5
REMARK VINA RESULT:     -11.9      6.350     11.946
REMARK  Name = 24875320
REMARK  6 active torsions:
REMARK  status: ('A' for Active; 'I' for Inactive)
REMARK    1  A    between atoms: C_1  and  N_22
REMARK    2  A    between atoms: C_3  and  C_10
REMARK    3  A    between atoms: N_9  and  C_12
REMARK    4  A    between atoms: C_14  and  C_21
REMARK    5  A    between atoms: N_22  and  C_25
REMARK    6  A    between atoms: C_28  and  C_32
REMARK                            x       y       z     vdW  Elec       q    Type
REMARK                         _______ _______ _______ _____ _____    ______ ____
ROOT
ATOM      1  C   UNL     1      34.201 -14.694 -23.485  0.00  0.00    +0.044 C 
ATOM      2  C   UNL     1      33.723 -14.721 -24.795  0.00  0.00    -0.008 C 
ATOM      3  C   UNL     1      34.477 -17.094 -23.536  0.00  0.00    +0.055 C 
ATOM      4  C   UNL     1      34.578 -15.880 -22.855  0.00  0.00    +0.019 C 
ATOM      5  C   UNL     1      33.622 -15.934 -25.475  0.00  0.00    -0.003 C 
ATOM      6  C   UNL     1      33.998 -17.121 -24.846  0.00  0.00    +0.004 C 
ATOM      7  C   UNL     1      33.314 -13.465 -25.494  0.00  0.00    +0.032 C 
ENDROOT
BRANCH   3  10
ATOM      8  O   UNL     1      34.940 -19.373 -23.549  0.00  0.00    -0.270 OA
ATOM      9  N   UNL     1      35.116 -18.240 -21.502  0.00  0.00    -0.280 N 
ATOM     10  C   UNL     1      34.868 -18.330 -22.879  0.00  0.00    +0.250 C 
ATOM     11  H   UNL     1      35.020 -17.343 -21.108  0.00  0.00    +0.155 HD
BRANCH   9  12
ATOM     12  C   UNL     1      35.487 -19.271 -20.604  0.00  0.00    +0.050 C 
ATOM     13  C   UNL     1      34.515 -20.123 -20.079  0.00  0.00    +0.019 C 
ATOM     14  C   UNL     1      34.881 -21.137 -19.194  0.00  0.00    +0.073 C 
ATOM     15  C   UNL     1      36.825 -19.433 -20.243  0.00  0.00    +0.015 C 
ATOM     16  C   UNL     1      36.219 -21.299 -18.834  0.00  0.00    +0.004 C 
ATOM     17  C   UNL     1      37.190 -20.447 -19.358  0.00  0.00    +0.001 C 
BRANCH  14  21
ATOM     18  F   UNL     1      32.583 -21.521 -18.650  0.00  0.00    -0.166 F 
ATOM     19  F   UNL     1      33.740 -23.236 -19.300  0.00  0.00    -0.166 F 
ATOM     20  F   UNL     1      34.083 -22.379 -17.331  0.00  0.00    -0.166 F 
ATOM     21  C   UNL     1      33.842 -22.048 -18.633  0.00  0.00    +0.419 C 
ENDBRANCH  14  21
ENDBRANCH   9  12
ENDBRANCH   3  10
BRANCH   1  22
ATOM     22  N   UNL     1      34.311 -13.474 -22.781  0.00  0.00    -0.312 N 
ATOM     23  H   UNL     1      35.220 -13.096 -22.784  0.00  0.00    +0.152 HD
BRANCH  22  25
ATOM     24  N   UNL     1      31.755 -12.527 -20.291  0.00  0.00    -0.241 NA
ATOM     25  C   UNL     1      33.376 -12.694 -22.076  0.00  0.00    +0.068 C 
ATOM     26  C   UNL     1      33.137 -11.370 -22.427  0.00  0.00    +0.022 C 
ATOM     27  C   UNL     1      32.665 -13.221 -21.009  0.00  0.00    +0.113 C 
ATOM     28  C   UNL     1      32.208 -10.623 -21.711  0.00  0.00    +0.073 C 
ATOM     29  C   UNL     1      31.549 -11.243 -20.661  0.00  0.00    +0.103 C 
BRANCH  28  32
ATOM     30  O   UNL     1      32.047  -8.823 -23.221  0.00  0.00    -0.270 OA
ATOM     31  N   UNL     1      31.524  -8.386 -21.032  0.00  0.00    -0.325 N 
ATOM     32  C   UNL     1      31.935  -9.239 -22.053  0.00  0.00    +0.244 C 
ATOM     33  H   UNL     1      31.330  -7.441 -21.227  0.00  0.00    +0.145 HD
ATOM     34  H   UNL     1      31.425  -8.729 -20.114  0.00  0.00    +0.145 HD
ENDBRANCH  28  32
ENDBRANCH  22  25
ENDBRANCH   1  22
TORSDOF 6
ENDMDL
MODEL 6
REMARK VINA RESULT:     -11.9      1.456      2.003
REMARK  Name = 24875320
REMARK  6 active torsions:
REMARK  status: ('A' for Active; 'I' for Inactive)
REMARK    1  A    between atoms: C_1  and  N_22
REMARK    2  A    between atoms: C_3  and  C_10
REMARK    3  A    between atoms: N_9  and  C_12
REMARK    4  A    between atoms: C_14  and  C_21
REMARK    5  A    between atoms: N_22  and  C_25
REMARK    6  A    between atoms: C_28  and  C_32
REMARK                            x       y       z     vdW  Elec       q    Type
REMARK                         _______ _______ _______ _____ _____    ______ ____
ROOT
ATOM      1  C   UNL     1      33.655 -23.616 -15.586  0.00  0.00    +0.044 C 
ATOM      2  C   UNL     1      32.279 -23.403 -15.664  0.00  0.00    -0.008 C 
ATOM      3  C   UNL     1      33.965 -22.349 -17.621  0.00  0.00    +0.055 C 
ATOM      4  C   UNL     1      34.498 -23.090 -16.566  0.00  0.00    +0.019 C 
ATOM      5  C   UNL     1      31.745 -22.663 -16.719  0.00  0.00    -0.003 C 
ATOM      6  C   UNL     1      32.588 -22.137 -17.698  0.00  0.00    +0.004 C 
ATOM      7  C   UNL     1      31.353 -23.954 -14.629  0.00  0.00    +0.032 C 
ENDROOT
BRANCH   3  10
ATOM      8  O   UNL     1      35.942 -22.343 -18.846  0.00  0.00    -0.270 OA
ATOM      9  N   UNL     1      34.369 -20.665 -19.311  0.00  0.00    -0.280 N 
ATOM     10  C   UNL     1      34.843 -21.802 -18.642  0.00  0.00    +0.250 C 
ATOM     11  H   UNL     1      33.476 -20.350 -19.041  0.00  0.00    +0.155 HD
BRANCH   9  12
ATOM     12  C   UNL     1      35.007 -19.908 -20.325  0.00  0.00    +0.050 C 
ATOM     13  C   UNL     1      34.396 -19.753 -21.570  0.00  0.00    +0.019 C 
ATOM     14  C   UNL     1      35.025 -19.009 -22.568  0.00  0.00    +0.073 C 
ATOM     15  C   UNL     1      36.246 -19.318 -20.078  0.00  0.00    +0.015 C 
ATOM     16  C   UNL     1      36.265 -18.418 -22.320  0.00  0.00    +0.004 C 
ATOM     17  C   UNL     1      36.875 -18.573 -21.076  0.00  0.00    +0.001 C 
BRANCH  14  21
ATOM     18  F   UNL     1      34.749 -17.707 -24.555  0.00  0.00    -0.166 F 
ATOM     19  F   UNL     1      34.640 -19.863 -24.767  0.00  0.00    -0.166 F 
ATOM     20  F   UNL     1      33.012 -18.782 -23.812  0.00  0.00    -0.166 F 
ATOM     21  C   UNL     1      34.373 -18.843 -23.898  0.00  0.00    +0.419 C 
ENDBRANCH  14  21
ENDBRANCH   9  12
ENDBRANCH   3  10
BRANCH   1  22
ATOM     22  N   UNL     1      34.212 -24.362 -14.525  0.00  0.00    -0.312 N 
ATOM     23  H   UNL     1      33.558 -24.921 -14.047  0.00  0.00    +0.152 HD
BRANCH  22  25
ATOM     24  N   UNL     1      37.722 -25.449 -14.159  0.00  0.00    -0.241 NA
ATOM     25  C   UNL     1      35.521 -24.462 -14.015  0.00  0.00    +0.068 C 
ATOM     26  C   UNL     1      35.919 -23.715 -12.912  0.00  0.00    +0.022 C 
ATOM     27  C   UNL     1      36.452 -25.307 -14.597  0.00  0.00    +0.113 C 
ATOM     28  C   UNL     1      37.219 -23.833 -12.432  0.00  0.00    +0.073 C 
ATOM     29  C   UNL     1      38.074 -24.707 -13.084  0.00  0.00    +0.103 C 
BRANCH  28  32
ATOM     30  O   UNL     1      38.688 -22.359 -11.330  0.00  0.00    -0.270 OA
ATOM     31  N   UNL     1      36.901 -23.134 -10.120  0.00  0.00    -0.325 N 
ATOM     32  C   UNL     1      37.666 -23.067 -11.282  0.00  0.00    +0.244 C 
ATOM     33  H   UNL     1      37.173 -22.628  -9.321  0.00  0.00    +0.145 HD
ATOM     34  H   UNL     1      36.086 -23.687 -10.098  0.00  0.00    +0.145 HD
ENDBRANCH  28  32
ENDBRANCH  22  25
ENDBRANCH   1  22
TORSDOF 6
ENDMDL
MODEL 7
REMARK VINA RESULT:     -11.8      7.465     13.085
REMARK  Name = 24875320
REMARK  6 active torsions:
REMARK  status: ('A' for Active; 'I' for Inactive)
REMARK    1  A    between atoms: C_1  and  N_22
REMARK    2  A    between atoms: C_3  and  C_10
REMARK    3  A    between atoms: N_9  and  C_12
REMARK    4  A    between atoms: C_14  and  C_21
REMARK    5  A    between atoms: N_22  and  C_25
REMARK    6  A    between atoms: C_28  and  C_32
REMARK                            x       y       z     vdW  Elec       q    Type
REMARK                         _______ _______ _______ _____ _____    ______ ____
ROOT
ATOM      1  C   UNL     1      34.152 -13.093 -23.575  0.00  0.00    +0.044 C 
ATOM      2  C   UNL     1      33.764 -13.635 -24.800  0.00  0.00    -0.008 C 
ATOM      3  C   UNL     1      34.531 -15.318 -22.711  0.00  0.00    +0.055 C 
ATOM      4  C   UNL     1      34.535 -13.935 -22.530  0.00  0.00    +0.019 C 
ATOM      5  C   UNL     1      33.760 -15.017 -24.982  0.00  0.00    -0.003 C 
ATOM      6  C   UNL     1      34.142 -15.860 -23.937  0.00  0.00    +0.004 C 
ATOM      7  C   UNL     1      33.350 -12.757 -25.936  0.00  0.00    +0.032 C 
ENDROOT
BRANCH   3  10
ATOM      8  O   UNL     1      35.163 -15.704 -20.507  0.00  0.00    -0.270 OA
ATOM      9  N   UNL     1      35.038 -17.556 -21.942  0.00  0.00    -0.280 N 
ATOM     10  C   UNL     1      34.929 -16.195 -21.623  0.00  0.00    +0.250 C 
ATOM     11  H   UNL     1      34.818 -17.797 -22.871  0.00  0.00    +0.155 HD
BRANCH   9  12
ATOM     12  C   UNL     1      35.424 -18.630 -21.103  0.00  0.00    +0.050 C 
ATOM     13  C   UNL     1      34.468 -19.537 -20.645  0.00  0.00    +0.019 C 
ATOM     14  C   UNL     1      34.848 -20.595 -19.819  0.00  0.00    +0.073 C 
ATOM     15  C   UNL     1      36.760 -18.781 -20.734  0.00  0.00    +0.015 C 
ATOM     16  C   UNL     1      36.185 -20.745 -19.450  0.00  0.00    +0.004 C 
ATOM     17  C   UNL     1      37.141 -19.839 -19.908  0.00  0.00    +0.001 C 
BRANCH  14  21
ATOM     18  F   UNL     1      32.624 -21.463 -19.967  0.00  0.00    -0.166 F 
ATOM     19  F   UNL     1      34.199 -22.870 -19.476  0.00  0.00    -0.166 F 
ATOM     20  F   UNL     1      33.551 -21.410 -18.001  0.00  0.00    -0.166 F 
ATOM     21  C   UNL     1      33.827 -21.564 -19.329  0.00  0.00    +0.419 C 
ENDBRANCH  14  21
ENDBRANCH   9  12
ENDBRANCH   3  10
BRANCH   1  22
ATOM     22  N   UNL     1      34.164 -11.695 -23.374  0.00  0.00    -0.312 N 
ATOM     23  H   UNL     1      34.998 -11.260 -23.664  0.00  0.00    +0.152 HD
BRANCH  22  25
ATOM     24  N   UNL     1      31.427 -10.388 -21.268  0.00  0.00    -0.241 NA
ATOM     25  C   UNL     1      33.216 -10.802 -22.839  0.00  0.00    +0.068 C 
ATOM     26  C   UNL     1      33.113  -9.499 -23.312  0.00  0.00    +0.022 C 
ATOM     27  C   UNL     1      32.358 -11.194 -21.825  0.00  0.00    +0.113 C 
ATOM     28  C   UNL     1      32.168  -8.639 -22.764  0.00  0.00    +0.073 C 
ATOM     29  C   UNL     1      31.356  -9.127 -21.753  0.00  0.00    +0.103 C 
BRANCH  28  32
ATOM     30  O   UNL     1      30.920  -6.771 -23.472  0.00  0.00    -0.270 OA
ATOM     31  N   UNL     1      33.199  -6.526 -23.401  0.00  0.00    -0.325 N 
ATOM     32  C   UNL     1      32.035  -7.273 -23.236  0.00  0.00    +0.244 C 
ATOM     33  H   UNL     1      33.147  -5.596 -23.720  0.00  0.00    +0.145 HD
ATOM     34  H   UNL     1      34.075  -6.928 -23.198  0.00  0.00    +0.145 HD
ENDBRANCH  28  32
ENDBRANCH  22  25
ENDBRANCH   1  22
TORSDOF 6
ENDMDL
MODEL 8
REMARK VINA RESULT:     -11.8      2.554      5.037
REMARK  Name = 24875320
REMARK  6 active torsions:
REMARK  status: ('A' for Active; 'I' for Inactive)
REMARK    1  A    between atoms: C_1  and  N_22
REMARK    2  A    between atoms: C_3  and  C_10
REMARK    3  A    between atoms: N_9  and  C_12
REMARK    4  A    between atoms: C_14  and  C_21
REMARK    5  A    between atoms: N_22  and  C_25
REMARK    6  A    between atoms: C_28  and  C_32
REMARK                            x       y       z     vdW  Elec       q    Type
REMARK                         _______ _______ _______ _____ _____    ______ ____
ROOT
ATOM      1  C   UNL     1      35.430 -24.142 -14.084  0.00  0.00    +0.044 C 
ATOM      2  C   UNL     1      36.697 -24.563 -13.680  0.00  0.00    -0.008 C 
ATOM      3  C   UNL     1      36.439 -22.710 -15.749  0.00  0.00    +0.055 C 
ATOM      4  C   UNL     1      35.302 -23.214 -15.119  0.00  0.00    +0.019 C 
ATOM      5  C   UNL     1      37.834 -24.059 -14.310  0.00  0.00    -0.003 C 
ATOM      6  C   UNL     1      37.706 -23.132 -15.344  0.00  0.00    +0.004 C 
ATOM      7  C   UNL     1      36.864 -25.556 -12.576  0.00  0.00    +0.032 C 
ENDROOT
BRANCH   3  10
ATOM      8  O   UNL     1      37.112 -20.802 -16.898  0.00  0.00    -0.270 OA
ATOM      9  N   UNL     1      35.232 -21.950 -17.705  0.00  0.00    -0.280 N 
ATOM     10  C   UNL     1      36.305 -21.743 -16.827  0.00  0.00    +0.250 C 
ATOM     11  H   UNL     1      34.676 -22.742 -17.522  0.00  0.00    +0.155 HD
BRANCH   9  12
ATOM     12  C   UNL     1      34.841 -21.169 -18.820  0.00  0.00    +0.050 C 
ATOM     13  C   UNL     1      35.782 -20.382 -19.485  0.00  0.00    +0.019 C 
ATOM     14  C   UNL     1      35.397 -19.612 -20.583  0.00  0.00    +0.073 C 
ATOM     15  C   UNL     1      33.515 -21.186 -19.253  0.00  0.00    +0.015 C 
ATOM     16  C   UNL     1      34.070 -19.630 -21.016  0.00  0.00    +0.004 C 
ATOM     17  C   UNL     1      33.130 -20.416 -20.351  0.00  0.00    +0.001 C 
BRANCH  14  21
ATOM     18  F   UNL     1      36.251 -17.433 -21.072  0.00  0.00    -0.166 F 
ATOM     19  F   UNL     1      37.692 -19.048 -20.943  0.00  0.00    -0.166 F 
ATOM     20  F   UNL     1      36.350 -18.925 -22.649  0.00  0.00    -0.166 F 
ATOM     21  C   UNL     1      36.401 -18.771 -21.294  0.00  0.00    +0.419 C 
ENDBRANCH  14  21
ENDBRANCH   9  12
ENDBRANCH   3  10
BRANCH   1  22
ATOM     22  N   UNL     1      34.268 -24.642 -13.459  0.00  0.00    -0.312 N 
ATOM     23  H   UNL     1      34.453 -25.223 -12.685  0.00  0.00    +0.152 HD
BRANCH  22  25
ATOM     24  N   UNL     1      30.603 -24.914 -13.098  0.00  0.00    -0.241 NA
ATOM     25  C   UNL     1      32.896 -24.474 -13.724  0.00  0.00    +0.068 C 
ATOM     26  C   UNL     1      32.463 -23.736 -14.820  0.00  0.00    +0.022 C 
ATOM     27  C   UNL     1      31.934 -25.038 -12.901  0.00  0.00    +0.113 C 
ATOM     28  C   UNL     1      31.101 -23.585 -15.055  0.00  0.00    +0.073 C 
ATOM     29  C   UNL     1      30.219 -24.190 -14.173  0.00  0.00    +0.103 C 
BRANCH  28  32
ATOM     30  O   UNL     1      31.400 -22.302 -17.007  0.00  0.00    -0.270 OA
ATOM     31  N   UNL     1      29.238 -22.700 -16.353  0.00  0.00    -0.325 N 
ATOM     32  C   UNL     1      30.617 -22.821 -16.191  0.00  0.00    +0.244 C 
ATOM     33  H   UNL     1      28.874 -22.190 -17.112  0.00  0.00    +0.145 HD
ATOM     34  H   UNL     1      28.628 -23.127 -15.709  0.00  0.00    +0.145 HD
ENDBRANCH  28  32
ENDBRANCH  22  25
ENDBRANCH   1  22
TORSDOF 6
ENDMDL
MODEL 9
REMARK VINA RESULT:     -11.8      3.377      5.394
REMARK  Name = 24875320
REMARK  6 active torsions:
REMARK  status: ('A' for Active; 'I' for Inactive)
REMARK    1  A    between atoms: C_1  and  N_22
REMARK    2  A    between atoms: C_3  and  C_10
REMARK    3  A    between atoms: N_9  and  C_12
REMARK    4  A    between atoms: C_14  and  C_21
REMARK    5  A    between atoms: N_22  and  C_25
REMARK    6  A    between atoms: C_28  and  C_32
REMARK                            x       y       z     vdW  Elec       q    Type
REMARK                         _______ _______ _______ _____ _____    ______ ____
ROOT
ATOM      1  C   UNL     1      34.844 -22.888 -16.475  0.00  0.00    +0.044 C 
ATOM      2  C   UNL     1      36.187 -22.708 -16.144  0.00  0.00    -0.008 C 
ATOM      3  C   UNL     1      35.118 -21.427 -18.380  0.00  0.00    +0.055 C 
ATOM      4  C   UNL     1      34.310 -22.247 -17.592  0.00  0.00    +0.019 C 
ATOM      5  C   UNL     1      36.996 -21.889 -16.931  0.00  0.00    -0.003 C 
ATOM      6  C   UNL     1      36.462 -21.248 -18.049  0.00  0.00    +0.004 C 
ATOM      7  C   UNL     1      36.787 -23.383 -14.953  0.00  0.00    +0.032 C 
ENDROOT
BRANCH   3  10
ATOM      8  O   UNL     1      33.419 -21.062 -19.926  0.00  0.00    -0.270 OA
ATOM      9  N   UNL     1      35.393 -19.818 -20.167  0.00  0.00    -0.280 N 
ATOM     10  C   UNL     1      34.561 -20.759 -19.545  0.00  0.00    +0.250 C 
ATOM     11  H   UNL     1      36.274 -19.682 -19.748  0.00  0.00    +0.155 HD
BRANCH   9  12
ATOM     12  C   UNL     1      35.133 -19.036 -21.320  0.00  0.00    +0.050 C 
ATOM     13  C   UNL     1      35.109 -17.644 -21.230  0.00  0.00    +0.019 C 
ATOM     14  C   UNL     1      34.853 -16.876 -22.365  0.00  0.00    +0.073 C 
ATOM     15  C   UNL     1      34.901 -19.660 -22.546  0.00  0.00    +0.015 C 
ATOM     16  C   UNL     1      34.621 -17.500 -23.591  0.00  0.00    +0.004 C 
ATOM     17  C   UNL     1      34.645 -18.891 -23.681  0.00  0.00    +0.001 C 
BRANCH  14  21
ATOM     18  F   UNL     1      33.591 -14.847 -22.473  0.00  0.00    -0.166 F 
ATOM     19  F   UNL     1      35.228 -14.912 -21.053  0.00  0.00    -0.166 F 
ATOM     20  F   UNL     1      35.645 -14.789 -23.184  0.00  0.00    -0.166 F 
ATOM     21  C   UNL     1      34.827 -15.389 -22.269  0.00  0.00    +0.419 C 
ENDBRANCH  14  21
ENDBRANCH   9  12
ENDBRANCH   3  10
BRANCH   1  22
ATOM     22  N   UNL     1      34.011 -23.714 -15.689  0.00  0.00    -0.312 N 
ATOM     23  H   UNL     1      34.375 -24.617 -15.541  0.00  0.00    +0.152 HD
BRANCH  22  25
ATOM     24  N   UNL     1      31.485 -23.168 -13.052  0.00  0.00    -0.241 NA
ATOM     25  C   UNL     1      32.762 -23.500 -15.077  0.00  0.00    +0.068 C 
ATOM     26  C   UNL     1      31.599 -23.408 -15.834  0.00  0.00    +0.022 C 
ATOM     27  C   UNL     1      32.652 -23.375 -13.702  0.00  0.00    +0.113 C 
ATOM     28  C   UNL     1      30.379 -23.195 -15.202  0.00  0.00    +0.073 C 
ATOM     29  C   UNL     1      30.376 -23.083 -13.821  0.00  0.00    +0.103 C 
BRANCH  28  32
ATOM     30  O   UNL     1      28.854 -22.061 -16.593  0.00  0.00    -0.270 OA
ATOM     31  N   UNL     1      28.305 -24.203 -15.986  0.00  0.00    -0.325 N 
ATOM     32  C   UNL     1      29.148 -23.094 -15.964  0.00  0.00    +0.244 C 
ATOM     33  H   UNL     1      27.461 -24.170 -16.493  0.00  0.00    +0.145 HD
ATOM     34  H   UNL     1      28.553 -25.020 -15.496  0.00  0.00    +0.145 HD
ENDBRANCH  28  32
ENDBRANCH  22  25
ENDBRANCH   1  22
TORSDOF 6
ENDMDL
