MODEL 1
REMARK VINA RESULT:     -12.2      0.000      0.000
REMARK  Name = 24988948
REMARK  5 active torsions:
REMARK  status: ('A' for Active; 'I' for Inactive)
REMARK    1  A    between atoms: N_2  and  C_21
REMARK    2  A    between atoms: C_6  and  O_11
REMARK    3  A    between atoms: O_11  and  C_13
REMARK    4  A    between atoms: C_16  and  C_20
REMARK    5  A    between atoms: C_21  and  C_25
REMARK                            x       y       z     vdW  Elec       q    Type
REMARK                         _______ _______ _______ _____ _____    ______ ____
ROOT
ATOM      1 CL   UNL     1      34.078 -15.296 -25.646  0.00  0.00    -0.079 Cl
ATOM      2  N   UNL     1      35.046 -19.056 -21.305  0.00  0.00    -0.205 N 
ATOM      3  N   UNL     1      35.638 -18.314 -20.354  0.00  0.00    -0.176 NA
ATOM      4  C   UNL     1      34.724 -18.360 -22.440  0.00  0.00    +0.074 C 
ATOM      5  C   UNL     1      35.145 -17.057 -22.202  0.00  0.00    +0.071 C 
ATOM      6  C   UNL     1      34.953 -16.080 -23.193  0.00  0.00    +0.158 C 
ATOM      7  C   UNL     1      35.696 -17.098 -20.903  0.00  0.00    +0.122 C 
ATOM      8  C   UNL     1      34.112 -18.758 -23.630  0.00  0.00    +0.017 C 
ATOM      9  C   UNL     1      34.341 -16.458 -24.395  0.00  0.00    +0.092 C 
ATOM     10  C   UNL     1      33.928 -17.774 -24.608  0.00  0.00    +0.016 C 
ENDROOT
BRANCH   6  11
ATOM     11  O   UNL     1      35.358 -14.789 -22.985  0.00  0.00    -0.453 OA
BRANCH  11  13
ATOM     12 CL   UNL     1      31.812 -13.822 -19.442  0.00  0.00    -0.082 Cl
ATOM     13  C   UNL     1      34.431 -13.908 -22.464  0.00  0.00    +0.147 C 
ATOM     14  C   UNL     1      34.247 -12.659 -23.056  0.00  0.00    +0.048 C 
ATOM     15  C   UNL     1      33.677 -14.268 -21.347  0.00  0.00    +0.049 C 
ATOM     16  C   UNL     1      33.310 -11.769 -22.531  0.00  0.00    +0.072 C 
ATOM     17  C   UNL     1      32.741 -13.378 -20.821  0.00  0.00    +0.061 C 
ATOM     18  C   UNL     1      32.557 -12.128 -21.413  0.00  0.00    +0.022 C 
BRANCH  16  20
ATOM     19  N   UNL     1      32.970  -9.450 -23.630  0.00  0.00    -0.191 NA
ATOM     20  C   UNL     1      33.123 -10.489 -23.138  0.00  0.00    +0.101 C 
ENDBRANCH  16  20
ENDBRANCH  11  13
ENDBRANCH   6  11
BRANCH   2  21
ATOM     21  C   UNL     1      34.811 -20.460 -21.057  0.00  0.00    +0.159 C 
BRANCH  21  25
ATOM     22  N   UNL     1      36.569 -20.600 -19.263  0.00  0.00    -0.230 N 
ATOM     23  N   UNL     1      36.870 -21.091 -18.042  0.00  0.00    -0.128 NA
ATOM     24  N   UNL     1      35.534 -22.445 -16.537  0.00  0.00    -0.192 NA
ATOM     25  C   UNL     1      35.319 -20.922 -19.714  0.00  0.00    +0.071 C 
ATOM     26  C   UNL     1      34.770 -21.674 -18.712  0.00  0.00    +0.058 C 
ATOM     27  C   UNL     1      35.764 -21.756 -17.690  0.00  0.00    +0.049 C 
ATOM     28  C   UNL     1      33.500 -22.231 -18.714  0.00  0.00    +0.065 C 
ATOM     29  C   UNL     1      33.285 -22.933 -17.523  0.00  0.00    +0.001 C 
ATOM     30  C   UNL     1      34.282 -23.005 -16.520  0.00  0.00    +0.105 C 
ATOM     31  H   UNL     1      37.201 -20.056 -19.788  0.00  0.00    +0.175 HD
ENDBRANCH  21  25
ENDBRANCH   2  21
TORSDOF 5
ENDMDL
MODEL 2
REMARK VINA RESULT:     -11.6      1.217      1.576
REMARK  Name = 24988948
REMARK  5 active torsions:
REMARK  status: ('A' for Active; 'I' for Inactive)
REMARK    1  A    between atoms: N_2  and  C_21
REMARK    2  A    between atoms: C_6  and  O_11
REMARK    3  A    between atoms: O_11  and  C_13
REMARK    4  A    between atoms: C_16  and  C_20
REMARK    5  A    between atoms: C_21  and  C_25
REMARK                            x       y       z     vdW  Elec       q    Type
REMARK                         _______ _______ _______ _____ _____    ______ ____
ROOT
ATOM      1 CL   UNL     1      33.902 -15.466 -25.646  0.00  0.00    -0.079 Cl
ATOM      2  N   UNL     1      35.565 -18.829 -21.192  0.00  0.00    -0.205 N 
ATOM      3  N   UNL     1      36.157 -17.976 -20.339  0.00  0.00    -0.176 NA
ATOM      4  C   UNL     1      35.090 -18.242 -22.333  0.00  0.00    +0.074 C 
ATOM      5  C   UNL     1      35.401 -16.893 -22.208  0.00  0.00    +0.071 C 
ATOM      6  C   UNL     1      35.039 -16.005 -23.234  0.00  0.00    +0.158 C 
ATOM      7  C   UNL     1      36.055 -16.799 -20.961  0.00  0.00    +0.122 C 
ATOM      8  C   UNL     1      34.427 -18.771 -23.443  0.00  0.00    +0.017 C 
ATOM      9  C   UNL     1      34.372 -16.515 -24.356  0.00  0.00    +0.092 C 
ATOM     10  C   UNL     1      34.073 -17.874 -24.456  0.00  0.00    +0.016 C 
ENDROOT
BRANCH   6  11
ATOM     11  O   UNL     1      35.333 -14.672 -23.136  0.00  0.00    -0.453 OA
BRANCH  11  13
ATOM     12 CL   UNL     1      31.863 -14.029 -19.447  0.00  0.00    -0.082 Cl
ATOM     13  C   UNL     1      34.392 -13.855 -22.541  0.00  0.00    +0.147 C 
ATOM     14  C   UNL     1      34.147 -12.582 -23.058  0.00  0.00    +0.048 C 
ATOM     15  C   UNL     1      33.685 -14.302 -21.426  0.00  0.00    +0.049 C 
ATOM     16  C   UNL     1      33.196 -11.757 -22.458  0.00  0.00    +0.072 C 
ATOM     17  C   UNL     1      32.734 -13.477 -20.825  0.00  0.00    +0.061 C 
ATOM     18  C   UNL     1      32.489 -12.205 -21.341  0.00  0.00    +0.022 C 
BRANCH  16  20
ATOM     19  N   UNL     1      32.743  -9.396 -23.417  0.00  0.00    -0.191 NA
ATOM     20  C   UNL     1      32.946 -10.453 -22.987  0.00  0.00    +0.101 C 
ENDBRANCH  16  20
ENDBRANCH  11  13
ENDBRANCH   6  11
BRANCH   2  21
ATOM     21  C   UNL     1      35.487 -20.230 -20.844  0.00  0.00    +0.159 C 
BRANCH  21  25
ATOM     22  N   UNL     1      33.036 -20.015 -20.322  0.00  0.00    -0.230 N 
ATOM     23  N   UNL     1      32.032 -20.436 -19.524  0.00  0.00    -0.128 NA
ATOM     24  N   UNL     1      32.059 -22.035 -17.700  0.00  0.00    -0.192 NA
ATOM     25  C   UNL     1      34.252 -20.581 -20.053  0.00  0.00    +0.071 C 
ATOM     26  C   UNL     1      34.018 -21.430 -19.007  0.00  0.00    +0.058 C 
ATOM     27  C   UNL     1      32.626 -21.312 -18.707  0.00  0.00    +0.049 C 
ATOM     28  C   UNL     1      34.961 -22.232 -18.382  0.00  0.00    +0.065 C 
ATOM     29  C   UNL     1      34.358 -22.964 -17.353  0.00  0.00    +0.001 C 
ATOM     30  C   UNL     1      32.977 -22.836 -17.069  0.00  0.00    +0.105 C 
ATOM     31  H   UNL     1      32.903 -19.353 -21.039  0.00  0.00    +0.175 HD
ENDBRANCH  21  25
ENDBRANCH   2  21
TORSDOF 5
ENDMDL
MODEL 3
REMARK VINA RESULT:     -11.2      2.232      3.238
REMARK  Name = 24988948
REMARK  5 active torsions:
REMARK  status: ('A' for Active; 'I' for Inactive)
REMARK    1  A    between atoms: N_2  and  C_21
REMARK    2  A    between atoms: C_6  and  O_11
REMARK    3  A    between atoms: O_11  and  C_13
REMARK    4  A    between atoms: C_16  and  C_20
REMARK    5  A    between atoms: C_21  and  C_25
REMARK                            x       y       z     vdW  Elec       q    Type
REMARK                         _______ _______ _______ _____ _____    ______ ____
ROOT
ATOM      1 CL   UNL     1      32.497 -13.256 -25.553  0.00  0.00    -0.079 Cl
ATOM      2  N   UNL     1      35.518 -16.647 -21.906  0.00  0.00    -0.205 N 
ATOM      3  N   UNL     1      35.295 -16.108 -20.695  0.00  0.00    -0.176 NA
ATOM      4  C   UNL     1      34.891 -15.995 -22.934  0.00  0.00    +0.074 C 
ATOM      5  C   UNL     1      34.204 -14.945 -22.337  0.00  0.00    +0.071 C 
ATOM      6  C   UNL     1      33.447 -14.073 -23.139  0.00  0.00    +0.158 C 
ATOM      7  C   UNL     1      34.494 -15.073 -20.962  0.00  0.00    +0.122 C 
ATOM      8  C   UNL     1      34.871 -16.235 -24.310  0.00  0.00    +0.017 C 
ATOM      9  C   UNL     1      33.413 -14.296 -24.521  0.00  0.00    +0.092 C 
ATOM     10  C   UNL     1      34.113 -15.358 -25.095  0.00  0.00    +0.016 C 
ENDROOT
BRANCH   6  11
ATOM     11  O   UNL     1      32.761 -13.031 -22.576  0.00  0.00    -0.453 OA
BRANCH  11  13
ATOM     12 CL   UNL     1      35.899 -10.028 -25.260  0.00  0.00    -0.082 Cl
ATOM     13  C   UNL     1      33.194 -11.753 -22.871  0.00  0.00    +0.147 C 
ATOM     14  C   UNL     1      32.615 -10.656 -22.232  0.00  0.00    +0.048 C 
ATOM     15  C   UNL     1      34.209 -11.558 -23.807  0.00  0.00    +0.049 C 
ATOM     16  C   UNL     1      33.051  -9.366 -22.529  0.00  0.00    +0.072 C 
ATOM     17  C   UNL     1      34.646 -10.267 -24.105  0.00  0.00    +0.061 C 
ATOM     18  C   UNL     1      34.067  -9.171 -23.465  0.00  0.00    +0.022 C 
BRANCH  16  20
ATOM     19  N   UNL     1      31.976  -7.330 -21.344  0.00  0.00    -0.191 NA
ATOM     20  C   UNL     1      32.458  -8.242 -21.875  0.00  0.00    +0.101 C 
ENDBRANCH  16  20
ENDBRANCH  11  13
ENDBRANCH   6  11
BRANCH   2  21
ATOM     21  C   UNL     1      36.362 -17.814 -22.011  0.00  0.00    +0.159 C 
BRANCH  21  25
ATOM     22  N   UNL     1      37.032 -19.357 -20.140  0.00  0.00    -0.230 N 
ATOM     23  N   UNL     1      36.601 -20.289 -19.264  0.00  0.00    -0.128 NA
ATOM     24  N   UNL     1      34.381 -21.212 -18.941  0.00  0.00    -0.192 NA
ATOM     25  C   UNL     1      36.063 -18.863 -20.969  0.00  0.00    +0.071 C 
ATOM     26  C   UNL     1      34.922 -19.523 -20.603  0.00  0.00    +0.058 C 
ATOM     27  C   UNL     1      35.296 -20.400 -19.540  0.00  0.00    +0.049 C 
ATOM     28  C   UNL     1      33.666 -19.353 -21.167  0.00  0.00    +0.065 C 
ATOM     29  C   UNL     1      32.743 -20.196 -20.538  0.00  0.00    +0.001 C 
ATOM     30  C   UNL     1      33.131 -21.059 -19.486  0.00  0.00    +0.105 C 
ATOM     31  H   UNL     1      37.969 -19.058 -20.180  0.00  0.00    +0.175 HD
ENDBRANCH  21  25
ENDBRANCH   2  21
TORSDOF 5
ENDMDL
MODEL 4
REMARK VINA RESULT:     -11.2      2.030      3.291
REMARK  Name = 24988948
REMARK  5 active torsions:
REMARK  status: ('A' for Active; 'I' for Inactive)
REMARK    1  A    between atoms: N_2  and  C_21
REMARK    2  A    between atoms: C_6  and  O_11
REMARK    3  A    between atoms: O_11  and  C_13
REMARK    4  A    between atoms: C_16  and  C_20
REMARK    5  A    between atoms: C_21  and  C_25
REMARK                            x       y       z     vdW  Elec       q    Type
REMARK                         _______ _______ _______ _____ _____    ______ ____
ROOT
ATOM      1 CL   UNL     1      33.127 -11.599 -25.900  0.00  0.00    -0.079 Cl
ATOM      2  N   UNL     1      34.633 -16.202 -22.666  0.00  0.00    -0.205 N 
ATOM      3  N   UNL     1      35.209 -15.664 -21.577  0.00  0.00    -0.176 NA
ATOM      4  C   UNL     1      34.196 -15.282 -23.581  0.00  0.00    +0.074 C 
ATOM      5  C   UNL     1      34.516 -14.044 -23.037  0.00  0.00    +0.071 C 
ATOM      6  C   UNL     1      34.191 -12.876 -23.746  0.00  0.00    +0.158 C 
ATOM      7  C   UNL     1      35.135 -14.351 -21.806  0.00  0.00    +0.122 C 
ATOM      8  C   UNL     1      33.559 -15.431 -24.815  0.00  0.00    +0.017 C 
ATOM      9  C   UNL     1      33.552 -13.002 -24.986  0.00  0.00    +0.092 C 
ATOM     10  C   UNL     1      33.242 -14.259 -25.510  0.00  0.00    +0.016 C 
ENDROOT
BRANCH   6  11
ATOM     11  O   UNL     1      34.495 -11.644 -23.234  0.00  0.00    -0.453 OA
BRANCH  11  13
ATOM     12 CL   UNL     1      30.323 -11.233 -20.319  0.00  0.00    -0.082 Cl
ATOM     13  C   UNL     1      33.445 -10.862 -22.793  0.00  0.00    +0.147 C 
ATOM     14  C   UNL     1      33.307  -9.553 -23.256  0.00  0.00    +0.048 C 
ATOM     15  C   UNL     1      32.522 -11.381 -21.885  0.00  0.00    +0.049 C 
ATOM     16  C   UNL     1      32.247  -8.764 -22.811  0.00  0.00    +0.072 C 
ATOM     17  C   UNL     1      31.462 -10.592 -21.439  0.00  0.00    +0.061 C 
ATOM     18  C   UNL     1      31.324  -9.283 -21.903  0.00  0.00    +0.022 C 
BRANCH  16  20
ATOM     19  N   UNL     1      31.993  -6.335 -23.669  0.00  0.00    -0.191 NA
ATOM     20  C   UNL     1      32.107  -7.423 -23.285  0.00  0.00    +0.101 C 
ENDBRANCH  16  20
ENDBRANCH  11  13
ENDBRANCH   6  11
BRANCH   2  21
ATOM     21  C   UNL     1      34.533 -17.639 -22.770  0.00  0.00    +0.159 C 
BRANCH  21  25
ATOM     22  N   UNL     1      36.752 -18.116 -21.686  0.00  0.00    -0.230 N 
ATOM     23  N   UNL     1      37.397 -18.857 -20.760  0.00  0.00    -0.128 NA
ATOM     24  N   UNL     1      36.543 -20.561 -19.260  0.00  0.00    -0.192 NA
ATOM     25  C   UNL     1      35.413 -18.373 -21.789  0.00  0.00    +0.071 C 
ATOM     26  C   UNL     1      35.173 -19.349 -20.862  0.00  0.00    +0.058 C 
ATOM     27  C   UNL     1      36.430 -19.623 -20.242  0.00  0.00    +0.049 C 
ATOM     28  C   UNL     1      33.945 -19.937 -20.596  0.00  0.00    +0.065 C 
ATOM     29  C   UNL     1      34.083 -20.895 -19.586  0.00  0.00    +0.001 C 
ATOM     30  C   UNL     1      35.337 -21.154 -18.983  0.00  0.00    +0.105 C 
ATOM     31  H   UNL     1      37.210 -17.446 -22.244  0.00  0.00    +0.175 HD
ENDBRANCH  21  25
ENDBRANCH   2  21
TORSDOF 5
ENDMDL
MODEL 5
REMARK VINA RESULT:     -11.0      2.192      4.089
REMARK  Name = 24988948
REMARK  5 active torsions:
REMARK  status: ('A' for Active; 'I' for Inactive)
REMARK    1  A    between atoms: N_2  and  C_21
REMARK    2  A    between atoms: C_6  and  O_11
REMARK    3  A    between atoms: O_11  and  C_13
REMARK    4  A    between atoms: C_16  and  C_20
REMARK    5  A    between atoms: C_21  and  C_25
REMARK                            x       y       z     vdW  Elec       q    Type
REMARK                         _______ _______ _______ _____ _____    ______ ____
ROOT
ATOM      1 CL   UNL     1      32.373 -12.205 -20.076  0.00  0.00    -0.079 Cl
ATOM      2  N   UNL     1      35.317 -16.519 -22.651  0.00  0.00    -0.205 N 
ATOM      3  N   UNL     1      35.095 -16.331 -23.963  0.00  0.00    -0.176 NA
ATOM      4  C   UNL     1      34.706 -15.600 -21.842  0.00  0.00    +0.074 C 
ATOM      5  C   UNL     1      34.030 -14.744 -22.704  0.00  0.00    +0.071 C 
ATOM      6  C   UNL     1      33.292 -13.673 -22.173  0.00  0.00    +0.158 C 
ATOM      7  C   UNL     1      34.311 -15.250 -23.991  0.00  0.00    +0.122 C 
ATOM      8  C   UNL     1      34.690 -15.451 -20.453  0.00  0.00    +0.017 C 
ATOM      9  C   UNL     1      33.263 -13.506 -20.782  0.00  0.00    +0.092 C 
ATOM     10  C   UNL     1      33.950 -14.380 -19.939  0.00  0.00    +0.016 C 
ENDROOT
BRANCH   6  11
ATOM     11  O   UNL     1      32.617 -12.816 -22.999  0.00  0.00    -0.453 OA
BRANCH  11  13
ATOM     12 CL   UNL     1      35.972  -9.960 -25.577  0.00  0.00    -0.082 Cl
ATOM     13  C   UNL     1      33.175 -11.572 -23.216  0.00  0.00    +0.147 C 
ATOM     14  C   UNL     1      32.738 -10.473 -22.475  0.00  0.00    +0.048 C 
ATOM     15  C   UNL     1      34.175 -11.412 -24.174  0.00  0.00    +0.049 C 
ATOM     16  C   UNL     1      33.301  -9.216 -22.694  0.00  0.00    +0.072 C 
ATOM     17  C   UNL     1      34.739 -10.155 -24.394  0.00  0.00    +0.061 C 
ATOM     18  C   UNL     1      34.302  -9.057 -23.653  0.00  0.00    +0.022 C 
BRANCH  16  20
ATOM     19  N   UNL     1      32.488  -7.178 -21.319  0.00  0.00    -0.191 NA
ATOM     20  C   UNL     1      32.852  -8.091 -21.935  0.00  0.00    +0.101 C 
ENDBRANCH  16  20
ENDBRANCH  11  13
ENDBRANCH   6  11
BRANCH   2  21
ATOM     21  C   UNL     1      36.145 -17.626 -22.230  0.00  0.00    +0.159 C 
BRANCH  21  25
ATOM     22  N   UNL     1      34.062 -18.958 -21.767  0.00  0.00    -0.230 N 
ATOM     23  N   UNL     1      33.523 -19.952 -21.030  0.00  0.00    -0.128 NA
ATOM     24  N   UNL     1      34.532 -21.342 -19.317  0.00  0.00    -0.192 NA
ATOM     25  C   UNL     1      35.378 -18.702 -21.502  0.00  0.00    +0.071 C 
ATOM     26  C   UNL     1      35.717 -19.594 -20.522  0.00  0.00    +0.058 C 
ATOM     27  C   UNL     1      34.537 -20.354 -20.256  0.00  0.00    +0.049 C 
ATOM     28  C   UNL     1      36.963 -19.716 -19.925  0.00  0.00    +0.065 C 
ATOM     29  C   UNL     1      36.935 -20.734 -18.966  0.00  0.00    +0.001 C 
ATOM     30  C   UNL     1      35.757 -21.477 -18.715  0.00  0.00    +0.105 C 
ATOM     31  H   UNL     1      33.547 -18.457 -22.442  0.00  0.00    +0.175 HD
ENDBRANCH  21  25
ENDBRANCH   2  21
TORSDOF 5
ENDMDL
MODEL 6
REMARK VINA RESULT:     -10.7      4.951     10.876
REMARK  Name = 24988948
REMARK  5 active torsions:
REMARK  status: ('A' for Active; 'I' for Inactive)
REMARK    1  A    between atoms: N_2  and  C_21
REMARK    2  A    between atoms: C_6  and  O_11
REMARK    3  A    between atoms: O_11  and  C_13
REMARK    4  A    between atoms: C_16  and  C_20
REMARK    5  A    between atoms: C_21  and  C_25
REMARK                            x       y       z     vdW  Elec       q    Type
REMARK                         _______ _______ _______ _____ _____    ______ ____
ROOT
ATOM      1 CL   UNL     1      33.548 -23.883 -14.416  0.00  0.00    -0.079 Cl
ATOM      2  N   UNL     1      35.728 -21.233 -19.121  0.00  0.00    -0.205 N 
ATOM      3  N   UNL     1      36.879 -20.690 -18.689  0.00  0.00    -0.176 NA
ATOM      4  C   UNL     1      35.035 -21.918 -18.159  0.00  0.00    +0.074 C 
ATOM      5  C   UNL     1      35.804 -21.808 -17.006  0.00  0.00    +0.071 C 
ATOM      6  C   UNL     1      35.357 -22.415 -15.821  0.00  0.00    +0.158 C 
ATOM      7  C   UNL     1      36.921 -21.042 -17.401  0.00  0.00    +0.122 C 
ATOM      8  C   UNL     1      33.823 -22.610 -18.204  0.00  0.00    +0.017 C 
ATOM      9  C   UNL     1      34.143 -23.115 -15.844  0.00  0.00    +0.092 C 
ATOM     10  C   UNL     1      33.391 -23.209 -17.016  0.00  0.00    +0.016 C 
ENDROOT
BRANCH   6  11
ATOM     11  O   UNL     1      36.094 -22.322 -14.671  0.00  0.00    -0.453 OA
BRANCH  11  13
ATOM     12 CL   UNL     1      37.733 -27.156 -14.575  0.00  0.00    -0.082 Cl
ATOM     13  C   UNL     1      36.287 -23.481 -13.945  0.00  0.00    +0.147 C 
ATOM     14  C   UNL     1      35.920 -23.529 -12.599  0.00  0.00    +0.048 C 
ATOM     15  C   UNL     1      36.846 -24.603 -14.555  0.00  0.00    +0.049 C 
ATOM     16  C   UNL     1      36.114 -24.699 -11.865  0.00  0.00    +0.072 C 
ATOM     17  C   UNL     1      37.041 -25.773 -13.822  0.00  0.00    +0.061 C 
ATOM     18  C   UNL     1      36.675 -25.821 -12.476  0.00  0.00    +0.022 C 
BRANCH  16  20
ATOM     19  N   UNL     1      35.436 -24.787  -9.368  0.00  0.00    -0.191 NA
ATOM     20  C   UNL     1      35.739 -24.748 -10.487  0.00  0.00    +0.101 C 
ENDBRANCH  16  20
ENDBRANCH  11  13
ENDBRANCH   6  11
BRANCH   2  21
ATOM     21  C   UNL     1      35.341 -21.053 -20.502  0.00  0.00    +0.159 C 
BRANCH  21  25
ATOM     22  N   UNL     1      35.696 -18.597 -20.093  0.00  0.00    -0.230 N 
ATOM     23  N   UNL     1      35.621 -17.361 -20.631  0.00  0.00    -0.128 NA
ATOM     24  N   UNL     1      34.926 -16.671 -22.851  0.00  0.00    -0.192 NA
ATOM     25  C   UNL     1      35.320 -19.608 -20.933  0.00  0.00    +0.071 C 
ATOM     26  C   UNL     1      34.978 -18.983 -22.100  0.00  0.00    +0.058 C 
ATOM     27  C   UNL     1      35.178 -17.587 -21.874  0.00  0.00    +0.049 C 
ATOM     28  C   UNL     1      34.531 -19.604 -23.257  0.00  0.00    +0.065 C 
ATOM     29  C   UNL     1      34.278 -18.647 -24.246  0.00  0.00    +0.001 C 
ATOM     30  C   UNL     1      34.482 -17.267 -24.004  0.00  0.00    +0.105 C 
ATOM     31  H   UNL     1      35.996 -18.756 -19.168  0.00  0.00    +0.175 HD
ENDBRANCH  21  25
ENDBRANCH   2  21
TORSDOF 5
ENDMDL
MODEL 7
REMARK VINA RESULT:     -10.7      5.676     10.935
REMARK  Name = 24988948
REMARK  5 active torsions:
REMARK  status: ('A' for Active; 'I' for Inactive)
REMARK    1  A    between atoms: N_2  and  C_21
REMARK    2  A    between atoms: C_6  and  O_11
REMARK    3  A    between atoms: O_11  and  C_13
REMARK    4  A    between atoms: C_16  and  C_20
REMARK    5  A    between atoms: C_21  and  C_25
REMARK                            x       y       z     vdW  Elec       q    Type
REMARK                         _______ _______ _______ _____ _____    ______ ____
ROOT
ATOM      1 CL   UNL     1      30.791 -23.928 -13.315  0.00  0.00    -0.079 Cl
ATOM      2  N   UNL     1      34.424 -22.383 -17.596  0.00  0.00    -0.205 N 
ATOM      3  N   UNL     1      35.640 -22.420 -17.025  0.00  0.00    -0.176 NA
ATOM      4  C   UNL     1      33.398 -22.717 -16.753  0.00  0.00    +0.074 C 
ATOM      5  C   UNL     1      34.002 -22.994 -15.533  0.00  0.00    +0.071 C 
ATOM      6  C   UNL     1      33.204 -23.375 -14.441  0.00  0.00    +0.158 C 
ATOM      7  C   UNL     1      35.379 -22.793 -15.769  0.00  0.00    +0.122 C 
ATOM      8  C   UNL     1      32.019 -22.797 -16.957  0.00  0.00    +0.017 C 
ATOM      9  C   UNL     1      31.818 -23.462 -14.623  0.00  0.00    +0.092 C 
ATOM     10  C   UNL     1      31.238 -23.177 -15.860  0.00  0.00    +0.016 C 
ENDROOT
BRANCH   6  11
ATOM     11  O   UNL     1      33.774 -23.653 -13.228  0.00  0.00    -0.453 OA
BRANCH  11  13
ATOM     12 CL   UNL     1      37.029 -27.194 -14.940  0.00  0.00    -0.082 Cl
ATOM     13  C   UNL     1      35.057 -24.163 -13.230  0.00  0.00    +0.147 C 
ATOM     14  C   UNL     1      36.051 -23.551 -12.466  0.00  0.00    +0.048 C 
ATOM     15  C   UNL     1      35.360 -25.290 -13.994  0.00  0.00    +0.049 C 
ATOM     16  C   UNL     1      37.348 -24.065 -12.467  0.00  0.00    +0.072 C 
ATOM     17  C   UNL     1      36.656 -25.804 -13.996  0.00  0.00    +0.061 C 
ATOM     18  C   UNL     1      37.650 -25.192 -13.232  0.00  0.00    +0.022 C 
BRANCH  16  20
ATOM     19  N   UNL     1      39.192 -22.929 -11.050  0.00  0.00    -0.191 NA
ATOM     20  C   UNL     1      38.366 -23.438 -11.685  0.00  0.00    +0.101 C 
ENDBRANCH  16  20
ENDBRANCH  11  13
ENDBRANCH   6  11
BRANCH   2  21
ATOM     21  C   UNL     1      34.313 -22.009 -18.987  0.00  0.00    +0.159 C 
BRANCH  21  25
ATOM     22  N   UNL     1      36.455 -20.720 -18.713  0.00  0.00    -0.230 N 
ATOM     23  N   UNL     1      37.222 -19.725 -19.210  0.00  0.00    -0.128 NA
ATOM     24  N   UNL     1      36.848 -18.279 -21.120  0.00  0.00    -0.192 NA
ATOM     25  C   UNL     1      35.292 -20.937 -19.398  0.00  0.00    +0.071 C 
ATOM     26  C   UNL     1      35.306 -20.019 -20.411  0.00  0.00    +0.058 C 
ATOM     27  C   UNL     1      36.522 -19.284 -20.261  0.00  0.00    +0.049 C 
ATOM     28  C   UNL     1      34.324 -19.855 -21.377  0.00  0.00    +0.065 C 
ATOM     29  C   UNL     1      34.679 -18.819 -22.248  0.00  0.00    +0.001 C 
ATOM     30  C   UNL     1      35.888 -18.102 -22.084  0.00  0.00    +0.105 C 
ATOM     31  H   UNL     1      36.713 -21.245 -17.921  0.00  0.00    +0.175 HD
ENDBRANCH  21  25
ENDBRANCH   2  21
TORSDOF 5
ENDMDL
MODEL 8
REMARK VINA RESULT:     -10.7      2.602      8.794
REMARK  Name = 24988948
REMARK  5 active torsions:
REMARK  status: ('A' for Active; 'I' for Inactive)
REMARK    1  A    between atoms: N_2  and  C_21
REMARK    2  A    between atoms: C_6  and  O_11
REMARK    3  A    between atoms: O_11  and  C_13
REMARK    4  A    between atoms: C_16  and  C_20
REMARK    5  A    between atoms: C_21  and  C_25
REMARK                            x       y       z     vdW  Elec       q    Type
REMARK                         _______ _______ _______ _____ _____    ______ ____
ROOT
ATOM      1 CL   UNL     1      34.959 -20.141 -24.377  0.00  0.00    -0.079 Cl
ATOM      2  N   UNL     1      34.167 -14.515 -23.098  0.00  0.00    -0.205 N 
ATOM      3  N   UNL     1      34.897 -14.325 -21.986  0.00  0.00    -0.176 NA
ATOM      4  C   UNL     1      34.208 -15.794 -23.584  0.00  0.00    +0.074 C 
ATOM      5  C   UNL     1      35.035 -16.491 -22.711  0.00  0.00    +0.071 C 
ATOM      6  C   UNL     1      35.284 -17.854 -22.939  0.00  0.00    +0.158 C 
ATOM      7  C   UNL     1      35.424 -15.529 -21.753  0.00  0.00    +0.122 C 
ATOM      8  C   UNL     1      33.601 -16.385 -24.694  0.00  0.00    +0.017 C 
ATOM      9  C   UNL     1      34.685 -18.467 -24.047  0.00  0.00    +0.092 C 
ATOM     10  C   UNL     1      33.858 -17.744 -24.908  0.00  0.00    +0.016 C 
ENDROOT
BRANCH   6  11
ATOM     11  O   UNL     1      36.094 -18.564 -22.095  0.00  0.00    -0.453 OA
BRANCH  11  13
ATOM     12 CL   UNL     1      31.761 -20.404 -20.120  0.00  0.00    -0.082 Cl
ATOM     13  C   UNL     1      35.482 -19.347 -21.135  0.00  0.00    +0.147 C 
ATOM     14  C   UNL     1      36.254 -20.016 -20.186  0.00  0.00    +0.048 C 
ATOM     15  C   UNL     1      34.093 -19.466 -21.114  0.00  0.00    +0.049 C 
ATOM     16  C   UNL     1      35.637 -20.805 -19.216  0.00  0.00    +0.072 C 
ATOM     17  C   UNL     1      33.475 -20.256 -20.145  0.00  0.00    +0.061 C 
ATOM     18  C   UNL     1      34.247 -20.925 -19.195  0.00  0.00    +0.022 C 
BRANCH  16  20
ATOM     19  N   UNL     1      37.070 -22.049 -17.454  0.00  0.00    -0.191 NA
ATOM     20  C   UNL     1      36.428 -21.492 -18.244  0.00  0.00    +0.101 C 
ENDBRANCH  16  20
ENDBRANCH  11  13
ENDBRANCH   6  11
BRANCH   2  21
ATOM     21  C   UNL     1      33.436 -13.401 -23.657  0.00  0.00    +0.159 C 
BRANCH  21  25
ATOM     22  N   UNL     1      32.155 -12.985 -21.533  0.00  0.00    -0.230 N 
ATOM     23  N   UNL     1      31.683 -12.042 -20.690  0.00  0.00    -0.128 NA
ATOM     24  N   UNL     1      31.863  -9.625 -20.800  0.00  0.00    -0.192 NA
ATOM     25  C   UNL     1      32.837 -12.494 -22.612  0.00  0.00    +0.071 C 
ATOM     26  C   UNL     1      32.806 -11.135 -22.456  0.00  0.00    +0.058 C 
ATOM     27  C   UNL     1      32.080 -10.893 -21.250  0.00  0.00    +0.049 C 
ATOM     28  C   UNL     1      33.374 -10.203 -23.311  0.00  0.00    +0.065 C 
ATOM     29  C   UNL     1      33.140  -8.910 -22.832  0.00  0.00    +0.001 C 
ATOM     30  C   UNL     1      32.418  -8.688 -21.635  0.00  0.00    +0.105 C 
ATOM     31  H   UNL     1      32.017 -13.948 -21.384  0.00  0.00    +0.175 HD
ENDBRANCH  21  25
ENDBRANCH   2  21
TORSDOF 5
ENDMDL
MODEL 9
REMARK VINA RESULT:     -10.6      4.871      8.462
REMARK  Name = 24988948
REMARK  5 active torsions:
REMARK  status: ('A' for Active; 'I' for Inactive)
REMARK    1  A    between atoms: N_2  and  C_21
REMARK    2  A    between atoms: C_6  and  O_11
REMARK    3  A    between atoms: O_11  and  C_13
REMARK    4  A    between atoms: C_16  and  C_20
REMARK    5  A    between atoms: C_21  and  C_25
REMARK                            x       y       z     vdW  Elec       q    Type
REMARK                         _______ _______ _______ _____ _____    ______ ____
ROOT
ATOM      1 CL   UNL     1      31.599  -7.720 -19.572  0.00  0.00    -0.079 Cl
ATOM      2  N   UNL     1      33.584 -11.263 -23.746  0.00  0.00    -0.205 N 
ATOM      3  N   UNL     1      34.570 -10.562 -24.331  0.00  0.00    -0.176 NA
ATOM      4  C   UNL     1      32.964 -10.607 -22.717  0.00  0.00    +0.074 C 
ATOM      5  C   UNL     1      33.604  -9.377 -22.628  0.00  0.00    +0.071 C 
ATOM      6  C   UNL     1      33.193  -8.456 -21.650  0.00  0.00    +0.158 C 
ATOM      7  C   UNL     1      34.580  -9.414 -23.647  0.00  0.00    +0.122 C 
ATOM      8  C   UNL     1      31.916 -10.984 -21.874  0.00  0.00    +0.017 C 
ATOM      9  C   UNL     1      32.143  -8.813 -20.794  0.00  0.00    +0.092 C 
ATOM     10  C   UNL     1      31.517 -10.056 -20.905  0.00  0.00    +0.016 C 
ENDROOT
BRANCH   6  11
ATOM     11  O   UNL     1      33.806  -7.237 -21.541  0.00  0.00    -0.453 OA
BRANCH  11  13
ATOM     12 CL   UNL     1      33.829  -4.712 -25.978  0.00  0.00    -0.082 Cl
ATOM     13  C   UNL     1      33.302  -6.201 -22.303  0.00  0.00    +0.147 C 
ATOM     14  C   UNL     1      32.330  -5.353 -21.772  0.00  0.00    +0.048 C 
ATOM     15  C   UNL     1      33.765  -6.002 -23.603  0.00  0.00    +0.049 C 
ATOM     16  C   UNL     1      31.821  -4.307 -22.541  0.00  0.00    +0.072 C 
ATOM     17  C   UNL     1      33.257  -4.956 -24.373  0.00  0.00    +0.061 C 
ATOM     18  C   UNL     1      32.285  -4.108 -23.842  0.00  0.00    +0.022 C 
BRANCH  16  20
ATOM     19  N   UNL     1      30.015  -2.735 -21.556  0.00  0.00    -0.191 NA
ATOM     20  C   UNL     1      30.825  -3.439 -21.997  0.00  0.00    +0.101 C 
ENDBRANCH  16  20
ENDBRANCH  11  13
ENDBRANCH   6  11
BRANCH   2  21
ATOM     21  C   UNL     1      33.278 -12.587 -24.235  0.00  0.00    +0.159 C 
BRANCH  21  25
ATOM     22  N   UNL     1      34.553 -13.449 -22.245  0.00  0.00    -0.230 N 
ATOM     23  N   UNL     1      35.117 -14.536 -21.676  0.00  0.00    -0.128 NA
ATOM     24  N   UNL     1      35.232 -16.825 -22.469  0.00  0.00    -0.192 NA
ATOM     25  C   UNL     1      33.959 -13.684 -23.454  0.00  0.00    +0.071 C 
ATOM     26  C   UNL     1      34.151 -15.018 -23.684  0.00  0.00    +0.058 C 
ATOM     27  C   UNL     1      34.874 -15.513 -22.556  0.00  0.00    +0.049 C 
ATOM     28  C   UNL     1      33.718 -15.724 -24.797  0.00  0.00    +0.065 C 
ATOM     29  C   UNL     1      34.096 -17.067 -24.687  0.00  0.00    +0.001 C 
ATOM     30  C   UNL     1      34.812 -17.540 -23.562  0.00  0.00    +0.105 C 
ATOM     31  H   UNL     1      34.570 -12.559 -21.824  0.00  0.00    +0.175 HD
ENDBRANCH  21  25
ENDBRANCH   2  21
TORSDOF 5
ENDMDL
