MODEL 1
REMARK VINA RESULT:     -11.6      0.000      0.000
REMARK  Name = 4369285
REMARK  9 active torsions:
REMARK  status: ('A' for Active; 'I' for Inactive)
REMARK    1  A    between atoms: N_1  and  C_18
REMARK    2  A    between atoms: N_2  and  C_8
REMARK    3  A    between atoms: C_11  and  C_17
REMARK    4  A    between atoms: C_18  and  C_19
REMARK    5  A    between atoms: C_19  and  C_21
REMARK    6  A    between atoms: C_21  and  C_22
REMARK    7  A    between atoms: C_25  and  N_30
REMARK    8  A    between atoms: C_26  and  O_31
REMARK    9  A    between atoms: C_27  and  O_33
REMARK                            x       y       z     vdW  Elec       q    Type
REMARK                         _______ _______ _______ _____ _____    ______ ____
ROOT
ATOM      1  N   UNL     1      33.511 -22.917 -17.559  0.00  0.00    +0.390 N 
ATOM      2  N   UNL     1      34.705 -20.994 -19.301  0.00  0.00    -0.312 N 
ATOM      3  C   UNL     1      34.874 -22.431 -17.308  0.00  0.00    -0.055 C 
ATOM      4  C   UNL     1      32.700 -21.845 -18.148  0.00  0.00    -0.055 C 
ATOM      5  C   UNL     1      35.544 -21.976 -18.607  0.00  0.00    +0.068 C 
ATOM      6  C   UNL     1      33.296 -21.370 -19.476  0.00  0.00    +0.068 C 
ATOM      7  H   UNL     1      33.555 -23.696 -18.216  0.00  0.00    -0.080 HD
ENDROOT
BRANCH   2   8
ATOM      8  C   UNL     1      35.278 -20.137 -20.248  0.00  0.00    +0.048 C 
ATOM      9  C   UNL     1      34.614 -19.840 -21.455  0.00  0.00    +0.018 C 
ATOM     10  C   UNL     1      36.537 -19.545 -20.022  0.00  0.00    +0.015 C 
ATOM     11  C   UNL     1      35.186 -18.986 -22.398  0.00  0.00    +0.073 C 
ATOM     12  C   UNL     1      37.109 -18.690 -20.965  0.00  0.00    +0.001 C 
ATOM     13  C   UNL     1      36.434 -18.411 -22.153  0.00  0.00    +0.004 C 
BRANCH  11  17
ATOM     14  F   UNL     1      34.763 -19.554 -24.683  0.00  0.00    -0.166 F 
ATOM     15  F   UNL     1      33.106 -18.731 -23.550  0.00  0.00    -0.166 F 
ATOM     16  F   UNL     1      34.751 -17.444 -24.155  0.00  0.00    -0.166 F 
ATOM     17  C   UNL     1      34.466 -18.688 -23.668  0.00  0.00    +0.419 C 
ENDBRANCH  11  17
ENDBRANCH   2   8
BRANCH   1  18
ATOM     18  C   UNL     1      32.903 -23.399 -16.320  0.00  0.00    -0.069 C 
BRANCH  18  19
ATOM     19  C   UNL     1      33.639 -22.853 -15.096  0.00  0.00    +0.046 C 
BRANCH  19  21
ATOM     20  O   UNL     1      33.114 -24.651 -13.578  0.00  0.00    -0.291 OA
ATOM     21  C   UNL     1      33.980 -23.949 -14.098  0.00  0.00    +0.171 C 
BRANCH  21  22
ATOM     22  C   UNL     1      35.412 -24.176 -13.742  0.00  0.00    +0.039 C 
ATOM     23  C   UNL     1      35.921 -23.549 -12.629  0.00  0.00    +0.030 C 
ATOM     24  C   UNL     1      36.166 -25.003 -14.542  0.00  0.00    +0.043 C 
ATOM     25  C   UNL     1      37.260 -23.760 -12.298  0.00  0.00    +0.179 C 
ATOM     26  C   UNL     1      37.504 -25.215 -14.211  0.00  0.00    +0.169 C 
ATOM     27  C   UNL     1      38.051 -24.594 -13.088  0.00  0.00    +0.190 C 
BRANCH  25  30
ATOM     28  O   UNL     1      37.100 -23.044 -10.112  0.00  0.00    -0.126 OA
ATOM     29  O   UNL     1      38.960 -22.646 -11.208  0.00  0.00    -0.126 OA
ATOM     30  N   UNL     1      37.800 -23.118 -11.149  0.00  0.00    +0.061 N 
ENDBRANCH  25  30
BRANCH  26  31
ATOM     31  O   UNL     1      38.265 -26.031 -14.992  0.00  0.00    -0.503 OA
ATOM     32  H   UNL     1      39.151 -25.797 -15.191  0.00  0.00    +0.292 HD
ENDBRANCH  26  31
BRANCH  27  33
ATOM     33  O   UNL     1      39.362 -24.807 -12.774  0.00  0.00    -0.502 OA
ATOM     34  H   UNL     1      39.587 -25.272 -11.992  0.00  0.00    +0.292 HD
ENDBRANCH  27  33
ENDBRANCH  21  22
ENDBRANCH  19  21
ENDBRANCH  18  19
ENDBRANCH   1  18
TORSDOF 9
ENDMDL
MODEL 2
REMARK VINA RESULT:     -11.5      6.502     10.424
REMARK  Name = 4369285
REMARK  9 active torsions:
REMARK  status: ('A' for Active; 'I' for Inactive)
REMARK    1  A    between atoms: N_1  and  C_18
REMARK    2  A    between atoms: N_2  and  C_8
REMARK    3  A    between atoms: C_11  and  C_17
REMARK    4  A    between atoms: C_18  and  C_19
REMARK    5  A    between atoms: C_19  and  C_21
REMARK    6  A    between atoms: C_21  and  C_22
REMARK    7  A    between atoms: C_25  and  N_30
REMARK    8  A    between atoms: C_26  and  O_31
REMARK    9  A    between atoms: C_27  and  O_33
REMARK                            x       y       z     vdW  Elec       q    Type
REMARK                         _______ _______ _______ _____ _____    ______ ____
ROOT
ATOM      1  N   UNL     1      35.495 -21.992 -18.606  0.00  0.00    +0.390 N 
ATOM      2  N   UNL     1      33.611 -22.674 -16.570  0.00  0.00    -0.312 N 
ATOM      3  C   UNL     1      34.093 -21.575 -18.722  0.00  0.00    -0.055 C 
ATOM      4  C   UNL     1      35.899 -22.001 -17.194  0.00  0.00    -0.055 C 
ATOM      5  C   UNL     1      33.170 -22.532 -17.962  0.00  0.00    +0.068 C 
ATOM      6  C   UNL     1      35.037 -22.971 -16.383  0.00  0.00    +0.068 C 
ATOM      7  H   UNL     1      35.591 -22.935 -18.982  0.00  0.00    -0.080 HD
ENDROOT
BRANCH   2   8
ATOM      8  C   UNL     1      32.711 -23.130 -15.600  0.00  0.00    +0.048 C 
ATOM      9  C   UNL     1      31.323 -23.138 -15.843  0.00  0.00    +0.018 C 
ATOM     10  C   UNL     1      33.167 -23.595 -14.350  0.00  0.00    +0.015 C 
ATOM     11  C   UNL     1      30.428 -23.592 -14.875  0.00  0.00    +0.073 C 
ATOM     12  C   UNL     1      32.271 -24.050 -13.382  0.00  0.00    +0.001 C 
ATOM     13  C   UNL     1      30.901 -24.048 -13.645  0.00  0.00    +0.004 C 
BRANCH  11  17
ATOM     14  F   UNL     1      28.352 -22.401 -14.866  0.00  0.00    -0.166 F 
ATOM     15  F   UNL     1      28.654 -23.840 -16.461  0.00  0.00    -0.166 F 
ATOM     16  F   UNL     1      28.289 -24.531 -14.432  0.00  0.00    -0.166 F 
ATOM     17  C   UNL     1      28.963 -23.589 -15.155  0.00  0.00    +0.419 C 
ENDBRANCH  11  17
ENDBRANCH   2   8
BRANCH   1  18
ATOM     18  C   UNL     1      36.360 -21.103 -19.381  0.00  0.00    -0.069 C 
BRANCH  18  19
ATOM     19  C   UNL     1      35.539 -20.051 -20.128  0.00  0.00    +0.046 C 
BRANCH  19  21
ATOM     20  O   UNL     1      37.632 -18.932 -20.554  0.00  0.00    -0.291 OA
ATOM     21  C   UNL     1      36.408 -18.920 -20.658  0.00  0.00    +0.171 C 
BRANCH  21  22
ATOM     22  C   UNL     1      35.745 -17.760 -21.327  0.00  0.00    +0.039 C 
ATOM     23  C   UNL     1      35.437 -17.858 -22.664  0.00  0.00    +0.030 C 
ATOM     24  C   UNL     1      35.470 -16.639 -20.579  0.00  0.00    +0.043 C 
ATOM     25  C   UNL     1      34.820 -16.775 -23.288  0.00  0.00    +0.179 C 
ATOM     26  C   UNL     1      34.852 -15.555 -21.202  0.00  0.00    +0.169 C 
ATOM     27  C   UNL     1      34.526 -15.623 -22.557  0.00  0.00    +0.190 C 
BRANCH  25  30
ATOM     28  O   UNL     1      33.789 -17.820 -25.066  0.00  0.00    -0.126 OA
ATOM     29  O   UNL     1      34.924 -15.980 -25.450  0.00  0.00    -0.126 OA
ATOM     30  N   UNL     1      34.495 -16.862 -24.670  0.00  0.00    +0.061 N 
ENDBRANCH  25  30
BRANCH  26  31
ATOM     31  O   UNL     1      34.572 -14.437 -20.477  0.00  0.00    -0.503 OA
ATOM     32  H   UNL     1      34.770 -14.410 -19.561  0.00  0.00    +0.292 HD
ENDBRANCH  26  31
BRANCH  27  33
ATOM     33  O   UNL     1      33.922 -14.556 -23.157  0.00  0.00    -0.502 OA
ATOM     34  H   UNL     1      33.143 -14.682 -23.662  0.00  0.00    +0.292 HD
ENDBRANCH  27  33
ENDBRANCH  21  22
ENDBRANCH  19  21
ENDBRANCH  18  19
ENDBRANCH   1  18
TORSDOF 9
ENDMDL
MODEL 3
REMARK VINA RESULT:     -11.4      1.514      2.373
REMARK  Name = 4369285
REMARK  9 active torsions:
REMARK  status: ('A' for Active; 'I' for Inactive)
REMARK    1  A    between atoms: N_1  and  C_18
REMARK    2  A    between atoms: N_2  and  C_8
REMARK    3  A    between atoms: C_11  and  C_17
REMARK    4  A    between atoms: C_18  and  C_19
REMARK    5  A    between atoms: C_19  and  C_21
REMARK    6  A    between atoms: C_21  and  C_22
REMARK    7  A    between atoms: C_25  and  N_30
REMARK    8  A    between atoms: C_26  and  O_31
REMARK    9  A    between atoms: C_27  and  O_33
REMARK                            x       y       z     vdW  Elec       q    Type
REMARK                         _______ _______ _______ _____ _____    ______ ____
ROOT
ATOM      1  N   UNL     1      33.807 -22.591 -18.214  0.00  0.00    +0.390 N 
ATOM      2  N   UNL     1      34.470 -20.370 -19.884  0.00  0.00    -0.312 N 
ATOM      3  C   UNL     1      35.150 -21.998 -18.165  0.00  0.00    -0.055 C 
ATOM      4  C   UNL     1      32.811 -21.549 -18.494  0.00  0.00    -0.055 C 
ATOM      5  C   UNL     1      35.507 -21.333 -19.496  0.00  0.00    +0.068 C 
ATOM      6  C   UNL     1      33.090 -20.868 -19.837  0.00  0.00    +0.068 C 
ATOM      7  H   UNL     1      33.781 -23.282 -18.964  0.00  0.00    -0.080 HD
ENDROOT
BRANCH   2   8
ATOM      8  C   UNL     1      34.772 -19.357 -20.802  0.00  0.00    +0.048 C 
ATOM      9  C   UNL     1      34.313 -19.422 -22.133  0.00  0.00    +0.018 C 
ATOM     10  C   UNL     1      35.545 -18.242 -20.422  0.00  0.00    +0.015 C 
ATOM     11  C   UNL     1      34.613 -18.412 -23.046  0.00  0.00    +0.073 C 
ATOM     12  C   UNL     1      35.846 -17.231 -21.336  0.00  0.00    +0.001 C 
ATOM     13  C   UNL     1      35.380 -17.317 -22.648  0.00  0.00    +0.004 C 
BRANCH  11  17
ATOM     14  F   UNL     1      34.536 -17.476 -25.247  0.00  0.00    -0.166 F 
ATOM     15  F   UNL     1      34.512 -19.640 -25.097  0.00  0.00    -0.166 F 
ATOM     16  F   UNL     1      32.754 -18.494 -24.526  0.00  0.00    -0.166 F 
ATOM     17  C   UNL     1      34.117 -18.504 -24.449  0.00  0.00    +0.419 C 
ENDBRANCH  11  17
ENDBRANCH   2   8
BRANCH   1  18
ATOM     18  C   UNL     1      33.500 -23.270 -16.957  0.00  0.00    -0.069 C 
BRANCH  18  19
ATOM     19  C   UNL     1      34.530 -22.927 -15.880  0.00  0.00    +0.046 C 
BRANCH  19  21
ATOM     20  O   UNL     1      32.948 -23.142 -14.073  0.00  0.00    -0.291 OA
ATOM     21  C   UNL     1      34.080 -23.370 -14.496  0.00  0.00    +0.171 C 
BRANCH  21  22
ATOM     22  C   UNL     1      35.047 -24.106 -13.628  0.00  0.00    +0.039 C 
ATOM     23  C   UNL     1      36.155 -24.675 -14.211  0.00  0.00    +0.030 C 
ATOM     24  C   UNL     1      34.792 -24.185 -12.278  0.00  0.00    +0.043 C 
ATOM     25  C   UNL     1      37.057 -25.363 -13.401  0.00  0.00    +0.179 C 
ATOM     26  C   UNL     1      35.695 -24.872 -11.467  0.00  0.00    +0.169 C 
ATOM     27  C   UNL     1      36.828 -25.460 -12.028  0.00  0.00    +0.190 C 
BRANCH  25  30
ATOM     28  O   UNL     1      38.238 -27.201 -14.137  0.00  0.00    -0.126 OA
ATOM     29  O   UNL     1      39.156 -25.218 -14.346  0.00  0.00    -0.126 OA
ATOM     30  N   UNL     1      38.208 -25.957 -13.991  0.00  0.00    +0.061 N 
ENDBRANCH  25  30
BRANCH  26  31
ATOM     31  O   UNL     1      35.458 -24.960 -10.128  0.00  0.00    -0.503 OA
ATOM     32  H   UNL     1      34.866 -25.609  -9.799  0.00  0.00    +0.292 HD
ENDBRANCH  26  31
BRANCH  27  33
ATOM     33  O   UNL     1      37.704 -26.131 -11.225  0.00  0.00    -0.502 OA
ATOM     34  H   UNL     1      37.416 -26.477 -10.403  0.00  0.00    +0.292 HD
ENDBRANCH  27  33
ENDBRANCH  21  22
ENDBRANCH  19  21
ENDBRANCH  18  19
ENDBRANCH   1  18
TORSDOF 9
ENDMDL
MODEL 4
REMARK VINA RESULT:     -11.3      7.348     10.407
REMARK  Name = 4369285
REMARK  9 active torsions:
REMARK  status: ('A' for Active; 'I' for Inactive)
REMARK    1  A    between atoms: N_1  and  C_18
REMARK    2  A    between atoms: N_2  and  C_8
REMARK    3  A    between atoms: C_11  and  C_17
REMARK    4  A    between atoms: C_18  and  C_19
REMARK    5  A    between atoms: C_19  and  C_21
REMARK    6  A    between atoms: C_21  and  C_22
REMARK    7  A    between atoms: C_25  and  N_30
REMARK    8  A    between atoms: C_26  and  O_31
REMARK    9  A    between atoms: C_27  and  O_33
REMARK                            x       y       z     vdW  Elec       q    Type
REMARK                         _______ _______ _______ _____ _____    ______ ____
ROOT
ATOM      1  N   UNL     1      34.025 -14.546 -24.574  0.00  0.00    +0.390 N 
ATOM      2  N   UNL     1      33.344 -12.074 -23.314  0.00  0.00    -0.312 N 
ATOM      3  C   UNL     1      33.829 -14.482 -23.120  0.00  0.00    -0.055 C 
ATOM      4  C   UNL     1      33.127 -13.595 -25.241  0.00  0.00    -0.055 C 
ATOM      5  C   UNL     1      34.127 -13.078 -22.586  0.00  0.00    +0.068 C 
ATOM      6  C   UNL     1      33.401 -12.162 -24.778  0.00  0.00    +0.068 C 
ATOM      7  H   UNL     1      34.990 -14.293 -24.787  0.00  0.00    -0.080 HD
ENDROOT
BRANCH   2   8
ATOM      8  C   UNL     1      33.121 -10.818 -22.739  0.00  0.00    +0.048 C 
ATOM      9  C   UNL     1      32.517 -10.696 -21.471  0.00  0.00    +0.018 C 
ATOM     10  C   UNL     1      33.493  -9.636 -23.412  0.00  0.00    +0.015 C 
ATOM     11  C   UNL     1      32.296  -9.444 -20.899  0.00  0.00    +0.073 C 
ATOM     12  C   UNL     1      33.271  -8.383 -22.839  0.00  0.00    +0.001 C 
ATOM     13  C   UNL     1      32.672  -8.287 -21.583  0.00  0.00    +0.004 C 
BRANCH  11  17
ATOM     14  F   UNL     1      30.481 -10.033 -19.456  0.00  0.00    -0.166 F 
ATOM     15  F   UNL     1      32.434  -9.809 -18.539  0.00  0.00    -0.166 F 
ATOM     16  F   UNL     1      31.348  -8.052 -19.220  0.00  0.00    -0.166 F 
ATOM     17  C   UNL     1      31.654  -9.340 -19.557  0.00  0.00    +0.419 C 
ENDBRANCH  11  17
ENDBRANCH   2   8
BRANCH   1  18
ATOM     18  C   UNL     1      33.790 -15.903 -25.064  0.00  0.00    -0.069 C 
BRANCH  18  19
ATOM     19  C   UNL     1      34.824 -16.878 -24.500  0.00  0.00    +0.046 C 
BRANCH  19  21
ATOM     20  O   UNL     1      33.191 -18.648 -24.373  0.00  0.00    -0.291 OA
ATOM     21  C   UNL     1      34.173 -18.103 -23.874  0.00  0.00    +0.171 C 
BRANCH  21  22
ATOM     22  C   UNL     1      34.751 -18.656 -22.613  0.00  0.00    +0.039 C 
ATOM     23  C   UNL     1      33.940 -19.401 -21.788  0.00  0.00    +0.030 C 
ATOM     24  C   UNL     1      36.072 -18.398 -22.325  0.00  0.00    +0.043 C 
ATOM     25  C   UNL     1      34.480 -19.916 -20.610  0.00  0.00    +0.179 C 
ATOM     26  C   UNL     1      36.612 -18.914 -21.147  0.00  0.00    +0.169 C 
ATOM     27  C   UNL     1      35.816 -19.674 -20.289  0.00  0.00    +0.190 C 
BRANCH  25  30
ATOM     28  O   UNL     1      34.144 -21.689 -19.174  0.00  0.00    -0.126 OA
ATOM     29  O   UNL     1      32.458 -20.346 -19.586  0.00  0.00    -0.126 OA
ATOM     30  N   UNL     1      33.653 -20.688 -19.747  0.00  0.00    +0.061 N 
ENDBRANCH  25  30
BRANCH  26  31
ATOM     31  O   UNL     1      37.917 -18.668 -20.847  0.00  0.00    -0.503 OA
ATOM     32  H   UNL     1      38.318 -17.866 -21.118  0.00  0.00    +0.292 HD
ENDBRANCH  26  31
BRANCH  27  33
ATOM     33  O   UNL     1      36.354 -20.172 -19.139  0.00  0.00    -0.502 OA
ATOM     34  H   UNL     1      36.514 -21.092 -19.056  0.00  0.00    +0.292 HD
ENDBRANCH  27  33
ENDBRANCH  21  22
ENDBRANCH  19  21
ENDBRANCH  18  19
ENDBRANCH   1  18
TORSDOF 9
ENDMDL
MODEL 5
REMARK VINA RESULT:     -11.3      6.468     10.227
REMARK  Name = 4369285
REMARK  9 active torsions:
REMARK  status: ('A' for Active; 'I' for Inactive)
REMARK    1  A    between atoms: N_1  and  C_18
REMARK    2  A    between atoms: N_2  and  C_8
REMARK    3  A    between atoms: C_11  and  C_17
REMARK    4  A    between atoms: C_18  and  C_19
REMARK    5  A    between atoms: C_19  and  C_21
REMARK    6  A    between atoms: C_21  and  C_22
REMARK    7  A    between atoms: C_25  and  N_30
REMARK    8  A    between atoms: C_26  and  O_31
REMARK    9  A    between atoms: C_27  and  O_33
REMARK                            x       y       z     vdW  Elec       q    Type
REMARK                         _______ _______ _______ _____ _____    ______ ____
ROOT
ATOM      1  N   UNL     1      35.679 -21.968 -18.681  0.00  0.00    +0.390 N 
ATOM      2  N   UNL     1      33.808 -22.702 -16.651  0.00  0.00    -0.312 N 
ATOM      3  C   UNL     1      34.244 -21.720 -18.868  0.00  0.00    -0.055 C 
ATOM      4  C   UNL     1      36.029 -21.827 -17.262  0.00  0.00    -0.055 C 
ATOM      5  C   UNL     1      33.404 -22.714 -18.061  0.00  0.00    +0.068 C 
ATOM      6  C   UNL     1      35.249 -22.824 -16.401  0.00  0.00    +0.068 C 
ATOM      7  H   UNL     1      35.890 -22.920 -18.979  0.00  0.00    -0.080 HD
ENDROOT
BRANCH   2   8
ATOM      8  C   UNL     1      32.928 -23.182 -15.674  0.00  0.00    +0.048 C 
ATOM      9  C   UNL     1      31.532 -23.085 -15.842  0.00  0.00    +0.018 C 
ATOM     10  C   UNL     1      33.413 -23.776 -14.491  0.00  0.00    +0.015 C 
ATOM     11  C   UNL     1      30.657 -23.564 -14.867  0.00  0.00    +0.073 C 
ATOM     12  C   UNL     1      32.537 -24.255 -13.516  0.00  0.00    +0.001 C 
ATOM     13  C   UNL     1      31.159 -24.148 -13.704  0.00  0.00    +0.004 C 
BRANCH  11  17
ATOM     14  F   UNL     1      28.468 -24.435 -14.447  0.00  0.00    -0.166 F 
ATOM     15  F   UNL     1      28.658 -22.279 -14.599  0.00  0.00    -0.166 F 
ATOM     16  F   UNL     1      28.826 -23.510 -16.383  0.00  0.00    -0.166 F 
ATOM     17  C   UNL     1      29.184 -23.449 -15.067  0.00  0.00    +0.419 C 
ENDBRANCH  11  17
ENDBRANCH   2   8
BRANCH   1  18
ATOM     18  C   UNL     1      36.469 -21.049 -19.498  0.00  0.00    -0.069 C 
BRANCH  18  19
ATOM     19  C   UNL     1      35.576 -20.010 -20.177  0.00  0.00    +0.046 C 
BRANCH  19  21
ATOM     20  O   UNL     1      37.594 -18.776 -20.647  0.00  0.00    -0.291 OA
ATOM     21  C   UNL     1      36.386 -18.903 -20.835  0.00  0.00    +0.171 C 
BRANCH  21  22
ATOM     22  C   UNL     1      35.686 -17.942 -21.739  0.00  0.00    +0.039 C 
ATOM     23  C   UNL     1      35.550 -16.635 -21.332  0.00  0.00    +0.030 C 
ATOM     24  C   UNL     1      35.203 -18.402 -22.942  0.00  0.00    +0.043 C 
ATOM     25  C   UNL     1      34.894 -15.738 -22.176  0.00  0.00    +0.179 C 
ATOM     26  C   UNL     1      34.548 -17.505 -23.786  0.00  0.00    +0.169 C 
ATOM     27  C   UNL     1      34.395 -16.173 -23.403  0.00  0.00    +0.190 C 
BRANCH  25  30
ATOM     28  O   UNL     1      34.477 -14.137 -20.570  0.00  0.00    -0.126 OA
ATOM     29  O   UNL     1      34.892 -13.475 -22.621  0.00  0.00    -0.126 OA
ATOM     30  N   UNL     1      34.747 -14.383 -21.768  0.00  0.00    +0.061 N 
ENDBRANCH  25  30
BRANCH  26  31
ATOM     31  O   UNL     1      34.064 -17.944 -24.982  0.00  0.00    -0.503 OA
ATOM     32  H   UNL     1      33.782 -17.327 -25.628  0.00  0.00    +0.292 HD
ENDBRANCH  26  31
BRANCH  27  33
ATOM     33  O   UNL     1      33.751 -15.304 -24.237  0.00  0.00    -0.502 OA
ATOM     34  H   UNL     1      34.150 -14.486 -24.459  0.00  0.00    +0.292 HD
ENDBRANCH  27  33
ENDBRANCH  21  22
ENDBRANCH  19  21
ENDBRANCH  18  19
ENDBRANCH   1  18
TORSDOF 9
ENDMDL
MODEL 6
REMARK VINA RESULT:     -11.2      3.824      5.885
REMARK  Name = 4369285
REMARK  9 active torsions:
REMARK  status: ('A' for Active; 'I' for Inactive)
REMARK    1  A    between atoms: N_1  and  C_18
REMARK    2  A    between atoms: N_2  and  C_8
REMARK    3  A    between atoms: C_11  and  C_17
REMARK    4  A    between atoms: C_18  and  C_19
REMARK    5  A    between atoms: C_19  and  C_21
REMARK    6  A    between atoms: C_21  and  C_22
REMARK    7  A    between atoms: C_25  and  N_30
REMARK    8  A    between atoms: C_26  and  O_31
REMARK    9  A    between atoms: C_27  and  O_33
REMARK                            x       y       z     vdW  Elec       q    Type
REMARK                         _______ _______ _______ _____ _____    ______ ____
ROOT
ATOM      1  N   UNL     1      35.124 -21.635 -19.033  0.00  0.00    +0.390 N 
ATOM      2  N   UNL     1      35.077 -19.191 -20.513  0.00  0.00    -0.312 N 
ATOM      3  C   UNL     1      36.250 -20.696 -18.954  0.00  0.00    -0.055 C 
ATOM      4  C   UNL     1      33.867 -20.894 -19.204  0.00  0.00    -0.055 C 
ATOM      5  C   UNL     1      36.355 -19.853 -20.227  0.00  0.00    +0.068 C 
ATOM      6  C   UNL     1      33.892 -20.058 -20.487  0.00  0.00    +0.068 C 
ATOM      7  H   UNL     1      35.260 -22.244 -19.840  0.00  0.00    -0.080 HD
ENDROOT
BRANCH   2   8
ATOM      8  C   UNL     1      35.049 -18.065 -21.343  0.00  0.00    +0.048 C 
ATOM      9  C   UNL     1      34.847 -16.775 -20.811  0.00  0.00    +0.018 C 
ATOM     10  C   UNL     1      35.223 -18.186 -22.736  0.00  0.00    +0.015 C 
ATOM     11  C   UNL     1      34.819 -15.653 -21.639  0.00  0.00    +0.073 C 
ATOM     12  C   UNL     1      35.195 -17.064 -23.565  0.00  0.00    +0.001 C 
ATOM     13  C   UNL     1      34.993 -15.797 -23.015  0.00  0.00    +0.004 C 
BRANCH  11  17
ATOM     14  F   UNL     1      34.966 -13.278 -21.885  0.00  0.00    -0.166 F 
ATOM     15  F   UNL     1      33.300 -14.047 -20.727  0.00  0.00    -0.166 F 
ATOM     16  F   UNL     1      35.311 -14.105 -19.903  0.00  0.00    -0.166 F 
ATOM     17  C   UNL     1      34.602 -14.300 -21.053  0.00  0.00    +0.419 C 
ENDBRANCH  11  17
ENDBRANCH   2   8
BRANCH   1  18
ATOM     18  C   UNL     1      35.067 -22.470 -17.835  0.00  0.00    -0.069 C 
BRANCH  18  19
ATOM     19  C   UNL     1      33.621 -22.762 -17.436  0.00  0.00    +0.046 C 
BRANCH  19  21
ATOM     20  O   UNL     1      34.448 -23.011 -15.184  0.00  0.00    -0.291 OA
ATOM     21  C   UNL     1      33.489 -23.070 -15.951  0.00  0.00    +0.171 C 
BRANCH  21  22
ATOM     22  C   UNL     1      32.150 -23.456 -15.415  0.00  0.00    +0.039 C 
ATOM     23  C   UNL     1      31.031 -23.154 -16.156  0.00  0.00    +0.030 C 
ATOM     24  C   UNL     1      32.088 -24.099 -14.200  0.00  0.00    +0.043 C 
ATOM     25  C   UNL     1      29.781 -23.514 -15.654  0.00  0.00    +0.179 C 
ATOM     26  C   UNL     1      30.837 -24.460 -13.698  0.00  0.00    +0.169 C 
ATOM     27  C   UNL     1      29.683 -24.168 -14.426  0.00  0.00    +0.190 C 
BRANCH  25  30
ATOM     28  O   UNL     1      27.908 -24.150 -16.839  0.00  0.00    -0.126 OA
ATOM     29  O   UNL     1      28.331 -22.006 -16.626  0.00  0.00    -0.126 OA
ATOM     30  N   UNL     1      28.615 -23.208 -16.410  0.00  0.00    +0.061 N 
ENDBRANCH  25  30
BRANCH  26  31
ATOM     31  O   UNL     1      30.757 -25.096 -12.496  0.00  0.00    -0.503 OA
ATOM     32  H   UNL     1      31.164 -24.722 -11.740  0.00  0.00    +0.292 HD
ENDBRANCH  26  31
BRANCH  27  33
ATOM     33  O   UNL     1      28.465 -24.524 -13.925  0.00  0.00    -0.502 OA
ATOM     34  H   UNL     1      28.351 -25.362 -13.521  0.00  0.00    +0.292 HD
ENDBRANCH  27  33
ENDBRANCH  21  22
ENDBRANCH  19  21
ENDBRANCH  18  19
ENDBRANCH   1  18
TORSDOF 9
ENDMDL
MODEL 7
REMARK VINA RESULT:     -11.1      7.168     10.980
REMARK  Name = 4369285
REMARK  9 active torsions:
REMARK  status: ('A' for Active; 'I' for Inactive)
REMARK    1  A    between atoms: N_1  and  C_18
REMARK    2  A    between atoms: N_2  and  C_8
REMARK    3  A    between atoms: C_11  and  C_17
REMARK    4  A    between atoms: C_18  and  C_19
REMARK    5  A    between atoms: C_19  and  C_21
REMARK    6  A    between atoms: C_21  and  C_22
REMARK    7  A    between atoms: C_25  and  N_30
REMARK    8  A    between atoms: C_26  and  O_31
REMARK    9  A    between atoms: C_27  and  O_33
REMARK                            x       y       z     vdW  Elec       q    Type
REMARK                         _______ _______ _______ _____ _____    ______ ____
ROOT
ATOM      1  N   UNL     1      35.522 -21.381 -18.361  0.00  0.00    +0.390 N 
ATOM      2  N   UNL     1      35.642 -22.782 -15.874  0.00  0.00    -0.312 N 
ATOM      3  C   UNL     1      36.809 -21.586 -17.684  0.00  0.00    -0.055 C 
ATOM      4  C   UNL     1      34.639 -22.527 -18.111  0.00  0.00    -0.055 C 
ATOM      5  C   UNL     1      36.619 -21.729 -16.172  0.00  0.00    +0.068 C 
ATOM      6  C   UNL     1      34.375 -22.702 -16.613  0.00  0.00    +0.068 C 
ATOM      7  H   UNL     1      35.084 -20.540 -17.987  0.00  0.00    -0.080 HD
ENDROOT
BRANCH   2   8
ATOM      8  C   UNL     1      35.627 -23.376 -14.607  0.00  0.00    +0.048 C 
ATOM      9  C   UNL     1      36.822 -23.791 -13.985  0.00  0.00    +0.018 C 
ATOM     10  C   UNL     1      34.416 -23.579 -13.915  0.00  0.00    +0.015 C 
ATOM     11  C   UNL     1      36.806 -24.383 -12.723  0.00  0.00    +0.073 C 
ATOM     12  C   UNL     1      34.400 -24.171 -12.652  0.00  0.00    +0.001 C 
ATOM     13  C   UNL     1      35.595 -24.574 -12.056  0.00  0.00    +0.004 C 
BRANCH  11  17
ATOM     14  F   UNL     1      39.152 -24.802 -12.937  0.00  0.00    -0.166 F 
ATOM     15  F   UNL     1      38.459 -24.035 -11.030  0.00  0.00    -0.166 F 
ATOM     16  F   UNL     1      38.021 -26.088 -11.596  0.00  0.00    -0.166 F 
ATOM     17  C   UNL     1      38.083 -24.815 -12.086  0.00  0.00    +0.419 C 
ENDBRANCH  11  17
ENDBRANCH   2   8
BRANCH   1  18
ATOM     18  C   UNL     1      35.722 -21.192 -19.797  0.00  0.00    -0.069 C 
BRANCH  18  19
ATOM     19  C   UNL     1      35.007 -19.934 -20.291  0.00  0.00    +0.046 C 
BRANCH  19  21
ATOM     20  O   UNL     1      37.173 -18.873 -20.317  0.00  0.00    -0.291 OA
ATOM     21  C   UNL     1      35.984 -18.815 -20.624  0.00  0.00    +0.171 C 
BRANCH  21  22
ATOM     22  C   UNL     1      35.475 -17.611 -21.346  0.00  0.00    +0.039 C 
ATOM     23  C   UNL     1      35.196 -17.717 -22.689  0.00  0.00    +0.030 C 
ATOM     24  C   UNL     1      35.307 -16.442 -20.640  0.00  0.00    +0.043 C 
ATOM     25  C   UNL     1      34.723 -16.592 -23.363  0.00  0.00    +0.179 C 
ATOM     26  C   UNL     1      34.833 -15.317 -21.314  0.00  0.00    +0.169 C 
ATOM     27  C   UNL     1      34.540 -15.392 -22.676  0.00  0.00    +0.190 C 
BRANCH  25  30
ATOM     28  O   UNL     1      33.645 -17.583 -25.144  0.00  0.00    -0.126 OA
ATOM     29  O   UNL     1      34.965 -15.875 -25.542  0.00  0.00    -0.126 OA
ATOM     30  N   UNL     1      34.430 -16.688 -24.752  0.00  0.00    +0.061 N 
ENDBRANCH  25  30
BRANCH  26  31
ATOM     31  O   UNL     1      34.660 -14.152 -20.631  0.00  0.00    -0.503 OA
ATOM     32  H   UNL     1      34.393 -13.377 -21.085  0.00  0.00    +0.292 HD
ENDBRANCH  26  31
BRANCH  27  33
ATOM     33  O   UNL     1      34.078 -14.285 -23.326  0.00  0.00    -0.502 OA
ATOM     34  H   UNL     1      33.471 -14.376 -24.034  0.00  0.00    +0.292 HD
ENDBRANCH  27  33
ENDBRANCH  21  22
ENDBRANCH  19  21
ENDBRANCH  18  19
ENDBRANCH   1  18
TORSDOF 9
ENDMDL
MODEL 8
REMARK VINA RESULT:     -11.0      5.703      8.174
REMARK  Name = 4369285
REMARK  9 active torsions:
REMARK  status: ('A' for Active; 'I' for Inactive)
REMARK    1  A    between atoms: N_1  and  C_18
REMARK    2  A    between atoms: N_2  and  C_8
REMARK    3  A    between atoms: C_11  and  C_17
REMARK    4  A    between atoms: C_18  and  C_19
REMARK    5  A    between atoms: C_19  and  C_21
REMARK    6  A    between atoms: C_21  and  C_22
REMARK    7  A    between atoms: C_25  and  N_30
REMARK    8  A    between atoms: C_26  and  O_31
REMARK    9  A    between atoms: C_27  and  O_33
REMARK                            x       y       z     vdW  Elec       q    Type
REMARK                         _______ _______ _______ _____ _____    ______ ____
ROOT
ATOM      1  N   UNL     1      34.905 -16.819 -22.568  0.00  0.00    +0.390 N 
ATOM      2  N   UNL     1      34.152 -14.064 -22.636  0.00  0.00    -0.312 N 
ATOM      3  C   UNL     1      34.948 -16.067 -23.828  0.00  0.00    -0.055 C 
ATOM      4  C   UNL     1      35.235 -15.931 -21.445  0.00  0.00    -0.055 C 
ATOM      5  C   UNL     1      33.945 -14.912 -23.815  0.00  0.00    +0.068 C 
ATOM      6  C   UNL     1      34.240 -14.771 -21.352  0.00  0.00    +0.068 C 
ATOM      7  H   UNL     1      33.961 -17.182 -22.434  0.00  0.00    -0.080 HD
ENDROOT
BRANCH   2   8
ATOM      8  C   UNL     1      33.668 -12.751 -22.631  0.00  0.00    +0.048 C 
ATOM      9  C   UNL     1      32.772 -12.310 -21.637  0.00  0.00    +0.018 C 
ATOM     10  C   UNL     1      34.063 -11.829 -23.622  0.00  0.00    +0.015 C 
ATOM     11  C   UNL     1      32.291 -11.001 -21.633  0.00  0.00    +0.073 C 
ATOM     12  C   UNL     1      33.582 -10.519 -23.617  0.00  0.00    +0.001 C 
ATOM     13  C   UNL     1      32.695 -10.106 -22.623  0.00  0.00    +0.004 C 
BRANCH  11  17
ATOM     14  F   UNL     1      30.057 -10.980 -20.774  0.00  0.00    -0.166 F 
ATOM     15  F   UNL     1      31.669 -11.006 -19.323  0.00  0.00    -0.166 F 
ATOM     16  F   UNL     1      31.268  -9.200 -20.466  0.00  0.00    -0.166 F 
ATOM     17  C   UNL     1      31.342 -10.559 -20.571  0.00  0.00    +0.419 C 
ENDBRANCH  11  17
ENDBRANCH   2   8
BRANCH   1  18
ATOM     18  C   UNL     1      35.828 -17.951 -22.614  0.00  0.00    -0.069 C 
BRANCH  18  19
ATOM     19  C   UNL     1      35.407 -19.045 -21.632  0.00  0.00    +0.046 C 
BRANCH  19  21
ATOM     20  O   UNL     1      37.597 -18.806 -20.652  0.00  0.00    -0.291 OA
ATOM     21  C   UNL     1      36.491 -19.340 -20.605  0.00  0.00    +0.171 C 
BRANCH  21  22
ATOM     22  C   UNL     1      36.195 -20.308 -19.508  0.00  0.00    +0.039 C 
ATOM     23  C   UNL     1      35.072 -21.096 -19.610  0.00  0.00    +0.030 C 
ATOM     24  C   UNL     1      37.057 -20.374 -18.438  0.00  0.00    +0.043 C 
ATOM     25  C   UNL     1      34.796 -22.000 -18.584  0.00  0.00    +0.179 C 
ATOM     26  C   UNL     1      36.782 -21.279 -17.412  0.00  0.00    +0.169 C 
ATOM     27  C   UNL     1      35.651 -22.092 -17.486  0.00  0.00    +0.190 C 
BRANCH  25  30
ATOM     28  O   UNL     1      32.518 -22.320 -18.422  0.00  0.00    -0.126 OA
ATOM     29  O   UNL     1      33.773 -24.023 -19.009  0.00  0.00    -0.126 OA
ATOM     30  N   UNL     1      33.638 -22.822 -18.676  0.00  0.00    +0.061 N 
ENDBRANCH  25  30
BRANCH  26  31
ATOM     31  O   UNL     1      37.625 -21.357 -16.345  0.00  0.00    -0.503 OA
ATOM     32  H   UNL     1      37.385 -20.964 -15.528  0.00  0.00    +0.292 HD
ENDBRANCH  26  31
BRANCH  27  33
ATOM     33  O   UNL     1      35.390 -22.973 -16.476  0.00  0.00    -0.502 OA
ATOM     34  H   UNL     1      35.956 -23.012 -15.730  0.00  0.00    +0.292 HD
ENDBRANCH  27  33
ENDBRANCH  21  22
ENDBRANCH  19  21
ENDBRANCH  18  19
ENDBRANCH   1  18
TORSDOF 9
ENDMDL
MODEL 9
REMARK VINA RESULT:     -11.0      5.317      7.504
REMARK  Name = 4369285
REMARK  9 active torsions:
REMARK  status: ('A' for Active; 'I' for Inactive)
REMARK    1  A    between atoms: N_1  and  C_18
REMARK    2  A    between atoms: N_2  and  C_8
REMARK    3  A    between atoms: C_11  and  C_17
REMARK    4  A    between atoms: C_18  and  C_19
REMARK    5  A    between atoms: C_19  and  C_21
REMARK    6  A    between atoms: C_21  and  C_22
REMARK    7  A    between atoms: C_25  and  N_30
REMARK    8  A    between atoms: C_26  and  O_31
REMARK    9  A    between atoms: C_27  and  O_33
REMARK                            x       y       z     vdW  Elec       q    Type
REMARK                         _______ _______ _______ _____ _____    ______ ____
ROOT
ATOM      1  N   UNL     1      35.853 -16.827 -22.213  0.00  0.00    +0.390 N 
ATOM      2  N   UNL     1      34.131 -14.579 -21.832  0.00  0.00    -0.312 N 
ATOM      3  C   UNL     1      35.211 -16.594 -20.913  0.00  0.00    -0.055 C 
ATOM      4  C   UNL     1      34.968 -16.378 -23.294  0.00  0.00    -0.055 C 
ATOM      5  C   UNL     1      34.910 -15.108 -20.706  0.00  0.00    +0.068 C 
ATOM      6  C   UNL     1      34.658 -14.884 -23.168  0.00  0.00    +0.068 C 
ATOM      7  H   UNL     1      36.720 -16.290 -22.252  0.00  0.00    -0.080 HD
ENDROOT
BRANCH   2   8
ATOM      8  C   UNL     1      33.388 -13.405 -21.671  0.00  0.00    +0.048 C 
ATOM      9  C   UNL     1      33.599 -12.291 -22.508  0.00  0.00    +0.018 C 
ATOM     10  C   UNL     1      32.405 -13.301 -20.666  0.00  0.00    +0.015 C 
ATOM     11  C   UNL     1      32.857 -11.121 -22.347  0.00  0.00    +0.073 C 
ATOM     12  C   UNL     1      31.663 -12.130 -20.505  0.00  0.00    +0.001 C 
ATOM     13  C   UNL     1      31.890 -11.040 -21.345  0.00  0.00    +0.004 C 
BRANCH  11  17
ATOM     14  F   UNL     1      33.388 -10.306 -24.533  0.00  0.00    -0.166 F 
ATOM     15  F   UNL     1      32.036  -9.104 -23.336  0.00  0.00    -0.166 F 
ATOM     16  F   UNL     1      34.149  -9.185 -22.832  0.00  0.00    -0.166 F 
ATOM     17  C   UNL     1      33.100  -9.955 -23.244  0.00  0.00    +0.419 C 
ENDBRANCH  11  17
ENDBRANCH   2   8
BRANCH   1  18
ATOM     18  C   UNL     1      36.185 -18.241 -22.375  0.00  0.00    -0.069 C 
BRANCH  18  19
ATOM     19  C   UNL     1      35.415 -19.105 -21.375  0.00  0.00    +0.046 C 
BRANCH  19  21
ATOM     20  O   UNL     1      37.515 -19.388 -20.224  0.00  0.00    -0.291 OA
ATOM     21  C   UNL     1      36.324 -19.683 -20.300  0.00  0.00    +0.171 C 
BRANCH  21  22
ATOM     22  C   UNL     1      35.745 -20.639 -19.310  0.00  0.00    +0.039 C 
ATOM     23  C   UNL     1      36.523 -21.039 -18.248  0.00  0.00    +0.030 C 
ATOM     24  C   UNL     1      34.457 -21.083 -19.499  0.00  0.00    +0.043 C 
ATOM     25  C   UNL     1      35.983 -21.934 -17.325  0.00  0.00    +0.179 C 
ATOM     26  C   UNL     1      33.916 -21.977 -18.574  0.00  0.00    +0.169 C 
ATOM     27  C   UNL     1      34.679 -22.401 -17.487  0.00  0.00    +0.190 C 
BRANCH  25  30
ATOM     28  O   UNL     1      36.561 -23.483 -15.718  0.00  0.00    -0.126 OA
ATOM     29  O   UNL     1      37.665 -21.587 -15.785  0.00  0.00    -0.126 OA
ATOM     30  N   UNL     1      36.776 -22.355 -16.221  0.00  0.00    +0.061 N 
ENDBRANCH  25  30
BRANCH  26  31
ATOM     31  O   UNL     1      32.641 -22.426 -18.746  0.00  0.00    -0.503 OA
ATOM     32  H   UNL     1      32.431 -22.970 -19.480  0.00  0.00    +0.292 HD
ENDBRANCH  26  31
BRANCH  27  33
ATOM     33  O   UNL     1      34.140 -23.277 -16.589  0.00  0.00    -0.502 OA
ATOM     34  H   UNL     1      33.237 -23.204 -16.348  0.00  0.00    +0.292 HD
ENDBRANCH  27  33
ENDBRANCH  21  22
ENDBRANCH  19  21
ENDBRANCH  18  19
ENDBRANCH   1  18
TORSDOF 9
ENDMDL
