MODEL 1
REMARK VINA RESULT:     -11.3      0.000      0.000
REMARK  Name = 447371
REMARK  8 active torsions:
REMARK  status: ('A' for Active; 'I' for Inactive)
REMARK    1  A    between atoms: N_3  and  C_14
REMARK    2  A    between atoms: N_4  and  C_18
REMARK    3  A    between atoms: C_11  and  C_26
REMARK    4  A    between atoms: C_14  and  C_15
REMARK    5  A    between atoms: C_15  and  C_16
REMARK    6  A    between atoms: C_18  and  C_20
REMARK    7  A    between atoms: C_26  and  C_27
REMARK    8  A    between atoms: C_32  and  N_34
REMARK                            x       y       z     vdW  Elec       q    Type
REMARK                         _______ _______ _______ _____ _____    ______ ____
ROOT
ATOM      1  O   UNL     1      34.924 -16.150 -24.541  0.00  0.00    -0.246 OA
ATOM      2  O   UNL     1      35.242 -15.931 -19.861  0.00  0.00    -0.265 OA
ATOM      3  N   UNL     1      33.665 -14.542 -23.427  0.00  0.00    -0.269 N 
ATOM      4  N   UNL     1      35.100 -16.063 -22.207  0.00  0.00    -0.243 N 
ATOM      5  N   UNL     1      33.290 -13.681 -20.052  0.00  0.00    -0.313 N 
ATOM      6  N   UNL     1      32.457 -12.952 -21.987  0.00  0.00    -0.304 N 
ATOM      7  C   UNL     1      33.324 -13.990 -22.199  0.00  0.00    +0.132 A 
ATOM      8  C   UNL     1      33.851 -14.457 -21.026  0.00  0.00    +0.133 A 
ATOM      9  C   UNL     1      34.583 -15.619 -23.477  0.00  0.00    +0.335 A 
ATOM     10  C   UNL     1      34.784 -15.533 -20.928  0.00  0.00    +0.280 A 
ATOM     11  C   UNL     1      32.459 -12.790 -20.680  0.00  0.00    +0.149 C 
ATOM     12  H   UNL     1      33.453 -13.748 -19.083  0.00  0.00    +0.148 HD
ATOM     13  H   UNL     1      31.949 -12.442 -22.659  0.00  0.00    +0.150 HD
ENDROOT
BRANCH   3  14
ATOM     14  C   UNL     1      33.077 -14.010 -24.650  0.00  0.00    +0.112 C 
BRANCH  14  15
ATOM     15  C   UNL     1      33.968 -12.968 -25.319  0.00  0.00    +0.025 C 
BRANCH  15  16
ATOM     16  C   UNL     1      33.475 -11.538 -25.087  0.00  0.00    +0.002 C 
ATOM     17  C   UNL     1      34.471 -10.735 -24.265  0.00  0.00    +0.000 C 
ENDBRANCH  15  16
ENDBRANCH  14  15
ENDBRANCH   3  14
BRANCH   4  18
ATOM     18  C   UNL     1      36.049 -17.171 -22.238  0.00  0.00    +0.143 C 
BRANCH  18  20
ATOM     19  F   UNL     1      37.729 -18.740 -20.592  0.00  0.00    -0.204 F 
ATOM     20  C   UNL     1      35.553 -18.357 -21.461  0.00  0.00    +0.028 C 
ATOM     21  C   UNL     1      36.436 -19.083 -20.670  0.00  0.00    +0.138 C 
ATOM     22  C   UNL     1      34.213 -18.716 -21.542  0.00  0.00    -0.000 C 
ATOM     23  C   UNL     1      35.972 -20.184 -19.950  0.00  0.00    +0.029 C 
ATOM     24  C   UNL     1      33.749 -19.816 -20.821  0.00  0.00    -0.000 C 
ATOM     25  C   UNL     1      34.628 -20.551 -20.025  0.00  0.00    +0.002 C 
ENDBRANCH  18  20
ENDBRANCH   4  18
BRANCH  11  26
ATOM     26  C   UNL     1      31.688 -11.792 -19.915  0.00  0.00    +0.067 C 
BRANCH  26  27
ATOM     27  C   UNL     1      31.883 -10.359 -20.393  0.00  0.00    -0.019 C 
ATOM     28  C   UNL     1      31.757 -10.083 -21.739  0.00  0.00    -0.003 C 
ATOM     29  C   UNL     1      32.180  -9.382 -19.465  0.00  0.00    -0.003 C 
ATOM     30  C   UNL     1      31.936  -8.771 -22.175  0.00  0.00    +0.014 C 
ATOM     31  C   UNL     1      32.359  -8.070 -19.903  0.00  0.00    +0.014 C 
ATOM     32  C   UNL     1      32.236  -7.764 -21.259  0.00  0.00    +0.050 C 
BRANCH  32  34
ATOM     33  O   UNL     1      30.291  -5.470 -21.407  0.00  0.00    -0.275 OA
ATOM     34  N   UNL     1      32.415  -6.451 -21.696  0.00  0.00    -0.284 N 
ATOM     35  C   UNL     1      31.469  -5.419 -21.746  0.00  0.00    +0.227 C 
ATOM     36  C   UNL     1      32.063  -4.143 -22.285  0.00  0.00    +0.095 C 
ATOM     37  H   UNL     1      33.320  -6.222 -22.010  0.00  0.00    +0.155 HD
ENDBRANCH  32  34
ENDBRANCH  26  27
ENDBRANCH  11  26
TORSDOF 8
ENDMDL
MODEL 2
REMARK VINA RESULT:     -10.6      3.082      9.781
REMARK  Name = 447371
REMARK  8 active torsions:
REMARK  status: ('A' for Active; 'I' for Inactive)
REMARK    1  A    between atoms: N_3  and  C_14
REMARK    2  A    between atoms: N_4  and  C_18
REMARK    3  A    between atoms: C_11  and  C_26
REMARK    4  A    between atoms: C_14  and  C_15
REMARK    5  A    between atoms: C_15  and  C_16
REMARK    6  A    between atoms: C_18  and  C_20
REMARK    7  A    between atoms: C_26  and  C_27
REMARK    8  A    between atoms: C_32  and  N_34
REMARK                            x       y       z     vdW  Elec       q    Type
REMARK                         _______ _______ _______ _____ _____    ______ ____
ROOT
ATOM      1  O   UNL     1      32.267  -9.473 -21.112  0.00  0.00    -0.246 OA
ATOM      2  O   UNL     1      35.077  -9.909 -24.849  0.00  0.00    -0.265 OA
ATOM      3  N   UNL     1      32.453 -11.566 -22.110  0.00  0.00    -0.269 N 
ATOM      4  N   UNL     1      33.674  -9.662 -22.975  0.00  0.00    -0.243 N 
ATOM      5  N   UNL     1      34.260 -12.779 -24.855  0.00  0.00    -0.313 N 
ATOM      6  N   UNL     1      32.846 -13.647 -23.366  0.00  0.00    -0.304 N 
ATOM      7  C   UNL     1      33.037 -12.312 -23.126  0.00  0.00    +0.132 A 
ATOM      8  C   UNL     1      33.902 -11.754 -24.026  0.00  0.00    +0.133 A 
ATOM      9  C   UNL     1      32.756 -10.187 -21.996  0.00  0.00    +0.335 A 
ATOM     10  C   UNL     1      34.296 -10.383 -24.029  0.00  0.00    +0.280 A 
ATOM     11  C   UNL     1      33.599 -13.897 -24.417  0.00  0.00    +0.149 C 
ATOM     12  H   UNL     1      34.877 -12.726 -25.621  0.00  0.00    +0.148 HD
ATOM     13  H   UNL     1      32.275 -14.275 -22.867  0.00  0.00    +0.150 HD
ENDROOT
BRANCH   3  14
ATOM     14  C   UNL     1      31.536 -12.205 -21.174  0.00  0.00    +0.112 C 
BRANCH  14  15
ATOM     15  C   UNL     1      32.229 -12.645 -19.889  0.00  0.00    +0.025 C 
BRANCH  15  16
ATOM     16  C   UNL     1      32.580 -14.134 -19.891  0.00  0.00    +0.002 C 
ATOM     17  C   UNL     1      34.058 -14.355 -20.172  0.00  0.00    +0.000 C 
ENDBRANCH  15  16
ENDBRANCH  14  15
ENDBRANCH   3  14
BRANCH   4  18
ATOM     18  C   UNL     1      34.000  -8.243 -22.872  0.00  0.00    +0.143 C 
BRANCH  18  20
ATOM     19  F   UNL     1      33.567  -6.597 -20.615  0.00  0.00    -0.204 F 
ATOM     20  C   UNL     1      32.772  -7.396 -22.705  0.00  0.00    +0.028 C 
ATOM     21  C   UNL     1      32.624  -6.609 -21.569  0.00  0.00    +0.138 C 
ATOM     22  C   UNL     1      31.792  -7.408 -23.691  0.00  0.00    -0.000 C 
ATOM     23  C   UNL     1      31.481  -5.823 -21.416  0.00  0.00    +0.029 C 
ATOM     24  C   UNL     1      30.650  -6.622 -23.539  0.00  0.00    -0.000 C 
ATOM     25  C   UNL     1      30.494  -5.829 -22.402  0.00  0.00    +0.002 C 
ENDBRANCH  18  20
ENDBRANCH   4  18
BRANCH  11  26
ATOM     26  C   UNL     1      33.762 -15.198 -25.094  0.00  0.00    +0.067 C 
BRANCH  26  27
ATOM     27  C   UNL     1      34.241 -16.317 -24.180  0.00  0.00    -0.019 C 
ATOM     28  C   UNL     1      33.798 -17.602 -24.412  0.00  0.00    -0.003 C 
ATOM     29  C   UNL     1      35.104 -16.010 -23.148  0.00  0.00    -0.003 C 
ATOM     30  C   UNL     1      34.238 -18.627 -23.574  0.00  0.00    +0.014 C 
ATOM     31  C   UNL     1      35.543 -17.035 -22.311  0.00  0.00    +0.014 C 
ATOM     32  C   UNL     1      35.110 -18.344 -22.524  0.00  0.00    +0.050 C 
BRANCH  32  34
ATOM     33  O   UNL     1      33.746 -19.693 -20.202  0.00  0.00    -0.275 OA
ATOM     34  N   UNL     1      35.550 -19.369 -21.685  0.00  0.00    -0.284 N 
ATOM     35  C   UNL     1      34.870 -19.961 -20.613  0.00  0.00    +0.227 C 
ATOM     36  C   UNL     1      35.694 -21.041 -19.958  0.00  0.00    +0.095 C 
ATOM     37  H   UNL     1      36.450 -19.720 -21.871  0.00  0.00    +0.155 HD
ENDBRANCH  32  34
ENDBRANCH  26  27
ENDBRANCH  11  26
TORSDOF 8
ENDMDL
MODEL 3
REMARK VINA RESULT:     -10.4      3.258      9.927
REMARK  Name = 447371
REMARK  8 active torsions:
REMARK  status: ('A' for Active; 'I' for Inactive)
REMARK    1  A    between atoms: N_3  and  C_14
REMARK    2  A    between atoms: N_4  and  C_18
REMARK    3  A    between atoms: C_11  and  C_26
REMARK    4  A    between atoms: C_14  and  C_15
REMARK    5  A    between atoms: C_15  and  C_16
REMARK    6  A    between atoms: C_18  and  C_20
REMARK    7  A    between atoms: C_26  and  C_27
REMARK    8  A    between atoms: C_32  and  N_34
REMARK                            x       y       z     vdW  Elec       q    Type
REMARK                         _______ _______ _______ _____ _____    ______ ____
ROOT
ATOM      1  O   UNL     1      32.091  -8.670 -20.653  0.00  0.00    -0.246 OA
ATOM      2  O   UNL     1      34.924  -8.833 -24.394  0.00  0.00    -0.265 OA
ATOM      3  N   UNL     1      32.247 -10.672 -21.827  0.00  0.00    -0.269 N 
ATOM      4  N   UNL     1      33.510  -8.724 -22.515  0.00  0.00    -0.243 N 
ATOM      5  N   UNL     1      34.056 -11.677 -24.654  0.00  0.00    -0.313 N 
ATOM      6  N   UNL     1      32.613 -12.643 -23.257  0.00  0.00    -0.304 N 
ATOM      7  C   UNL     1      32.826 -11.338 -22.900  0.00  0.00    +0.132 A 
ATOM      8  C   UNL     1      33.710 -10.721 -23.742  0.00  0.00    +0.133 A 
ATOM      9  C   UNL     1      32.574  -9.314 -21.592  0.00  0.00    +0.335 A 
ATOM     10  C   UNL     1      34.128  -9.362 -23.623  0.00  0.00    +0.280 A 
ATOM     11  C   UNL     1      33.370 -12.816 -24.320  0.00  0.00    +0.149 C 
ATOM     12  H   UNL     1      34.680 -11.569 -25.408  0.00  0.00    +0.148 HD
ATOM     13  H   UNL     1      32.027 -13.301 -22.818  0.00  0.00    +0.150 HD
ENDROOT
BRANCH   3  14
ATOM     14  C   UNL     1      31.311 -11.373 -20.957  0.00  0.00    +0.112 C 
BRANCH  14  15
ATOM     15  C   UNL     1      32.012 -12.098 -19.813  0.00  0.00    +0.025 C 
BRANCH  15  16
ATOM     16  C   UNL     1      32.076 -13.611 -20.029  0.00  0.00    +0.002 C 
ATOM     17  C   UNL     1      33.514 -14.102 -20.090  0.00  0.00    +0.000 C 
ENDBRANCH  15  16
ENDBRANCH  14  15
ENDBRANCH   3  14
BRANCH   4  18
ATOM     18  C   UNL     1      33.861  -7.325 -22.288  0.00  0.00    +0.143 C 
BRANCH  18  20
ATOM     19  F   UNL     1      31.102  -6.866 -22.698  0.00  0.00    -0.204 F 
ATOM     20  C   UNL     1      33.336  -6.431 -23.374  0.00  0.00    +0.028 C 
ATOM     21  C   UNL     1      31.966  -6.250 -23.518  0.00  0.00    +0.138 C 
ATOM     22  C   UNL     1      34.229  -5.793 -24.226  0.00  0.00    -0.000 C 
ATOM     23  C   UNL     1      31.481  -5.419 -24.528  0.00  0.00    +0.029 C 
ATOM     24  C   UNL     1      33.745  -4.961 -25.236  0.00  0.00    -0.000 C 
ATOM     25  C   UNL     1      32.371  -4.774 -25.387  0.00  0.00    +0.002 C 
ENDBRANCH  18  20
ENDBRANCH   4  18
BRANCH  11  26
ATOM     26  C   UNL     1      33.515 -14.056 -25.106  0.00  0.00    +0.067 C 
BRANCH  26  27
ATOM     27  C   UNL     1      34.093 -15.224 -24.320  0.00  0.00    -0.019 C 
ATOM     28  C   UNL     1      33.823 -16.509 -24.742  0.00  0.00    -0.003 C 
ATOM     29  C   UNL     1      34.868 -14.962 -23.209  0.00  0.00    -0.003 C 
ATOM     30  C   UNL     1      34.353 -17.579 -24.021  0.00  0.00    +0.014 C 
ATOM     31  C   UNL     1      35.397 -16.032 -22.488  0.00  0.00    +0.014 C 
ATOM     32  C   UNL     1      35.139 -17.341 -22.895  0.00  0.00    +0.050 C 
BRANCH  32  34
ATOM     33  O   UNL     1      35.907 -17.554 -19.990  0.00  0.00    -0.275 OA
ATOM     34  N   UNL     1      35.669 -18.412 -22.173  0.00  0.00    -0.284 N 
ATOM     35  C   UNL     1      36.011 -18.456 -20.816  0.00  0.00    +0.227 C 
ATOM     36  C   UNL     1      36.554 -19.806 -20.420  0.00  0.00    +0.095 C 
ATOM     37  H   UNL     1      35.822 -19.240 -22.683  0.00  0.00    +0.155 HD
ENDBRANCH  32  34
ENDBRANCH  26  27
ENDBRANCH  11  26
TORSDOF 8
ENDMDL
MODEL 4
REMARK VINA RESULT:     -10.3      1.793      3.635
REMARK  Name = 447371
REMARK  8 active torsions:
REMARK  status: ('A' for Active; 'I' for Inactive)
REMARK    1  A    between atoms: N_3  and  C_14
REMARK    2  A    between atoms: N_4  and  C_18
REMARK    3  A    between atoms: C_11  and  C_26
REMARK    4  A    between atoms: C_14  and  C_15
REMARK    5  A    between atoms: C_15  and  C_16
REMARK    6  A    between atoms: C_18  and  C_20
REMARK    7  A    between atoms: C_26  and  C_27
REMARK    8  A    between atoms: C_32  and  N_34
REMARK                            x       y       z     vdW  Elec       q    Type
REMARK                         _______ _______ _______ _____ _____    ______ ____
ROOT
ATOM      1  O   UNL     1      35.712 -17.504 -19.889  0.00  0.00    -0.246 OA
ATOM      2  O   UNL     1      34.850 -18.414 -24.414  0.00  0.00    -0.265 OA
ATOM      3  N   UNL     1      34.993 -15.756 -21.245  0.00  0.00    -0.269 N 
ATOM      4  N   UNL     1      35.290 -17.985 -22.142  0.00  0.00    -0.243 N 
ATOM      5  N   UNL     1      34.140 -15.524 -24.635  0.00  0.00    -0.313 N 
ATOM      6  N   UNL     1      34.225 -14.113 -22.911  0.00  0.00    -0.304 N 
ATOM      7  C   UNL     1      34.604 -15.370 -22.522  0.00  0.00    +0.132 A 
ATOM      8  C   UNL     1      34.560 -16.257 -23.562  0.00  0.00    +0.133 A 
ATOM      9  C   UNL     1      35.357 -17.103 -21.004  0.00  0.00    +0.335 A 
ATOM     10  C   UNL     1      34.899 -17.640 -23.463  0.00  0.00    +0.280 A 
ATOM     11  C   UNL     1      33.951 -14.240 -24.193  0.00  0.00    +0.149 C 
ATOM     12  H   UNL     1      33.999 -15.854 -25.552  0.00  0.00    +0.148 HD
ATOM     13  H   UNL     1      34.169 -13.301 -22.358  0.00  0.00    +0.150 HD
ENDROOT
BRANCH   3  14
ATOM     14  C   UNL     1      35.023 -14.774 -20.168  0.00  0.00    +0.112 C 
BRANCH  14  15
ATOM     15  C   UNL     1      34.112 -13.582 -20.442  0.00  0.00    +0.025 C 
BRANCH  15  16
ATOM     16  C   UNL     1      32.709 -13.770 -19.861  0.00  0.00    +0.002 C 
ATOM     17  C   UNL     1      31.803 -12.599 -20.210  0.00  0.00    +0.000 C 
ENDBRANCH  15  16
ENDBRANCH  14  15
ENDBRANCH   3  14
BRANCH   4  18
ATOM     18  C   UNL     1      35.660 -19.378 -21.913  0.00  0.00    +0.143 C 
BRANCH  18  20
ATOM     19  F   UNL     1      36.704 -21.013 -19.856  0.00  0.00    -0.204 F 
ATOM     20  C   UNL     1      34.797 -20.024 -20.868  0.00  0.00    +0.028 C 
ATOM     21  C   UNL     1      35.378 -20.815 -19.884  0.00  0.00    +0.138 C 
ATOM     22  C   UNL     1      33.422 -19.823 -20.896  0.00  0.00    -0.000 C 
ATOM     23  C   UNL     1      34.573 -21.414 -18.915  0.00  0.00    +0.029 C 
ATOM     24  C   UNL     1      32.617 -20.420 -19.926  0.00  0.00    -0.000 C 
ATOM     25  C   UNL     1      33.192 -21.216 -18.935  0.00  0.00    +0.002 C 
ENDBRANCH  18  20
ENDBRANCH   4  18
BRANCH  11  26
ATOM     26  C   UNL     1      33.491 -13.176 -25.105  0.00  0.00    +0.067 C 
BRANCH  26  27
ATOM     27  C   UNL     1      33.581 -11.774 -24.517  0.00  0.00    -0.019 C 
ATOM     28  C   UNL     1      32.733 -11.431 -23.484  0.00  0.00    -0.003 C 
ATOM     29  C   UNL     1      34.505 -10.892 -25.036  0.00  0.00    -0.003 C 
ATOM     30  C   UNL     1      32.816 -10.147 -22.945  0.00  0.00    +0.014 C 
ATOM     31  C   UNL     1      34.587  -9.608 -24.497  0.00  0.00    +0.014 C 
ATOM     32  C   UNL     1      33.742  -9.235 -23.452  0.00  0.00    +0.050 C 
BRANCH  32  34
ATOM     33  O   UNL     1      31.769  -6.960 -23.511  0.00  0.00    -0.275 OA
ATOM     34  N   UNL     1      33.824  -7.950 -22.913  0.00  0.00    -0.284 N 
ATOM     35  C   UNL     1      32.871  -6.925 -22.972  0.00  0.00    +0.227 C 
ATOM     36  C   UNL     1      33.344  -5.682 -22.262  0.00  0.00    +0.095 C 
ATOM     37  H   UNL     1      34.656  -7.738 -22.432  0.00  0.00    +0.155 HD
ENDBRANCH  32  34
ENDBRANCH  26  27
ENDBRANCH  11  26
TORSDOF 8
ENDMDL
MODEL 5
REMARK VINA RESULT:     -10.2      5.576     11.946
REMARK  Name = 447371
REMARK  8 active torsions:
REMARK  status: ('A' for Active; 'I' for Inactive)
REMARK    1  A    between atoms: N_3  and  C_14
REMARK    2  A    between atoms: N_4  and  C_18
REMARK    3  A    between atoms: C_11  and  C_26
REMARK    4  A    between atoms: C_14  and  C_15
REMARK    5  A    between atoms: C_15  and  C_16
REMARK    6  A    between atoms: C_18  and  C_20
REMARK    7  A    between atoms: C_26  and  C_27
REMARK    8  A    between atoms: C_32  and  N_34
REMARK                            x       y       z     vdW  Elec       q    Type
REMARK                         _______ _______ _______ _____ _____    ______ ____
ROOT
ATOM      1  O   UNL     1      37.616 -19.049 -20.556  0.00  0.00    -0.246 OA
ATOM      2  O   UNL     1      33.107 -19.398 -21.818  0.00  0.00    -0.265 OA
ATOM      3  N   UNL     1      36.215 -20.386 -19.269  0.00  0.00    -0.269 N 
ATOM      4  N   UNL     1      35.372 -19.205 -21.207  0.00  0.00    -0.243 N 
ATOM      5  N   UNL     1      32.814 -21.205 -19.460  0.00  0.00    -0.313 N 
ATOM      6  N   UNL     1      34.505 -21.722 -18.104  0.00  0.00    -0.304 N 
ATOM      7  C   UNL     1      34.926 -20.876 -19.096  0.00  0.00    +0.132 A 
ATOM      8  C   UNL     1      33.906 -20.543 -19.944  0.00  0.00    +0.133 A 
ATOM      9  C   UNL     1      36.489 -19.516 -20.352  0.00  0.00    +0.335 A 
ATOM     10  C   UNL     1      34.040 -19.680 -21.072  0.00  0.00    +0.280 A 
ATOM     11  C   UNL     1      33.225 -21.901 -18.353  0.00  0.00    +0.149 C 
ATOM     12  H   UNL     1      31.904 -21.187 -19.837  0.00  0.00    +0.148 HD
ATOM     13  H   UNL     1      35.039 -22.108 -17.372  0.00  0.00    +0.150 HD
ENDROOT
BRANCH   3  14
ATOM     14  C   UNL     1      37.269 -20.770 -18.338  0.00  0.00    +0.112 C 
BRANCH  14  15
ATOM     15  C   UNL     1      36.830 -21.878 -17.387  0.00  0.00    +0.025 C 
BRANCH  15  16
ATOM     16  C   UNL     1      37.299 -21.639 -15.951  0.00  0.00    +0.002 C 
ATOM     17  C   UNL     1      37.868 -22.908 -15.334  0.00  0.00    +0.000 C 
ENDBRANCH  15  16
ENDBRANCH  14  15
ENDBRANCH   3  14
BRANCH   4  18
ATOM     18  C   UNL     1      35.636 -18.310 -22.330  0.00  0.00    +0.143 C 
BRANCH  18  20
ATOM     19  F   UNL     1      35.201 -16.355 -24.324  0.00  0.00    -0.204 F 
ATOM     20  C   UNL     1      35.271 -16.888 -22.012  0.00  0.00    +0.028 C 
ATOM     21  C   UNL     1      35.071 -15.979 -23.044  0.00  0.00    +0.138 C 
ATOM     22  C   UNL     1      35.138 -16.496 -20.685  0.00  0.00    -0.000 C 
ATOM     23  C   UNL     1      34.734 -14.659 -22.745  0.00  0.00    +0.029 C 
ATOM     24  C   UNL     1      34.800 -15.176 -20.386  0.00  0.00    -0.000 C 
ATOM     25  C   UNL     1      34.597 -14.257 -21.416  0.00  0.00    +0.002 C 
ENDBRANCH  18  20
ENDBRANCH   4  18
BRANCH  11  26
ATOM     26  C   UNL     1      32.285 -22.734 -17.580  0.00  0.00    +0.067 C 
BRANCH  26  27
ATOM     27  C   UNL     1      32.819 -23.176 -16.224  0.00  0.00    -0.019 C 
ATOM     28  C   UNL     1      32.018 -23.021 -15.111  0.00  0.00    -0.003 C 
ATOM     29  C   UNL     1      34.086 -23.716 -16.151  0.00  0.00    -0.003 C 
ATOM     30  C   UNL     1      32.508 -23.426 -13.870  0.00  0.00    +0.014 C 
ATOM     31  C   UNL     1      34.575 -24.120 -14.909  0.00  0.00    +0.014 C 
ATOM     32  C   UNL     1      33.786 -23.975 -13.768  0.00  0.00    +0.050 C 
BRANCH  32  34
ATOM     33  O   UNL     1      36.175 -23.020 -12.202  0.00  0.00    -0.275 OA
ATOM     34  N   UNL     1      34.276 -24.379 -12.525  0.00  0.00    -0.284 N 
ATOM     35  C   UNL     1      35.399 -23.899 -11.841  0.00  0.00    +0.227 C 
ATOM     36  C   UNL     1      35.590 -24.601 -10.519  0.00  0.00    +0.095 C 
ATOM     37  H   UNL     1      33.768 -25.092 -12.075  0.00  0.00    +0.155 HD
ENDBRANCH  32  34
ENDBRANCH  26  27
ENDBRANCH  11  26
TORSDOF 8
ENDMDL
MODEL 6
REMARK VINA RESULT:     -10.1      6.539     11.119
REMARK  Name = 447371
REMARK  8 active torsions:
REMARK  status: ('A' for Active; 'I' for Inactive)
REMARK    1  A    between atoms: N_3  and  C_14
REMARK    2  A    between atoms: N_4  and  C_18
REMARK    3  A    between atoms: C_11  and  C_26
REMARK    4  A    between atoms: C_14  and  C_15
REMARK    5  A    between atoms: C_15  and  C_16
REMARK    6  A    between atoms: C_18  and  C_20
REMARK    7  A    between atoms: C_26  and  C_27
REMARK    8  A    between atoms: C_32  and  N_34
REMARK                            x       y       z     vdW  Elec       q    Type
REMARK                         _______ _______ _______ _____ _____    ______ ____
ROOT
ATOM      1  O   UNL     1      32.763 -23.772 -13.784  0.00  0.00    -0.246 OA
ATOM      2  O   UNL     1      37.078 -22.166 -14.703  0.00  0.00    -0.265 OA
ATOM      3  N   UNL     1      33.289 -23.231 -15.984  0.00  0.00    -0.269 N 
ATOM      4  N   UNL     1      34.922 -22.972 -14.214  0.00  0.00    -0.243 N 
ATOM      5  N   UNL     1      36.174 -22.000 -17.543  0.00  0.00    -0.313 N 
ATOM      6  N   UNL     1      34.127 -22.582 -18.206  0.00  0.00    -0.304 N 
ATOM      7  C   UNL     1      34.263 -22.758 -16.855  0.00  0.00    +0.132 A 
ATOM      8  C   UNL     1      35.512 -22.409 -16.421  0.00  0.00    +0.133 A 
ATOM      9  C   UNL     1      33.589 -23.357 -14.605  0.00  0.00    +0.335 A 
ATOM     10  C   UNL     1      35.949 -22.485 -15.065  0.00  0.00    +0.280 A 
ATOM     11  C   UNL     1      35.299 -22.122 -18.591  0.00  0.00    +0.149 C 
ATOM     12  H   UNL     1      37.104 -21.679 -17.590  0.00  0.00    +0.148 HD
ATOM     13  H   UNL     1      33.334 -22.758 -18.762  0.00  0.00    +0.150 HD
ENDROOT
BRANCH   3  14
ATOM     14  C   UNL     1      31.972 -23.591 -16.494  0.00  0.00    +0.112 C 
BRANCH  14  15
ATOM     15  C   UNL     1      30.905 -22.564 -16.128  0.00  0.00    +0.025 C 
BRANCH  15  16
ATOM     16  C   UNL     1      29.559 -23.210 -15.795  0.00  0.00    +0.002 C 
ATOM     17  C   UNL     1      29.741 -24.606 -15.219  0.00  0.00    +0.000 C 
ENDBRANCH  15  16
ENDBRANCH  14  15
ENDBRANCH   3  14
BRANCH   4  18
ATOM     18  C   UNL     1      35.250 -23.097 -12.798  0.00  0.00    +0.143 C 
BRANCH  18  20
ATOM     19  F   UNL     1      37.565 -22.424 -11.322  0.00  0.00    -0.204 F 
ATOM     20  C   UNL     1      36.378 -24.061 -12.566  0.00  0.00    +0.028 C 
ATOM     21  C   UNL     1      37.487 -23.663 -11.829  0.00  0.00    +0.138 C 
ATOM     22  C   UNL     1      36.300 -25.345 -13.093  0.00  0.00    -0.000 C 
ATOM     23  C   UNL     1      38.533 -24.560 -11.616  0.00  0.00    +0.029 C 
ATOM     24  C   UNL     1      37.346 -26.243 -12.879  0.00  0.00    -0.000 C 
ATOM     25  C   UNL     1      38.463 -25.851 -12.141  0.00  0.00    +0.002 C 
ENDBRANCH  18  20
ENDBRANCH   4  18
BRANCH  11  26
ATOM     26  C   UNL     1      35.696 -21.763 -19.966  0.00  0.00    +0.067 C 
BRANCH  26  27
ATOM     27  C   UNL     1      35.513 -20.289 -20.299  0.00  0.00    -0.019 C 
ATOM     28  C   UNL     1      34.238 -19.813 -20.528  0.00  0.00    -0.003 C 
ATOM     29  C   UNL     1      36.625 -19.476 -20.361  0.00  0.00    -0.003 C 
ATOM     30  C   UNL     1      34.071 -18.462 -20.833  0.00  0.00    +0.014 C 
ATOM     31  C   UNL     1      36.457 -18.126 -20.667  0.00  0.00    +0.014 C 
ATOM     32  C   UNL     1      35.179 -17.619 -20.902  0.00  0.00    +0.050 C 
BRANCH  32  34
ATOM     33  O   UNL     1      35.067 -16.214 -23.564  0.00  0.00    -0.275 OA
ATOM     34  N   UNL     1      35.011 -16.267 -21.208  0.00  0.00    -0.284 N 
ATOM     35  C   UNL     1      34.968 -15.665 -22.472  0.00  0.00    +0.227 C 
ATOM     36  C   UNL     1      34.770 -14.173 -22.373  0.00  0.00    +0.095 C 
ATOM     37  H   UNL     1      34.910 -15.662 -20.438  0.00  0.00    +0.155 HD
ENDBRANCH  32  34
ENDBRANCH  26  27
ENDBRANCH  11  26
TORSDOF 8
ENDMDL
MODEL 7
REMARK VINA RESULT:      -9.6      7.754     12.381
REMARK  Name = 447371
REMARK  8 active torsions:
REMARK  status: ('A' for Active; 'I' for Inactive)
REMARK    1  A    between atoms: N_3  and  C_14
REMARK    2  A    between atoms: N_4  and  C_18
REMARK    3  A    between atoms: C_11  and  C_26
REMARK    4  A    between atoms: C_14  and  C_15
REMARK    5  A    between atoms: C_15  and  C_16
REMARK    6  A    between atoms: C_18  and  C_20
REMARK    7  A    between atoms: C_26  and  C_27
REMARK    8  A    between atoms: C_32  and  N_34
REMARK                            x       y       z     vdW  Elec       q    Type
REMARK                         _______ _______ _______ _____ _____    ______ ____
ROOT
ATOM      1  O   UNL     1      33.971 -24.284 -12.321  0.00  0.00    -0.246 OA
ATOM      2  O   UNL     1      32.538 -23.884 -16.775  0.00  0.00    -0.265 OA
ATOM      3  N   UNL     1      35.362 -23.187 -13.830  0.00  0.00    -0.269 N 
ATOM      4  N   UNL     1      33.233 -24.099 -14.536  0.00  0.00    -0.243 N 
ATOM      5  N   UNL     1      35.112 -22.447 -17.245  0.00  0.00    -0.313 N 
ATOM      6  N   UNL     1      36.615 -22.084 -15.640  0.00  0.00    -0.304 N 
ATOM      7  C   UNL     1      35.536 -22.765 -15.142  0.00  0.00    +0.132 A 
ATOM      8  C   UNL     1      34.596 -23.001 -16.107  0.00  0.00    +0.133 A 
ATOM      9  C   UNL     1      34.181 -23.884 -13.473  0.00  0.00    +0.335 A 
ATOM     10  C   UNL     1      33.365 -23.687 -15.889  0.00  0.00    +0.280 A 
ATOM     11  C   UNL     1      36.327 -21.908 -16.912  0.00  0.00    +0.149 C 
ATOM     12  H   UNL     1      34.689 -22.437 -18.135  0.00  0.00    +0.148 HD
ATOM     13  H   UNL     1      37.421 -21.793 -15.156  0.00  0.00    +0.150 HD
ENDROOT
BRANCH   3  14
ATOM     14  C   UNL     1      36.392 -22.912 -12.836  0.00  0.00    +0.112 C 
BRANCH  14  15
ATOM     15  C   UNL     1      37.572 -23.871 -12.940  0.00  0.00    +0.025 C 
BRANCH  15  16
ATOM     16  C   UNL     1      37.711 -24.767 -11.708  0.00  0.00    +0.002 C 
ATOM     17  C   UNL     1      37.220 -26.179 -11.990  0.00  0.00    +0.000 C 
ENDBRANCH  15  16
ENDBRANCH  14  15
ENDBRANCH   3  14
BRANCH   4  18
ATOM     18  C   UNL     1      32.009 -24.814 -14.187  0.00  0.00    +0.143 C 
BRANCH  18  20
ATOM     19  F   UNL     1      31.577 -22.123 -13.435  0.00  0.00    -0.204 F 
ATOM     20  C   UNL     1      30.780 -24.045 -14.579  0.00  0.00    +0.028 C 
ATOM     21  C   UNL     1      30.633 -22.724 -14.174  0.00  0.00    +0.138 C 
ATOM     22  C   UNL     1      29.798 -24.666 -15.343  0.00  0.00    -0.000 C 
ATOM     23  C   UNL     1      29.489 -22.012 -14.539  0.00  0.00    +0.029 C 
ATOM     24  C   UNL     1      28.655 -23.955 -15.708  0.00  0.00    -0.000 C 
ATOM     25  C   UNL     1      28.500 -22.628 -15.306  0.00  0.00    +0.002 C 
ENDBRANCH  18  20
ENDBRANCH   4  18
BRANCH  11  26
ATOM     26  C   UNL     1      37.161 -21.223 -17.918  0.00  0.00    +0.067 C 
BRANCH  26  27
ATOM     27  C   UNL     1      36.372 -20.623 -19.073  0.00  0.00    -0.019 C 
ATOM     28  C   UNL     1      36.964 -19.647 -19.848  0.00  0.00    -0.003 C 
ATOM     29  C   UNL     1      35.089 -21.073 -19.308  0.00  0.00    -0.003 C 
ATOM     30  C   UNL     1      36.240 -19.098 -20.906  0.00  0.00    +0.014 C 
ATOM     31  C   UNL     1      34.366 -20.523 -20.366  0.00  0.00    +0.014 C 
ATOM     32  C   UNL     1      34.941 -19.535 -21.166  0.00  0.00    +0.050 C 
BRANCH  32  34
ATOM     33  O   UNL     1      35.076 -20.088 -24.123  0.00  0.00    -0.275 OA
ATOM     34  N   UNL     1      34.217 -18.985 -22.224  0.00  0.00    -0.284 N 
ATOM     35  C   UNL     1      34.323 -19.280 -23.590  0.00  0.00    +0.227 C 
ATOM     36  C   UNL     1      33.358 -18.464 -24.413  0.00  0.00    +0.095 C 
ATOM     37  H   UNL     1      33.549 -18.305 -21.980  0.00  0.00    +0.155 HD
ENDBRANCH  32  34
ENDBRANCH  26  27
ENDBRANCH  11  26
TORSDOF 8
ENDMDL
MODEL 8
REMARK VINA RESULT:      -9.6      7.256     12.281
REMARK  Name = 447371
REMARK  8 active torsions:
REMARK  status: ('A' for Active; 'I' for Inactive)
REMARK    1  A    between atoms: N_3  and  C_14
REMARK    2  A    between atoms: N_4  and  C_18
REMARK    3  A    between atoms: C_11  and  C_26
REMARK    4  A    between atoms: C_14  and  C_15
REMARK    5  A    between atoms: C_15  and  C_16
REMARK    6  A    between atoms: C_18  and  C_20
REMARK    7  A    between atoms: C_26  and  C_27
REMARK    8  A    between atoms: C_32  and  N_34
REMARK                            x       y       z     vdW  Elec       q    Type
REMARK                         _______ _______ _______ _____ _____    ______ ____
ROOT
ATOM      1  O   UNL     1      34.713 -23.776 -11.611  0.00  0.00    -0.246 OA
ATOM      2  O   UNL     1      37.507 -22.984 -15.300  0.00  0.00    -0.265 OA
ATOM      3  N   UNL     1      33.724 -23.482 -13.696  0.00  0.00    -0.269 N 
ATOM      4  N   UNL     1      36.130 -23.381 -13.434  0.00  0.00    -0.243 N 
ATOM      5  N   UNL     1      34.992 -22.862 -16.903  0.00  0.00    -0.313 N 
ATOM      6  N   UNL     1      32.966 -23.136 -16.013  0.00  0.00    -0.304 N 
ATOM      7  C   UNL     1      33.933 -23.240 -15.048  0.00  0.00    +0.132 A 
ATOM      8  C   UNL     1      35.187 -23.077 -15.568  0.00  0.00    +0.133 A 
ATOM      9  C   UNL     1      34.837 -23.563 -12.823  0.00  0.00    +0.335 A 
ATOM     10  C   UNL     1      36.393 -23.133 -14.807  0.00  0.00    +0.280 A 
ATOM     11  C   UNL     1      33.639 -22.908 -17.121  0.00  0.00    +0.149 C 
ATOM     12  H   UNL     1      35.690 -22.706 -17.579  0.00  0.00    +0.148 HD
ATOM     13  H   UNL     1      31.991 -23.214 -15.902  0.00  0.00    +0.150 HD
ENDROOT
BRANCH   3  14
ATOM     14  C   UNL     1      32.368 -23.650 -13.189  0.00  0.00    +0.112 C 
BRANCH  14  15
ATOM     15  C   UNL     1      31.832 -25.060 -13.417  0.00  0.00    +0.025 C 
BRANCH  15  16
ATOM     16  C   UNL     1      30.331 -25.076 -13.710  0.00  0.00    +0.002 C 
ATOM     17  C   UNL     1      29.901 -23.832 -14.472  0.00  0.00    +0.000 C 
ENDBRANCH  15  16
ENDBRANCH  14  15
ENDBRANCH   3  14
BRANCH   4  18
ATOM     18  C   UNL     1      37.288 -23.462 -12.550  0.00  0.00    +0.143 C 
BRANCH  18  20
ATOM     19  F   UNL     1      36.570 -26.157 -13.012  0.00  0.00    -0.204 F 
ATOM     20  C   UNL     1      38.271 -24.501 -13.008  0.00  0.00    +0.028 C 
ATOM     21  C   UNL     1      37.848 -25.808 -13.217  0.00  0.00    +0.138 C 
ATOM     22  C   UNL     1      39.597 -24.143 -13.218  0.00  0.00    -0.000 C 
ATOM     23  C   UNL     1      38.764 -26.772 -13.641  0.00  0.00    +0.029 C 
ATOM     24  C   UNL     1      40.513 -25.105 -13.644  0.00  0.00    -0.000 C 
ATOM     25  C   UNL     1      40.097 -26.420 -13.855  0.00  0.00    +0.002 C 
ENDBRANCH  18  20
ENDBRANCH   4  18
BRANCH  11  26
ATOM     26  C   UNL     1      33.075 -22.715 -18.471  0.00  0.00    +0.067 C 
BRANCH  26  27
ATOM     27  C   UNL     1      33.621 -21.496 -19.202  0.00  0.00    -0.019 C 
ATOM     28  C   UNL     1      34.983 -21.387 -19.390  0.00  0.00    -0.003 C 
ATOM     29  C   UNL     1      32.736 -20.538 -19.653  0.00  0.00    -0.003 C 
ATOM     30  C   UNL     1      35.481 -20.270 -20.060  0.00  0.00    +0.014 C 
ATOM     31  C   UNL     1      33.235 -19.422 -20.322  0.00  0.00    +0.014 C 
ATOM     32  C   UNL     1      34.609 -19.287 -20.526  0.00  0.00    +0.050 C 
BRANCH  32  34
ATOM     33  O   UNL     1      34.392 -18.483 -23.420  0.00  0.00    -0.275 OA
ATOM     34  N   UNL     1      35.108 -18.169 -21.196  0.00  0.00    -0.284 N 
ATOM     35  C   UNL     1      34.978 -17.844 -22.552  0.00  0.00    +0.227 C 
ATOM     36  C   UNL     1      35.666 -16.543 -22.883  0.00  0.00    +0.095 C 
ATOM     37  H   UNL     1      35.615 -17.530 -20.646  0.00  0.00    +0.155 HD
ENDBRANCH  32  34
ENDBRANCH  26  27
ENDBRANCH  11  26
TORSDOF 8
ENDMDL
MODEL 9
REMARK VINA RESULT:      -9.6      3.310      9.763
REMARK  Name = 447371
REMARK  8 active torsions:
REMARK  status: ('A' for Active; 'I' for Inactive)
REMARK    1  A    between atoms: N_3  and  C_14
REMARK    2  A    between atoms: N_4  and  C_18
REMARK    3  A    between atoms: C_11  and  C_26
REMARK    4  A    between atoms: C_14  and  C_15
REMARK    5  A    between atoms: C_15  and  C_16
REMARK    6  A    between atoms: C_18  and  C_20
REMARK    7  A    between atoms: C_26  and  C_27
REMARK    8  A    between atoms: C_32  and  N_34
REMARK                            x       y       z     vdW  Elec       q    Type
REMARK                         _______ _______ _______ _____ _____    ______ ____
ROOT
ATOM      1  O   UNL     1      32.631 -13.591 -24.463  0.00  0.00    -0.246 OA
ATOM      2  O   UNL     1      34.004 -13.958 -19.988  0.00  0.00    -0.265 OA
ATOM      3  N   UNL     1      34.079 -15.320 -23.896  0.00  0.00    -0.269 N 
ATOM      4  N   UNL     1      33.301 -13.750 -22.224  0.00  0.00    -0.243 N 
ATOM      5  N   UNL     1      35.577 -16.328 -20.893  0.00  0.00    -0.313 N 
ATOM      6  N   UNL     1      35.599 -17.041 -23.005  0.00  0.00    -0.304 N 
ATOM      7  C   UNL     1      34.796 -15.938 -22.879  0.00  0.00    +0.132 A 
ATOM      8  C   UNL     1      34.765 -15.480 -21.591  0.00  0.00    +0.133 A 
ATOM      9  C   UNL     1      33.290 -14.182 -23.600  0.00  0.00    +0.335 A 
ATOM     10  C   UNL     1      34.015 -14.348 -21.152  0.00  0.00    +0.280 A 
ATOM     11  C   UNL     1      36.055 -17.250 -21.788  0.00  0.00    +0.149 C 
ATOM     12  H   UNL     1      35.781 -16.285 -19.931  0.00  0.00    +0.148 HD
ATOM     13  H   UNL     1      35.790 -17.559 -23.820  0.00  0.00    +0.150 HD
ENDROOT
BRANCH   3  14
ATOM     14  C   UNL     1      34.144 -15.847 -25.253  0.00  0.00    +0.112 C 
BRANCH  14  15
ATOM     15  C   UNL     1      33.029 -16.845 -25.545  0.00  0.00    +0.025 C 
BRANCH  15  16
ATOM     16  C   UNL     1      33.231 -18.178 -24.820  0.00  0.00    +0.002 C 
ATOM     17  C   UNL     1      32.137 -19.173 -25.175  0.00  0.00    +0.000 C 
ENDBRANCH  15  16
ENDBRANCH  14  15
ENDBRANCH   3  14
BRANCH   4  18
ATOM     18  C   UNL     1      32.493 -12.580 -21.899  0.00  0.00    +0.143 C 
BRANCH  18  20
ATOM     19  F   UNL     1      31.365 -10.026 -21.451  0.00  0.00    -0.204 F 
ATOM     20  C   UNL     1      33.072 -11.320 -22.476  0.00  0.00    +0.028 C 
ATOM     21  C   UNL     1      32.466 -10.097 -22.213  0.00  0.00    +0.138 C 
ATOM     22  C   UNL     1      34.212 -11.391 -23.268  0.00  0.00    -0.000 C 
ATOM     23  C   UNL     1      33.006  -8.929 -22.751  0.00  0.00    +0.029 C 
ATOM     24  C   UNL     1      34.753 -10.223 -23.805  0.00  0.00    -0.000 C 
ATOM     25  C   UNL     1      34.151  -8.991 -23.546  0.00  0.00    +0.002 C 
ENDBRANCH  18  20
ENDBRANCH   4  18
BRANCH  11  26
ATOM     26  C   UNL     1      36.971 -18.325 -21.363  0.00  0.00    +0.067 C 
BRANCH  26  27
ATOM     27  C   UNL     1      36.317 -19.386 -20.488  0.00  0.00    -0.019 C 
ATOM     28  C   UNL     1      37.083 -20.032 -19.540  0.00  0.00    -0.003 C 
ATOM     29  C   UNL     1      34.980 -19.669 -20.672  0.00  0.00    -0.003 C 
ATOM     30  C   UNL     1      36.483 -21.004 -18.739  0.00  0.00    +0.014 C 
ATOM     31  C   UNL     1      34.381 -20.641 -19.872  0.00  0.00    +0.014 C 
ATOM     32  C   UNL     1      35.133 -21.309 -18.905  0.00  0.00    +0.050 C 
BRANCH  32  34
ATOM     33  O   UNL     1      32.237 -21.755 -18.206  0.00  0.00    -0.275 OA
ATOM     34  N   UNL     1      34.533 -22.282 -18.104  0.00  0.00    -0.284 N 
ATOM     35  C   UNL     1      33.173 -22.442 -17.810  0.00  0.00    +0.227 C 
ATOM     36  C   UNL     1      32.933 -23.622 -16.902  0.00  0.00    +0.095 C 
ATOM     37  H   UNL     1      35.143 -22.937 -17.694  0.00  0.00    +0.155 HD
ENDBRANCH  32  34
ENDBRANCH  26  27
ENDBRANCH  11  26
TORSDOF 8
ENDMDL
