MODEL 1
REMARK VINA RESULT:     -12.3      0.000      0.000
REMARK  Name = 446560
REMARK  8 active torsions:
REMARK  status: ('A' for Active; 'I' for Inactive)
REMARK    1  A    between atoms: C_1  and  C_19
REMARK    2  A    between atoms: C_2  and  C_9
REMARK    3  A    between atoms: N_8  and  CA_11
REMARK    4  A    between atoms: CA_11  and  CB_12
REMARK    5  A    between atoms: CA_11  and  C_16
REMARK    6  A    between atoms: C_16  and  O_17
REMARK    7  A    between atoms: C_19  and  C_20
REMARK    8  A    between atoms: C_20  and  C_26
REMARK                            x       y       z     vdW  Elec       q    Type
REMARK                         _______ _______ _______ _____ _____    ______ ____
ROOT
ATOM      1  C   UNL     1      35.539 -20.040 -20.151  0.00  0.00    -0.022 C 
ATOM      2  C   UNL     1      34.219 -21.918 -18.619  0.00  0.00    +0.053 C 
ATOM      3  C   UNL     1      36.263 -20.910 -19.336  0.00  0.00    -0.004 C 
ATOM      4  C   UNL     1      34.146 -20.118 -20.190  0.00  0.00    -0.004 C 
ATOM      5  C   UNL     1      35.597 -21.860 -18.562  0.00  0.00    +0.004 C 
ATOM      6  C   UNL     1      33.480 -21.068 -19.415  0.00  0.00    +0.004 C 
ENDROOT
BRANCH   2   9
ATOM      7  O   UNL     1      33.554 -24.111 -18.128  0.00  0.00    -0.270 OA
ATOM      8  N   UNL     1      32.850 -22.445 -16.678  0.00  0.00    -0.293 N 
ATOM      9  C   ACE A   0      33.508 -22.929 -17.797  0.00  0.00    +0.246 C 
ATOM     10  H   UNL     1      32.871 -21.477 -16.498  0.00  0.00    +0.150 HD
BRANCH   8  11
ATOM     11  CA  UNL     1      32.134 -23.307 -15.766  0.00  0.00    +0.171 C 
BRANCH  11  12
ATOM     12  CB  UNL     1      32.888 -23.405 -14.422  0.00  0.00    +0.029 C 
ATOM     13  CG1 UNL     1      34.396 -23.188 -14.587  0.00  0.00    +0.002 C 
ATOM     14  CG2 UNL     1      32.621 -24.714 -13.673  0.00  0.00    +0.002 C 
ENDBRANCH  11  12
BRANCH  11  16
ATOM     15  OXT UNL     1      30.036 -22.944 -14.598  0.00  0.00    -0.248 OA
ATOM     16  C   UNL     1      30.676 -22.875 -15.640  0.00  0.00    +0.332 C 
BRANCH  16  17
ATOM     17  O   UNL     1      30.112 -22.448 -16.797  0.00  0.00    -0.479 OA
ATOM     18  H   UNL     1      30.231 -22.942 -17.585  0.00  0.00    +0.295 HD
ENDBRANCH  16  17
ENDBRANCH  11  16
ENDBRANCH   8  11
ENDBRANCH   2   9
BRANCH   1  19
ATOM     19  C   UNL     1      36.253 -19.024 -20.977  0.00  0.00    +0.031 C 
BRANCH  19  20
ATOM     20  C   UNL     1      35.499 -18.608 -22.256  0.00  0.00    +0.033 C 
BRANCH  20  26
ATOM     21  O   UNL     1      34.145 -18.011 -25.071  0.00  0.00    -0.209 OA
ATOM     22  N   UNL     1      34.852 -15.047 -21.655  0.00  0.00    -0.300 N 
ATOM     23  N   UNL     1      33.787 -14.231 -23.657  0.00  0.00    -0.264 N 
ATOM     24  N   UNL     1      33.447 -15.835 -25.404  0.00  0.00    -0.302 NA
ATOM     25  N   UNL     1      32.777 -13.587 -25.630  0.00  0.00    -0.320 N 
ATOM     26  C   UNL     1      35.120 -17.155 -22.280  0.00  0.00    +0.007 C 
ATOM     27  C   UNL     1      34.496 -16.480 -23.335  0.00  0.00    +0.120 C 
ATOM     28  C   UNL     1      34.351 -15.187 -22.907  0.00  0.00    +0.115 C 
ATOM     29  C   UNL     1      35.335 -16.274 -21.254  0.00  0.00    +0.059 C 
ATOM     30  C   UNL     1      34.028 -16.863 -24.658  0.00  0.00    +0.209 C 
ATOM     31  C   UNL     1      33.344 -14.613 -24.918  0.00  0.00    +0.248 C 
ATOM     32  H   UNL     1      34.868 -14.217 -21.125  0.00  0.00    +0.153 HD
ATOM     33  H   UNL     1      33.691 -13.307 -23.332  0.00  0.00    +0.157 HD
ATOM     34  H   UNL     1      32.717 -12.687 -25.235  0.00  0.00    +0.146 HD
ATOM     35  H   UNL     1      32.429 -13.750 -26.537  0.00  0.00    +0.146 HD
ENDBRANCH  20  26
ENDBRANCH  19  20
ENDBRANCH   1  19
TORSDOF 8
ENDMDL
MODEL 2
REMARK VINA RESULT:     -11.8      1.753      2.368
REMARK  Name = 446560
REMARK  8 active torsions:
REMARK  status: ('A' for Active; 'I' for Inactive)
REMARK    1  A    between atoms: C_1  and  C_19
REMARK    2  A    between atoms: C_2  and  C_9
REMARK    3  A    between atoms: N_8  and  CA_11
REMARK    4  A    between atoms: CA_11  and  CB_12
REMARK    5  A    between atoms: CA_11  and  C_16
REMARK    6  A    between atoms: C_16  and  O_17
REMARK    7  A    between atoms: C_19  and  C_20
REMARK    8  A    between atoms: C_20  and  C_26
REMARK                            x       y       z     vdW  Elec       q    Type
REMARK                         _______ _______ _______ _____ _____    ______ ____
ROOT
ATOM      1  C   UNL     1      35.708 -19.437 -20.590  0.00  0.00    -0.022 C 
ATOM      2  C   UNL     1      34.799 -21.497 -18.995  0.00  0.00    +0.053 C 
ATOM      3  C   UNL     1      36.610 -20.180 -19.827  0.00  0.00    -0.004 C 
ATOM      4  C   UNL     1      34.346 -19.736 -20.545  0.00  0.00    -0.004 C 
ATOM      5  C   UNL     1      36.151 -21.221 -19.022  0.00  0.00    +0.004 C 
ATOM      6  C   UNL     1      33.887 -20.777 -19.739  0.00  0.00    +0.004 C 
ENDROOT
BRANCH   2   9
ATOM      7  O   UNL     1      33.689 -23.534 -18.655  0.00  0.00    -0.270 OA
ATOM      8  N   UNL     1      34.620 -22.513 -16.792  0.00  0.00    -0.293 N 
ATOM      9  C   ACE A   0      34.309 -22.607 -18.139  0.00  0.00    +0.246 C 
ATOM     10  H   UNL     1      35.121 -21.728 -16.475  0.00  0.00    +0.150 HD
BRANCH   8  11
ATOM     11  CA  UNL     1      34.234 -23.526 -15.836  0.00  0.00    +0.171 C 
BRANCH  11  12
ATOM     12  CB  UNL     1      35.366 -23.749 -14.809  0.00  0.00    +0.029 C 
ATOM     13  CG1 UNL     1      36.656 -23.022 -15.204  0.00  0.00    +0.002 C 
ATOM     14  CG2 UNL     1      35.654 -25.228 -14.539  0.00  0.00    +0.002 C 
ENDBRANCH  11  12
BRANCH  11  16
ATOM     15  OXT UNL     1      31.815 -23.302 -15.820  0.00  0.00    -0.248 OA
ATOM     16  C   UNL     1      32.878 -23.201 -15.217  0.00  0.00    +0.332 C 
BRANCH  16  17
ATOM     17  O   UNL     1      32.935 -22.734 -13.945  0.00  0.00    -0.479 OA
ATOM     18  H   UNL     1      33.318 -23.259 -13.271  0.00  0.00    +0.295 HD
ENDBRANCH  16  17
ENDBRANCH  11  16
ENDBRANCH   8  11
ENDBRANCH   2   9
BRANCH   1  19
ATOM     19  C   UNL     1      36.201 -18.324 -21.450  0.00  0.00    +0.031 C 
BRANCH  19  20
ATOM     20  C   UNL     1      35.379 -17.024 -21.333  0.00  0.00    +0.033 C 
BRANCH  20  26
ATOM     21  O   UNL     1      34.888 -13.897 -21.032  0.00  0.00    -0.209 OA
ATOM     22  N   UNL     1      34.217 -16.458 -24.767  0.00  0.00    -0.300 N 
ATOM     23  N   UNL     1      33.736 -14.101 -24.912  0.00  0.00    -0.264 N 
ATOM     24  N   UNL     1      34.109 -12.819 -22.922  0.00  0.00    -0.302 NA
ATOM     25  N   UNL     1      33.317 -11.830 -24.909  0.00  0.00    -0.320 N 
ATOM     26  C   UNL     1      34.878 -16.513 -22.654  0.00  0.00    +0.007 C 
ATOM     27  C   UNL     1      34.540 -15.189 -22.954  0.00  0.00    +0.120 C 
ATOM     28  C   UNL     1      34.139 -15.201 -24.263  0.00  0.00    +0.115 C 
ATOM     29  C   UNL     1      34.679 -17.285 -23.767  0.00  0.00    +0.059 C 
ATOM     30  C   UNL     1      34.537 -13.941 -22.206  0.00  0.00    +0.209 C 
ATOM     31  C   UNL     1      33.740 -12.916 -24.184  0.00  0.00    +0.248 C 
ATOM     32  H   UNL     1      33.985 -16.732 -25.685  0.00  0.00    +0.153 HD
ATOM     33  H   UNL     1      33.451 -14.129 -25.854  0.00  0.00    +0.157 HD
ATOM     34  H   UNL     1      33.048 -11.940 -25.849  0.00  0.00    +0.146 HD
ATOM     35  H   UNL     1      33.282 -10.941 -24.488  0.00  0.00    +0.146 HD
ENDBRANCH  20  26
ENDBRANCH  19  20
ENDBRANCH   1  19
TORSDOF 8
ENDMDL
MODEL 3
REMARK VINA RESULT:     -11.8      3.216     10.383
REMARK  Name = 446560
REMARK  8 active torsions:
REMARK  status: ('A' for Active; 'I' for Inactive)
REMARK    1  A    between atoms: C_1  and  C_19
REMARK    2  A    between atoms: C_2  and  C_9
REMARK    3  A    between atoms: N_8  and  CA_11
REMARK    4  A    between atoms: CA_11  and  CB_12
REMARK    5  A    between atoms: CA_11  and  C_16
REMARK    6  A    between atoms: C_16  and  O_17
REMARK    7  A    between atoms: C_19  and  C_20
REMARK    8  A    between atoms: C_20  and  C_26
REMARK                            x       y       z     vdW  Elec       q    Type
REMARK                         _______ _______ _______ _____ _____    ______ ____
ROOT
ATOM      1  C   UNL     1      34.927 -17.725 -23.109  0.00  0.00    -0.022 C 
ATOM      2  C   UNL     1      34.103 -15.204 -23.868  0.00  0.00    +0.053 C 
ATOM      3  C   UNL     1      34.219 -17.551 -24.298  0.00  0.00    -0.004 C 
ATOM      4  C   UNL     1      35.218 -16.624 -22.303  0.00  0.00    -0.004 C 
ATOM      5  C   UNL     1      33.803 -16.277 -24.682  0.00  0.00    +0.004 C 
ATOM      6  C   UNL     1      34.801 -15.350 -22.687  0.00  0.00    +0.004 C 
ENDROOT
BRANCH   2   9
ATOM      7  O   UNL     1      33.103 -13.698 -25.361  0.00  0.00    -0.270 OA
ATOM      8  N   UNL     1      33.902 -12.832 -23.363  0.00  0.00    -0.293 N 
ATOM      9  C   ACE A   0      33.661 -13.846 -24.276  0.00  0.00    +0.246 C 
ATOM     10  H   UNL     1      34.358 -13.053 -22.519  0.00  0.00    +0.150 HD
BRANCH   8  11
ATOM     11  CA  UNL     1      33.508 -11.463 -23.606  0.00  0.00    +0.171 C 
BRANCH  11  12
ATOM     12  CB  UNL     1      32.974 -10.824 -22.305  0.00  0.00    +0.029 C 
ATOM     13  CG1 UNL     1      32.126 -11.803 -21.486  0.00  0.00    +0.002 C 
ATOM     14  CG2 UNL     1      32.199  -9.525 -22.545  0.00  0.00    +0.002 C 
ENDBRANCH  11  12
BRANCH  11  16
ATOM     15  OXT UNL     1      34.839 -10.680 -25.481  0.00  0.00    -0.248 OA
ATOM     16  C   UNL     1      34.638 -10.683 -24.272  0.00  0.00    +0.332 C 
BRANCH  16  17
ATOM     17  O   UNL     1      35.451 -10.021 -23.412  0.00  0.00    -0.479 OA
ATOM     18  H   UNL     1      35.215  -9.165 -23.111  0.00  0.00    +0.295 HD
ENDBRANCH  16  17
ENDBRANCH  11  16
ENDBRANCH   8  11
ENDBRANCH   2   9
BRANCH   1  19
ATOM     19  C   UNL     1      35.371 -19.088 -22.699  0.00  0.00    +0.031 C 
BRANCH  19  20
ATOM     20  C   UNL     1      35.559 -19.261 -21.178  0.00  0.00    +0.033 C 
BRANCH  20  26
ATOM     21  O   UNL     1      36.706 -21.291 -19.016  0.00  0.00    -0.209 OA
ATOM     22  N   UNL     1      32.307 -20.454 -19.967  0.00  0.00    -0.300 N 
ATOM     23  N   UNL     1      32.804 -22.070 -18.250  0.00  0.00    -0.264 N 
ATOM     24  N   UNL     1      35.125 -22.459 -17.802  0.00  0.00    -0.302 NA
ATOM     25  N   UNL     1      33.424 -23.592 -16.628  0.00  0.00    -0.320 N 
ATOM     26  C   UNL     1      34.388 -19.916 -20.503  0.00  0.00    +0.007 C 
ATOM     27  C   UNL     1      34.450 -20.876 -19.487  0.00  0.00    +0.120 C 
ATOM     28  C   UNL     1      33.148 -21.178 -19.188  0.00  0.00    +0.115 C 
ATOM     29  C   UNL     1      33.074 -19.661 -20.793  0.00  0.00    +0.059 C 
ATOM     30  C   UNL     1      35.530 -21.538 -18.771  0.00  0.00    +0.209 C 
ATOM     31  C   UNL     1      33.848 -22.693 -17.574  0.00  0.00    +0.248 C 
ATOM     32  H   UNL     1      31.323 -20.488 -19.948  0.00  0.00    +0.153 HD
ATOM     33  H   UNL     1      31.862 -22.274 -18.049  0.00  0.00    +0.157 HD
ATOM     34  H   UNL     1      32.462 -23.741 -16.486  0.00  0.00    +0.146 HD
ATOM     35  H   UNL     1      34.084 -24.089 -16.091  0.00  0.00    +0.146 HD
ENDBRANCH  20  26
ENDBRANCH  19  20
ENDBRANCH   1  19
TORSDOF 8
ENDMDL
MODEL 4
REMARK VINA RESULT:     -11.6      2.988     10.499
REMARK  Name = 446560
REMARK  8 active torsions:
REMARK  status: ('A' for Active; 'I' for Inactive)
REMARK    1  A    between atoms: C_1  and  C_19
REMARK    2  A    between atoms: C_2  and  C_9
REMARK    3  A    between atoms: N_8  and  CA_11
REMARK    4  A    between atoms: CA_11  and  CB_12
REMARK    5  A    between atoms: CA_11  and  C_16
REMARK    6  A    between atoms: C_16  and  O_17
REMARK    7  A    between atoms: C_19  and  C_20
REMARK    8  A    between atoms: C_20  and  C_26
REMARK                            x       y       z     vdW  Elec       q    Type
REMARK                         _______ _______ _______ _____ _____    ______ ____
ROOT
ATOM      1  C   UNL     1      35.550 -17.022 -20.992  0.00  0.00    -0.022 C 
ATOM      2  C   UNL     1      34.378 -14.766 -22.063  0.00  0.00    +0.053 C 
ATOM      3  C   UNL     1      35.453 -16.876 -22.376  0.00  0.00    -0.004 C 
ATOM      4  C   UNL     1      35.053 -16.027 -20.149  0.00  0.00    -0.004 C 
ATOM      5  C   UNL     1      34.862 -15.736 -22.918  0.00  0.00    +0.004 C 
ATOM      6  C   UNL     1      34.460 -14.887 -20.692  0.00  0.00    +0.004 C 
ENDROOT
BRANCH   2   9
ATOM      7  O   UNL     1      32.990 -12.881 -21.942  0.00  0.00    -0.270 OA
ATOM      8  N   UNL     1      34.097 -13.250 -23.946  0.00  0.00    -0.293 N 
ATOM      9  C   ACE A   0      33.749 -13.550 -22.639  0.00  0.00    +0.246 C 
ATOM     10  H   UNL     1      34.715 -13.852 -24.421  0.00  0.00    +0.150 HD
BRANCH   8  11
ATOM     11  CA  UNL     1      33.587 -12.087 -24.636  0.00  0.00    +0.171 C 
BRANCH  11  12
ATOM     12  CB  UNL     1      34.467 -10.857 -24.328  0.00  0.00    +0.029 C 
ATOM     13  CG1 UNL     1      33.667  -9.719 -23.685  0.00  0.00    +0.002 C 
ATOM     14  CG2 UNL     1      35.233 -10.341 -25.550  0.00  0.00    +0.002 C 
ENDBRANCH  11  12
BRANCH  11  16
ATOM     15  OXT UNL     1      34.235 -12.960 -26.808  0.00  0.00    -0.248 OA
ATOM     16  C   UNL     1      33.404 -12.375 -26.123  0.00  0.00    +0.332 C 
BRANCH  16  17
ATOM     17  O   UNL     1      32.259 -11.882 -26.657  0.00  0.00    -0.479 OA
ATOM     18  H   UNL     1      32.295 -11.326 -27.410  0.00  0.00    +0.295 HD
ENDBRANCH  16  17
ENDBRANCH  11  16
ENDBRANCH   8  11
ENDBRANCH   2   9
BRANCH   1  19
ATOM     19  C   UNL     1      36.183 -18.243 -20.414  0.00  0.00    +0.031 C 
BRANCH  19  20
ATOM     20  C   UNL     1      35.702 -19.564 -21.049  0.00  0.00    +0.033 C 
BRANCH  20  26
ATOM     21  O   UNL     1      36.694 -21.546 -18.770  0.00  0.00    -0.209 OA
ATOM     22  N   UNL     1      32.367 -20.561 -19.891  0.00  0.00    -0.300 N 
ATOM     23  N   UNL     1      32.741 -22.120 -18.092  0.00  0.00    -0.264 N 
ATOM     24  N   UNL     1      35.028 -22.590 -17.557  0.00  0.00    -0.302 NA
ATOM     25  N   UNL     1      33.245 -23.596 -16.390  0.00  0.00    -0.320 N 
ATOM     26  C   UNL     1      34.484 -20.138 -20.384  0.00  0.00    +0.007 C 
ATOM     27  C   UNL     1      34.474 -21.054 -19.327  0.00  0.00    +0.120 C 
ATOM     28  C   UNL     1      33.152 -21.286 -19.056  0.00  0.00    +0.115 C 
ATOM     29  C   UNL     1      33.192 -19.839 -20.725  0.00  0.00    +0.059 C 
ATOM     30  C   UNL     1      35.502 -21.730 -18.551  0.00  0.00    +0.209 C 
ATOM     31  C   UNL     1      33.736 -22.758 -17.359  0.00  0.00    +0.248 C 
ATOM     32  H   UNL     1      31.382 -20.551 -19.901  0.00  0.00    +0.153 HD
ATOM     33  H   UNL     1      31.785 -22.275 -17.913  0.00  0.00    +0.157 HD
ATOM     34  H   UNL     1      32.273 -23.697 -16.271  0.00  0.00    +0.146 HD
ATOM     35  H   UNL     1      33.866 -24.097 -15.812  0.00  0.00    +0.146 HD
ENDBRANCH  20  26
ENDBRANCH  19  20
ENDBRANCH   1  19
TORSDOF 8
ENDMDL
MODEL 5
REMARK VINA RESULT:     -11.5      2.604      3.486
REMARK  Name = 446560
REMARK  8 active torsions:
REMARK  status: ('A' for Active; 'I' for Inactive)
REMARK    1  A    between atoms: C_1  and  C_19
REMARK    2  A    between atoms: C_2  and  C_9
REMARK    3  A    between atoms: N_8  and  CA_11
REMARK    4  A    between atoms: CA_11  and  CB_12
REMARK    5  A    between atoms: CA_11  and  C_16
REMARK    6  A    between atoms: C_16  and  O_17
REMARK    7  A    between atoms: C_19  and  C_20
REMARK    8  A    between atoms: C_20  and  C_26
REMARK                            x       y       z     vdW  Elec       q    Type
REMARK                         _______ _______ _______ _____ _____    ______ ____
ROOT
ATOM      1  C   UNL     1      34.597 -20.627 -19.873  0.00  0.00    -0.022 C 
ATOM      2  C   UNL     1      35.618 -21.874 -17.633  0.00  0.00    +0.053 C 
ATOM      3  C   UNL     1      35.955 -20.521 -19.574  0.00  0.00    -0.004 C 
ATOM      4  C   UNL     1      33.754 -21.362 -19.038  0.00  0.00    -0.004 C 
ATOM      5  C   UNL     1      36.472 -21.152 -18.442  0.00  0.00    +0.004 C 
ATOM      6  C   UNL     1      34.271 -21.992 -17.906  0.00  0.00    +0.004 C 
ENDROOT
BRANCH   2   9
ATOM      7  O   UNL     1      37.348 -22.382 -16.136  0.00  0.00    -0.270 OA
ATOM      8  N   UNL     1      35.268 -23.309 -15.699  0.00  0.00    -0.293 N 
ATOM      9  C   ACE A   0      36.167 -22.546 -16.428  0.00  0.00    +0.246 C 
ATOM     10  H   UNL     1      34.339 -23.379 -16.018  0.00  0.00    +0.150 HD
BRANCH   8  11
ATOM     11  CA  UNL     1      35.645 -24.004 -14.490  0.00  0.00    +0.171 C 
BRANCH  11  12
ATOM     12  CB  UNL     1      34.403 -24.243 -13.604  0.00  0.00    +0.029 C 
ATOM     13  CG1 UNL     1      33.197 -23.416 -14.062  0.00  0.00    +0.002 C 
ATOM     14  CG2 UNL     1      34.670 -24.008 -12.114  0.00  0.00    +0.002 C 
ENDBRANCH  11  12
BRANCH  11  16
ATOM     15  OXT UNL     1      35.921 -26.345 -15.075  0.00  0.00    -0.248 OA
ATOM     16  C   UNL     1      36.440 -25.266 -14.814  0.00  0.00    +0.332 C 
BRANCH  16  17
ATOM     17  O   UNL     1      37.786 -25.120 -14.740  0.00  0.00    -0.479 OA
ATOM     18  H   UNL     1      38.337 -25.544 -15.367  0.00  0.00    +0.295 HD
ENDBRANCH  16  17
ENDBRANCH  11  16
ENDBRANCH   8  11
ENDBRANCH   2   9
BRANCH   1  19
ATOM     19  C   UNL     1      34.046 -19.952 -21.083  0.00  0.00    +0.031 C 
BRANCH  19  20
ATOM     20  C   UNL     1      35.105 -19.606 -22.150  0.00  0.00    +0.033 C 
BRANCH  20  26
ATOM     21  O   UNL     1      35.587 -16.979 -20.425  0.00  0.00    -0.209 OA
ATOM     22  N   UNL     1      34.037 -17.221 -24.725  0.00  0.00    -0.300 N 
ATOM     23  N   UNL     1      34.281 -15.038 -23.733  0.00  0.00    -0.264 N 
ATOM     24  N   UNL     1      35.097 -14.984 -21.482  0.00  0.00    -0.302 NA
ATOM     25  N   UNL     1      34.563 -13.014 -22.660  0.00  0.00    -0.320 N 
ATOM     26  C   UNL     1      34.731 -18.427 -23.002  0.00  0.00    +0.007 C 
ATOM     27  C   UNL     1      34.794 -17.081 -22.626  0.00  0.00    +0.120 C 
ATOM     28  C   UNL     1      34.360 -16.375 -23.715  0.00  0.00    +0.115 C 
ATOM     29  C   UNL     1      34.267 -18.507 -24.288  0.00  0.00    +0.059 C 
ATOM     30  C   UNL     1      35.195 -16.376 -21.418  0.00  0.00    +0.209 C 
ATOM     31  C   UNL     1      34.668 -14.379 -22.572  0.00  0.00    +0.248 C 
ATOM     32  H   UNL     1      33.699 -16.963 -25.614  0.00  0.00    +0.153 HD
ATOM     33  H   UNL     1      33.965 -14.548 -24.527  0.00  0.00    +0.157 HD
ATOM     34  H   UNL     1      34.238 -12.597 -23.490  0.00  0.00    +0.146 HD
ATOM     35  H   UNL     1      34.813 -12.451 -21.892  0.00  0.00    +0.146 HD
ENDBRANCH  20  26
ENDBRANCH  19  20
ENDBRANCH   1  19
TORSDOF 8
ENDMDL
MODEL 6
REMARK VINA RESULT:     -11.4      2.490      3.169
REMARK  Name = 446560
REMARK  8 active torsions:
REMARK  status: ('A' for Active; 'I' for Inactive)
REMARK    1  A    between atoms: C_1  and  C_19
REMARK    2  A    between atoms: C_2  and  C_9
REMARK    3  A    between atoms: N_8  and  CA_11
REMARK    4  A    between atoms: CA_11  and  CB_12
REMARK    5  A    between atoms: CA_11  and  C_16
REMARK    6  A    between atoms: C_16  and  O_17
REMARK    7  A    between atoms: C_19  and  C_20
REMARK    8  A    between atoms: C_20  and  C_26
REMARK                            x       y       z     vdW  Elec       q    Type
REMARK                         _______ _______ _______ _____ _____    ______ ____
ROOT
ATOM      1  C   UNL     1      34.771 -20.869 -19.536  0.00  0.00    -0.022 C 
ATOM      2  C   UNL     1      35.849 -22.036 -17.279  0.00  0.00    +0.053 C 
ATOM      3  C   UNL     1      36.116 -20.673 -19.223  0.00  0.00    -0.004 C 
ATOM      4  C   UNL     1      33.970 -21.656 -18.706  0.00  0.00    -0.004 C 
ATOM      5  C   UNL     1      36.661 -21.263 -18.083  0.00  0.00    +0.004 C 
ATOM      6  C   UNL     1      34.516 -22.245 -17.566  0.00  0.00    +0.004 C 
ENDROOT
BRANCH   2   9
ATOM      7  O   UNL     1      37.572 -22.371 -15.726  0.00  0.00    -0.270 OA
ATOM      8  N   UNL     1      35.599 -23.542 -15.384  0.00  0.00    -0.293 N 
ATOM      9  C   ACE A   0      36.428 -22.666 -16.066  0.00  0.00    +0.246 C 
ATOM     10  H   UNL     1      34.697 -23.712 -15.739  0.00  0.00    +0.150 HD
BRANCH   8  11
ATOM     11  CA  UNL     1      36.011 -24.214 -14.173  0.00  0.00    +0.171 C 
BRANCH  11  12
ATOM     12  CB  UNL     1      34.821 -24.325 -13.195  0.00  0.00    +0.029 C 
ATOM     13  CG1 UNL     1      33.558 -23.649 -13.740  0.00  0.00    +0.002 C 
ATOM     14  CG2 UNL     1      35.140 -23.798 -11.793  0.00  0.00    +0.002 C 
ENDBRANCH  11  12
BRANCH  11  16
ATOM     15  OXT UNL     1      37.902 -25.673 -14.613  0.00  0.00    -0.248 OA
ATOM     16  C   UNL     1      36.689 -25.543 -14.493  0.00  0.00    +0.332 C 
BRANCH  16  17
ATOM     17  O   UNL     1      35.837 -26.579 -14.689  0.00  0.00    -0.479 OA
ATOM     18  H   UNL     1      35.465 -26.724 -15.537  0.00  0.00    +0.295 HD
ENDBRANCH  16  17
ENDBRANCH  11  16
ENDBRANCH   8  11
ENDBRANCH   2   9
BRANCH   1  19
ATOM     19  C   UNL     1      34.189 -20.238 -20.755  0.00  0.00    +0.031 C 
BRANCH  19  20
ATOM     20  C   UNL     1      35.237 -19.661 -21.728  0.00  0.00    +0.033 C 
BRANCH  20  26
ATOM     21  O   UNL     1      34.020 -19.090 -24.609  0.00  0.00    -0.209 OA
ATOM     22  N   UNL     1      35.280 -16.001 -21.475  0.00  0.00    -0.300 N 
ATOM     23  N   UNL     1      34.388 -15.193 -23.564  0.00  0.00    -0.264 N 
ATOM     24  N   UNL     1      33.748 -16.862 -25.158  0.00  0.00    -0.302 NA
ATOM     25  N   UNL     1      33.518 -14.560 -25.607  0.00  0.00    -0.320 N 
ATOM     26  C   UNL     1      35.141 -18.171 -21.895  0.00  0.00    +0.007 C 
ATOM     27  C   UNL     1      34.657 -17.494 -23.019  0.00  0.00    +0.120 C 
ATOM     28  C   UNL     1      34.760 -16.163 -22.718  0.00  0.00    +0.115 C 
ATOM     29  C   UNL     1      35.521 -17.252 -20.953  0.00  0.00    +0.059 C 
ATOM     30  C   UNL     1      34.124 -17.907 -24.308  0.00  0.00    +0.209 C 
ATOM     31  C   UNL     1      33.879 -15.603 -24.791  0.00  0.00    +0.248 C 
ATOM     32  H   UNL     1      35.454 -15.142 -21.026  0.00  0.00    +0.153 HD
ATOM     33  H   UNL     1      34.470 -14.240 -23.329  0.00  0.00    +0.157 HD
ATOM     34  H   UNL     1      33.630 -13.633 -25.299  0.00  0.00    +0.146 HD
ATOM     35  H   UNL     1      33.145 -14.741 -26.500  0.00  0.00    +0.146 HD
ENDBRANCH  20  26
ENDBRANCH  19  20
ENDBRANCH   1  19
TORSDOF 8
ENDMDL
MODEL 7
REMARK VINA RESULT:     -11.4      3.586     10.384
REMARK  Name = 446560
REMARK  8 active torsions:
REMARK  status: ('A' for Active; 'I' for Inactive)
REMARK    1  A    between atoms: C_1  and  C_19
REMARK    2  A    between atoms: C_2  and  C_9
REMARK    3  A    between atoms: N_8  and  CA_11
REMARK    4  A    between atoms: CA_11  and  CB_12
REMARK    5  A    between atoms: CA_11  and  C_16
REMARK    6  A    between atoms: C_16  and  O_17
REMARK    7  A    between atoms: C_19  and  C_20
REMARK    8  A    between atoms: C_20  and  C_26
REMARK                            x       y       z     vdW  Elec       q    Type
REMARK                         _______ _______ _______ _____ _____    ______ ____
ROOT
ATOM      1  C   UNL     1      35.292 -16.894 -22.266  0.00  0.00    -0.022 C 
ATOM      2  C   UNL     1      34.199 -14.512 -23.128  0.00  0.00    +0.053 C 
ATOM      3  C   UNL     1      35.092 -15.850 -21.362  0.00  0.00    -0.004 C 
ATOM      4  C   UNL     1      34.940 -16.732 -23.606  0.00  0.00    -0.004 C 
ATOM      5  C   UNL     1      34.539 -14.646 -21.797  0.00  0.00    +0.004 C 
ATOM      6  C   UNL     1      34.388 -15.528 -24.042  0.00  0.00    +0.004 C 
ENDROOT
BRANCH   2   9
ATOM      7  O   UNL     1      33.150 -13.160 -24.731  0.00  0.00    -0.270 OA
ATOM      8  N   UNL     1      33.605 -12.197 -22.671  0.00  0.00    -0.293 N 
ATOM      9  C   ACE A   0      33.609 -13.231 -23.593  0.00  0.00    +0.246 C 
ATOM     10  H   UNL     1      33.998 -12.354 -21.782  0.00  0.00    +0.150 HD
BRANCH   8  11
ATOM     11  CA  UNL     1      33.044 -10.898 -22.965  0.00  0.00    +0.171 C 
BRANCH  11  12
ATOM     12  CB  UNL     1      32.322 -10.335 -21.722  0.00  0.00    +0.029 C 
ATOM     13  CG1 UNL     1      31.618 -11.432 -20.915  0.00  0.00    +0.002 C 
ATOM     14  CG2 UNL     1      31.338  -9.209 -22.052  0.00  0.00    +0.002 C 
ENDBRANCH  11  12
BRANCH  11  16
ATOM     15  OXT UNL     1      34.385  -8.877 -23.077  0.00  0.00    -0.248 OA
ATOM     16  C   UNL     1      34.102  -9.970 -23.553  0.00  0.00    +0.332 C 
BRANCH  16  17
ATOM     17  O   UNL     1      34.683 -10.425 -24.691  0.00  0.00    -0.479 OA
ATOM     18  H   UNL     1      34.661 -11.340 -24.894  0.00  0.00    +0.295 HD
ENDBRANCH  16  17
ENDBRANCH  11  16
ENDBRANCH   8  11
ENDBRANCH   2   9
BRANCH   1  19
ATOM     19  C   UNL     1      35.884 -18.180 -21.798  0.00  0.00    +0.031 C 
BRANCH  19  20
ATOM     20  C   UNL     1      34.843 -19.257 -21.431  0.00  0.00    +0.033 C 
BRANCH  20  26
ATOM     21  O   UNL     1      32.229 -20.584 -20.199  0.00  0.00    -0.209 OA
ATOM     22  N   UNL     1      36.553 -21.194 -18.826  0.00  0.00    -0.300 N 
ATOM     23  N   UNL     1      34.815 -22.376 -17.647  0.00  0.00    -0.264 N 
ATOM     24  N   UNL     1      32.576 -22.012 -18.417  0.00  0.00    -0.302 NA
ATOM     25  N   UNL     1      33.052 -23.445 -16.608  0.00  0.00    -0.320 N 
ATOM     26  C   UNL     1      35.273 -20.141 -20.295  0.00  0.00    +0.007 C 
ATOM     27  C   UNL     1      34.434 -20.911 -19.482  0.00  0.00    +0.120 C 
ATOM     28  C   UNL     1      35.263 -21.542 -18.594  0.00  0.00    +0.115 C 
ATOM     29  C   UNL     1      36.569 -20.318 -19.889  0.00  0.00    +0.059 C 
ATOM     30  C   UNL     1      32.998 -21.135 -19.420  0.00  0.00    +0.209 C 
ATOM     31  C   UNL     1      33.441 -22.580 -17.600  0.00  0.00    +0.248 C 
ATOM     32  H   UNL     1      37.339 -21.511 -18.325  0.00  0.00    +0.153 HD
ATOM     33  H   UNL     1      35.427 -22.820 -17.016  0.00  0.00    +0.157 HD
ATOM     34  H   UNL     1      33.726 -23.851 -16.016  0.00  0.00    +0.146 HD
ATOM     35  H   UNL     1      32.098 -23.660 -16.488  0.00  0.00    +0.146 HD
ENDBRANCH  20  26
ENDBRANCH  19  20
ENDBRANCH   1  19
TORSDOF 8
ENDMDL
MODEL 8
REMARK VINA RESULT:     -11.4      3.387      4.728
REMARK  Name = 446560
REMARK  8 active torsions:
REMARK  status: ('A' for Active; 'I' for Inactive)
REMARK    1  A    between atoms: C_1  and  C_19
REMARK    2  A    between atoms: C_2  and  C_9
REMARK    3  A    between atoms: N_8  and  CA_11
REMARK    4  A    between atoms: CA_11  and  CB_12
REMARK    5  A    between atoms: CA_11  and  C_16
REMARK    6  A    between atoms: C_16  and  O_17
REMARK    7  A    between atoms: C_19  and  C_20
REMARK    8  A    between atoms: C_20  and  C_26
REMARK                            x       y       z     vdW  Elec       q    Type
REMARK                         _______ _______ _______ _____ _____    ______ ____
ROOT
ATOM      1  C   UNL     1      35.286 -21.357 -18.847  0.00  0.00    -0.022 C 
ATOM      2  C   UNL     1      36.000 -22.481 -16.430  0.00  0.00    +0.053 C 
ATOM      3  C   UNL     1      34.377 -22.157 -18.153  0.00  0.00    -0.004 C 
ATOM      4  C   UNL     1      36.556 -21.127 -18.319  0.00  0.00    -0.004 C 
ATOM      5  C   UNL     1      34.738 -22.724 -16.931  0.00  0.00    +0.004 C 
ATOM      6  C   UNL     1      36.917 -21.695 -17.097  0.00  0.00    +0.004 C 
ENDROOT
BRANCH   2   9
ATOM      7  O   UNL     1      35.689 -22.869 -14.139  0.00  0.00    -0.270 OA
ATOM      8  N   UNL     1      37.519 -23.880 -15.142  0.00  0.00    -0.293 N 
ATOM      9  C   ACE A   0      36.385 -23.083 -15.128  0.00  0.00    +0.246 C 
ATOM     10  H   UNL     1      38.010 -23.990 -15.989  0.00  0.00    +0.150 HD
BRANCH   8  11
ATOM     11  CA  UNL     1      38.006 -24.555 -13.961  0.00  0.00    +0.171 C 
BRANCH  11  12
ATOM     12  CB  UNL     1      37.010 -25.652 -13.525  0.00  0.00    +0.029 C 
ATOM     13  CG1 UNL     1      37.416 -26.310 -12.203  0.00  0.00    +0.002 C 
ATOM     14  CG2 UNL     1      36.779 -26.719 -14.599  0.00  0.00    +0.002 C 
ENDBRANCH  11  12
BRANCH  11  16
ATOM     15  OXT UNL     1      40.359 -24.787 -13.406  0.00  0.00    -0.248 OA
ATOM     16  C   UNL     1      39.435 -25.048 -14.167  0.00  0.00    +0.332 C 
BRANCH  16  17
ATOM     17  O   UNL     1      39.626 -25.766 -15.302  0.00  0.00    -0.479 OA
ATOM     18  H   UNL     1      39.596 -25.340 -16.136  0.00  0.00    +0.295 HD
ENDBRANCH  16  17
ENDBRANCH  11  16
ENDBRANCH   8  11
ENDBRANCH   2   9
BRANCH   1  19
ATOM     19  C   UNL     1      34.899 -20.752 -20.153  0.00  0.00    +0.031 C 
BRANCH  19  20
ATOM     20  C   UNL     1      35.753 -19.535 -20.563  0.00  0.00    +0.033 C 
BRANCH  20  26
ATOM     21  O   UNL     1      35.465 -16.426 -19.959  0.00  0.00    -0.209 OA
ATOM     22  N   UNL     1      34.611 -18.570 -23.913  0.00  0.00    -0.300 N 
ATOM     23  N   UNL     1      34.280 -16.184 -23.826  0.00  0.00    -0.264 N 
ATOM     24  N   UNL     1      34.746 -15.126 -21.728  0.00  0.00    -0.302 NA
ATOM     25  N   UNL     1      34.006 -13.902 -23.602  0.00  0.00    -0.320 N 
ATOM     26  C   UNL     1      35.279 -18.869 -21.822  0.00  0.00    +0.007 C 
ATOM     27  C   UNL     1      35.024 -17.503 -21.991  0.00  0.00    +0.120 C 
ATOM     28  C   UNL     1      34.616 -17.365 -23.290  0.00  0.00    +0.115 C 
ATOM     29  C   UNL     1      35.024 -19.517 -23.002  0.00  0.00    +0.059 C 
ATOM     30  C   UNL     1      35.105 -16.335 -21.128  0.00  0.00    +0.209 C 
ATOM     31  C   UNL     1      34.364 -15.077 -22.989  0.00  0.00    +0.248 C 
ATOM     32  H   UNL     1      34.357 -18.739 -24.850  0.00  0.00    +0.153 HD
ATOM     33  H   UNL     1      33.989 -16.104 -24.764  0.00  0.00    +0.157 HD
ATOM     34  H   UNL     1      33.726 -13.904 -24.545  0.00  0.00    +0.146 HD
ATOM     35  H   UNL     1      34.031 -13.057 -23.098  0.00  0.00    +0.146 HD
ENDBRANCH  20  26
ENDBRANCH  19  20
ENDBRANCH   1  19
TORSDOF 8
ENDMDL
MODEL 9
REMARK VINA RESULT:     -11.4      2.625     10.306
REMARK  Name = 446560
REMARK  8 active torsions:
REMARK  status: ('A' for Active; 'I' for Inactive)
REMARK    1  A    between atoms: C_1  and  C_19
REMARK    2  A    between atoms: C_2  and  C_9
REMARK    3  A    between atoms: N_8  and  CA_11
REMARK    4  A    between atoms: CA_11  and  CB_12
REMARK    5  A    between atoms: CA_11  and  C_16
REMARK    6  A    between atoms: C_16  and  O_17
REMARK    7  A    between atoms: C_19  and  C_20
REMARK    8  A    between atoms: C_20  and  C_26
REMARK                            x       y       z     vdW  Elec       q    Type
REMARK                         _______ _______ _______ _____ _____    ______ ____
ROOT
ATOM      1  C   UNL     1      34.052 -21.896 -18.728  0.00  0.00    -0.022 C 
ATOM      2  C   UNL     1      35.167 -19.929 -20.309  0.00  0.00    +0.053 C 
ATOM      3  C   UNL     1      35.438 -21.759 -18.798  0.00  0.00    -0.004 C 
ATOM      4  C   UNL     1      33.229 -21.039 -19.459  0.00  0.00    -0.004 C 
ATOM      5  C   UNL     1      36.002 -20.765 -19.596  0.00  0.00    +0.004 C 
ATOM      6  C   UNL     1      33.793 -20.044 -20.259  0.00  0.00    +0.004 C 
ENDROOT
BRANCH   2   9
ATOM      7  O   UNL     1      36.982 -18.692 -21.129  0.00  0.00    -0.270 OA
ATOM      8  N   UNL     1      34.881 -18.160 -21.955  0.00  0.00    -0.293 N 
ATOM      9  C   ACE A   0      35.766 -18.869 -21.159  0.00  0.00    +0.246 C 
ATOM     10  H   UNL     1      33.922 -18.377 -21.907  0.00  0.00    +0.150 HD
BRANCH   8  11
ATOM     11  CA  UNL     1      35.315 -17.115 -22.854  0.00  0.00    +0.171 C 
BRANCH  11  12
ATOM     12  CB  UNL     1      34.638 -17.282 -24.232  0.00  0.00    +0.029 C 
ATOM     13  CG1 UNL     1      33.770 -16.076 -24.601  0.00  0.00    +0.002 C 
ATOM     14  CG2 UNL     1      33.827 -18.576 -24.353  0.00  0.00    +0.002 C 
ENDBRANCH  11  12
BRANCH  11  16
ATOM     15  OXT UNL     1      35.321 -14.686 -22.815  0.00  0.00    -0.248 OA
ATOM     16  C   UNL     1      35.123 -15.740 -22.221  0.00  0.00    +0.332 C 
BRANCH  16  17
ATOM     17  O   UNL     1      34.760 -15.765 -20.915  0.00  0.00    -0.479 OA
ATOM     18  H   UNL     1      34.084 -15.194 -20.606  0.00  0.00    +0.295 HD
ENDBRANCH  16  17
ENDBRANCH  11  16
ENDBRANCH   8  11
ENDBRANCH   2   9
BRANCH   1  19
ATOM     19  C   UNL     1      33.450 -22.961 -17.875  0.00  0.00    +0.031 C 
BRANCH  19  20
ATOM     20  C   UNL     1      32.405 -22.444 -16.865  0.00  0.00    +0.033 C 
BRANCH  20  26
ATOM     21  O   UNL     1      35.215 -22.331 -15.382  0.00  0.00    -0.209 OA
ATOM     22  N   UNL     1      31.480 -24.626 -14.064  0.00  0.00    -0.300 N 
ATOM     23  N   UNL     1      33.445 -24.773 -12.676  0.00  0.00    -0.264 N 
ATOM     24  N   UNL     1      35.363 -23.547 -13.423  0.00  0.00    -0.302 NA
ATOM     25  N   UNL     1      35.396 -24.823 -11.442  0.00  0.00    -0.320 N 
ATOM     26  C   UNL     1      32.301 -23.290 -15.628  0.00  0.00    +0.007 C 
ATOM     27  C   UNL     1      33.315 -23.511 -14.690  0.00  0.00    +0.120 C 
ATOM     28  C   UNL     1      32.767 -24.337 -13.746  0.00  0.00    +0.115 C 
ATOM     29  C   UNL     1      31.180 -23.975 -15.240  0.00  0.00    +0.059 C 
ATOM     30  C   UNL     1      34.694 -23.069 -14.554  0.00  0.00    +0.209 C 
ATOM     31  C   UNL     1      34.762 -24.341 -12.559  0.00  0.00    +0.248 C 
ATOM     32  H   UNL     1      30.868 -25.200 -13.547  0.00  0.00    +0.153 HD
ATOM     33  H   UNL     1      33.034 -25.367 -12.008  0.00  0.00    +0.157 HD
ATOM     34  H   UNL     1      34.915 -25.414 -10.819  0.00  0.00    +0.146 HD
ATOM     35  H   UNL     1      36.333 -24.577 -11.264  0.00  0.00    +0.146 HD
ENDBRANCH  20  26
ENDBRANCH  19  20
ENDBRANCH   1  19
TORSDOF 8
ENDMDL
