MODEL 1
REMARK VINA RESULT:     -12.1      0.000      0.000
REMARK  Name = 24779724
REMARK  3 active torsions:
REMARK  status: ('A' for Active; 'I' for Inactive)
REMARK    1  A    between atoms: C_5  and  C_12
REMARK    2  A    between atoms: C_7  and  S_16
REMARK    3  A    between atoms: S_16  and  C_19
REMARK                            x       y       z     vdW  Elec       q    Type
REMARK                         _______ _______ _______ _____ _____    ______ ____
ROOT
ATOM      1  N   UNL     1      34.517 -22.078 -17.864  0.00  0.00    -0.186 N 
ATOM      2  N   UNL     1      35.494 -22.475 -17.012  0.00  0.00    -0.162 NA
ATOM      3  N   UNL     1      32.545 -21.755 -18.776  0.00  0.00    -0.126 NA
ATOM      4  N   UNL     1      33.500 -21.162 -19.576  0.00  0.00    -0.120 NA
ATOM      5  C   UNL     1      35.055 -23.138 -15.980  0.00  0.00    +0.104 C 
ATOM      6  C   UNL     1      33.165 -22.302 -17.751  0.00  0.00    +0.187 A 
ATOM      7  C   UNL     1      34.672 -21.365 -19.018  0.00  0.00    +0.217 A 
ATOM      8  C   UNL     1      33.614 -23.472 -15.737  0.00  0.00    +0.024 C 
ATOM      9  C   UNL     1      32.721 -23.037 -16.634  0.00  0.00    +0.042 C 
ENDROOT
BRANCH   5  12
ATOM     10  N   UNL     1      37.094 -24.870 -13.524  0.00  0.00    -0.208 N 
ATOM     11  N   UNL     1      37.788 -23.719 -13.513  0.00  0.00    -0.176 NA
ATOM     12  C   UNL     1      36.030 -23.624 -14.969  0.00  0.00    +0.056 C 
ATOM     13  C   UNL     1      36.031 -24.864 -14.379  0.00  0.00    +0.087 C 
ATOM     14  C   UNL     1      37.133 -22.962 -14.397  0.00  0.00    +0.121 C 
ATOM     15  C   UNL     1      37.505 -25.963 -12.676  0.00  0.00    +0.140 C 
ENDBRANCH   5  12
BRANCH   7  16
ATOM     16  S   UNL     1      36.256 -20.814 -19.630  0.00  0.00    -0.051 S 
BRANCH  16  19
ATOM     17  N   UNL     1      34.647 -16.338 -23.203  0.00  0.00    -0.248 NA
ATOM     18  C   UNL     1      34.749 -18.705 -22.768  0.00  0.00    -0.003 C 
ATOM     19  C   UNL     1      35.770 -19.481 -20.707  0.00  0.00    +0.011 C 
ATOM     20  C   UNL     1      35.002 -17.365 -22.409  0.00  0.00    +0.060 C 
ATOM     21  C   UNL     1      35.134 -19.753 -21.915  0.00  0.00    +0.060 C 
ATOM     22  C   UNL     1      36.023 -18.163 -20.347  0.00  0.00    -0.017 C 
ATOM     23  C   UNL     1      35.640 -17.121 -21.195  0.00  0.00    +0.072 C 
ATOM     24  C   UNL     1      34.108 -18.950 -23.989  0.00  0.00    -0.001 C 
ATOM     25  C   UNL     1      33.740 -17.894 -24.810  0.00  0.00    +0.020 C 
ATOM     26  C   UNL     1      34.030 -16.617 -24.373  0.00  0.00    +0.098 C 
ENDBRANCH  16  19
ENDBRANCH   7  16
TORSDOF 3
ENDMDL
MODEL 2
REMARK VINA RESULT:     -12.1      1.141      1.892
REMARK  Name = 24779724
REMARK  3 active torsions:
REMARK  status: ('A' for Active; 'I' for Inactive)
REMARK    1  A    between atoms: C_5  and  C_12
REMARK    2  A    between atoms: C_7  and  S_16
REMARK    3  A    between atoms: S_16  and  C_19
REMARK                            x       y       z     vdW  Elec       q    Type
REMARK                         _______ _______ _______ _____ _____    ______ ____
ROOT
ATOM      1  N   UNL     1      34.605 -21.673 -18.347  0.00  0.00    -0.186 N 
ATOM      2  N   UNL     1      35.576 -22.052 -17.479  0.00  0.00    -0.162 NA
ATOM      3  N   UNL     1      32.651 -21.428 -19.320  0.00  0.00    -0.126 NA
ATOM      4  N   UNL     1      33.594 -20.731 -20.048  0.00  0.00    -0.120 NA
ATOM      5  C   UNL     1      35.144 -22.799 -16.502  0.00  0.00    +0.104 C 
ATOM      6  C   UNL     1      33.268 -21.990 -18.302  0.00  0.00    +0.187 A 
ATOM      7  C   UNL     1      34.755 -20.888 -19.455  0.00  0.00    +0.217 A 
ATOM      8  C   UNL     1      33.720 -23.238 -16.335  0.00  0.00    +0.024 C 
ATOM      9  C   UNL     1      32.834 -22.813 -17.244  0.00  0.00    +0.042 C 
ENDROOT
BRANCH   5  12
ATOM     10  N   UNL     1      37.048 -24.390 -13.851  0.00  0.00    -0.208 N 
ATOM     11  N   UNL     1      37.985 -23.489 -14.192  0.00  0.00    -0.176 NA
ATOM     12  C   UNL     1      36.111 -23.276 -15.480  0.00  0.00    +0.056 C 
ATOM     13  C   UNL     1      35.906 -24.304 -14.592  0.00  0.00    +0.087 C 
ATOM     14  C   UNL     1      37.408 -22.812 -15.187  0.00  0.00    +0.121 C 
ATOM     15  C   UNL     1      37.308 -25.327 -12.784  0.00  0.00    +0.140 C 
ENDBRANCH   5  12
BRANCH   7  16
ATOM     16  S   UNL     1      36.321 -20.202 -19.973  0.00  0.00    -0.051 S 
BRANCH  16  19
ATOM     17  N   UNL     1      34.533 -15.609 -23.303  0.00  0.00    -0.248 NA
ATOM     18  C   UNL     1      35.143 -16.487 -21.144  0.00  0.00    -0.003 C 
ATOM     19  C   UNL     1      35.786 -18.820 -20.961  0.00  0.00    +0.011 C 
ATOM     20  C   UNL     1      34.938 -16.635 -22.532  0.00  0.00    +0.060 C 
ATOM     21  C   UNL     1      35.566 -17.580 -20.369  0.00  0.00    +0.060 C 
ATOM     22  C   UNL     1      35.585 -18.973 -22.327  0.00  0.00    -0.017 C 
ATOM     23  C   UNL     1      35.164 -17.887 -23.098  0.00  0.00    +0.072 C 
ATOM     24  C   UNL     1      34.915 -15.227 -20.575  0.00  0.00    -0.001 C 
ATOM     25  C   UNL     1      34.498 -14.168 -21.367  0.00  0.00    +0.020 C 
ATOM     26  C   UNL     1      34.323 -14.410 -22.715  0.00  0.00    +0.098 C 
ENDBRANCH  16  19
ENDBRANCH   7  16
TORSDOF 3
ENDMDL
MODEL 3
REMARK VINA RESULT:     -11.4      2.335      9.394
REMARK  Name = 24779724
REMARK  3 active torsions:
REMARK  status: ('A' for Active; 'I' for Inactive)
REMARK    1  A    between atoms: C_5  and  C_12
REMARK    2  A    between atoms: C_7  and  S_16
REMARK    3  A    between atoms: S_16  and  C_19
REMARK                            x       y       z     vdW  Elec       q    Type
REMARK                         _______ _______ _______ _____ _____    ______ ____
ROOT
ATOM      1  N   UNL     1      35.286 -20.051 -20.273  0.00  0.00    -0.186 N 
ATOM      2  N   UNL     1      34.585 -19.521 -21.306  0.00  0.00    -0.162 NA
ATOM      3  N   UNL     1      36.910 -20.510 -18.868  0.00  0.00    -0.126 NA
ATOM      4  N   UNL     1      35.791 -21.224 -18.492  0.00  0.00    -0.120 NA
ATOM      5  C   UNL     1      35.273 -18.688 -22.036  0.00  0.00    +0.104 C 
ATOM      6  C   UNL     1      36.597 -19.809 -19.938  0.00  0.00    +0.187 A 
ATOM      7  C   UNL     1      34.831 -20.940 -19.342  0.00  0.00    +0.217 A 
ATOM      8  C   UNL     1      36.713 -18.343 -21.800  0.00  0.00    +0.024 C 
ATOM      9  C   UNL     1      37.321 -18.918 -20.754  0.00  0.00    +0.042 C 
ENDROOT
BRANCH   5  12
ATOM     10  N   UNL     1      33.943 -16.554 -24.656  0.00  0.00    -0.208 N 
ATOM     11  N   UNL     1      33.371 -17.694 -25.083  0.00  0.00    -0.176 NA
ATOM     12  C   UNL     1      34.614 -18.036 -23.196  0.00  0.00    +0.056 C 
ATOM     13  C   UNL     1      34.698 -16.706 -23.529  0.00  0.00    +0.087 C 
ATOM     14  C   UNL     1      33.785 -18.595 -24.188  0.00  0.00    +0.121 C 
ATOM     15  C   UNL     1      33.725 -15.327 -25.383  0.00  0.00    +0.140 C 
ENDBRANCH   5  12
BRANCH   7  16
ATOM     16  S   UNL     1      33.166 -21.586 -19.327  0.00  0.00    -0.051 S 
BRANCH  16  19
ATOM     17  N   UNL     1      32.978 -24.107 -13.943  0.00  0.00    -0.248 NA
ATOM     18  C   UNL     1      31.831 -23.015 -15.759  0.00  0.00    -0.003 C 
ATOM     19  C   UNL     1      33.098 -22.340 -17.715  0.00  0.00    +0.011 C 
ATOM     20  C   UNL     1      32.998 -23.534 -15.160  0.00  0.00    +0.060 C 
ATOM     21  C   UNL     1      31.889 -22.423 -17.031  0.00  0.00    +0.060 C 
ATOM     22  C   UNL     1      34.252 -22.848 -17.132  0.00  0.00    -0.017 C 
ATOM     23  C   UNL     1      34.194 -23.437 -15.867  0.00  0.00    +0.072 C 
ATOM     24  C   UNL     1      30.627 -23.112 -15.048  0.00  0.00    -0.001 C 
ATOM     25  C   UNL     1      30.603 -23.703 -13.793  0.00  0.00    +0.020 C 
ATOM     26  C   UNL     1      31.796 -24.181 -13.290  0.00  0.00    +0.098 C 
ENDBRANCH  16  19
ENDBRANCH   7  16
TORSDOF 3
ENDMDL
MODEL 4
REMARK VINA RESULT:     -10.9      3.457     10.397
REMARK  Name = 24779724
REMARK  3 active torsions:
REMARK  status: ('A' for Active; 'I' for Inactive)
REMARK    1  A    between atoms: C_5  and  C_12
REMARK    2  A    between atoms: C_7  and  S_16
REMARK    3  A    between atoms: S_16  and  C_19
REMARK                            x       y       z     vdW  Elec       q    Type
REMARK                         _______ _______ _______ _____ _____    ______ ____
ROOT
ATOM      1  N   UNL     1      34.456 -15.791 -23.507  0.00  0.00    -0.186 N 
ATOM      2  N   UNL     1      34.400 -14.500 -23.098  0.00  0.00    -0.162 NA
ATOM      3  N   UNL     1      34.211 -17.616 -24.705  0.00  0.00    -0.126 NA
ATOM      4  N   UNL     1      34.894 -17.939 -23.550  0.00  0.00    -0.120 NA
ATOM      5  C   UNL     1      33.795 -13.708 -23.938  0.00  0.00    +0.104 C 
ATOM      6  C   UNL     1      33.953 -16.325 -24.670  0.00  0.00    +0.187 A 
ATOM      7  C   UNL     1      35.031 -16.838 -22.846  0.00  0.00    +0.217 A 
ATOM      8  C   UNL     1      33.183 -14.153 -25.233  0.00  0.00    +0.024 C 
ATOM      9  C   UNL     1      33.288 -15.449 -25.551  0.00  0.00    +0.042 C 
ENDROOT
BRANCH   5  12
ATOM     10  N   UNL     1      33.086 -10.379 -22.672  0.00  0.00    -0.208 N 
ATOM     11  N   UNL     1      33.946  -9.997 -23.632  0.00  0.00    -0.176 NA
ATOM     12  C   UNL     1      33.673 -12.265 -23.606  0.00  0.00    +0.056 C 
ATOM     13  C   UNL     1      32.888 -11.728 -22.616  0.00  0.00    +0.087 C 
ATOM     14  C   UNL     1      34.301 -11.153 -24.199  0.00  0.00    +0.121 C 
ATOM     15  C   UNL     1      32.472  -9.387 -21.823  0.00  0.00    +0.140 C 
ENDBRANCH   5  12
BRANCH   7  16
ATOM     16  S   UNL     1      35.838 -16.679 -21.260  0.00  0.00    -0.051 S 
BRANCH  16  19
ATOM     17  N   UNL     1      35.351 -22.210 -19.123  0.00  0.00    -0.248 NA
ATOM     18  C   UNL     1      34.292 -20.180 -19.876  0.00  0.00    -0.003 C 
ATOM     19  C   UNL     1      35.681 -18.334 -20.621  0.00  0.00    +0.011 C 
ATOM     20  C   UNL     1      35.438 -20.957 -19.607  0.00  0.00    +0.060 C 
ATOM     21  C   UNL     1      34.421 -18.876 -20.381  0.00  0.00    +0.060 C 
ATOM     22  C   UNL     1      36.814 -19.093 -20.358  0.00  0.00    -0.017 C 
ATOM     23  C   UNL     1      36.686 -20.390 -19.856  0.00  0.00    +0.072 C 
ATOM     24  C   UNL     1      33.037 -20.750 -19.626  0.00  0.00    -0.001 C 
ATOM     25  C   UNL     1      32.942 -22.041 -19.127  0.00  0.00    +0.020 C 
ATOM     26  C   UNL     1      34.120 -22.722 -18.895  0.00  0.00    +0.098 C 
ENDBRANCH  16  19
ENDBRANCH   7  16
TORSDOF 3
ENDMDL
MODEL 5
REMARK VINA RESULT:     -10.7      6.869     12.669
REMARK  Name = 24779724
REMARK  3 active torsions:
REMARK  status: ('A' for Active; 'I' for Inactive)
REMARK    1  A    between atoms: C_5  and  C_12
REMARK    2  A    between atoms: C_7  and  S_16
REMARK    3  A    between atoms: S_16  and  C_19
REMARK                            x       y       z     vdW  Elec       q    Type
REMARK                         _______ _______ _______ _____ _____    ______ ____
ROOT
ATOM      1  N   UNL     1      32.526 -11.358 -21.786  0.00  0.00    -0.186 N 
ATOM      2  N   UNL     1      32.641 -10.167 -22.424  0.00  0.00    -0.162 NA
ATOM      3  N   UNL     1      31.972 -12.900 -20.323  0.00  0.00    -0.126 NA
ATOM      4  N   UNL     1      32.732 -13.488 -21.313  0.00  0.00    -0.120 NA
ATOM      5  C   UNL     1      32.023  -9.188 -21.825  0.00  0.00    +0.104 C 
ATOM      6  C   UNL     1      31.854 -11.622 -20.616  0.00  0.00    +0.187 A 
ATOM      7  C   UNL     1      33.056 -12.554 -22.178  0.00  0.00    +0.217 A 
ATOM      8  C   UNL     1      31.268  -9.324 -20.537  0.00  0.00    +0.024 C 
ATOM      9  C   UNL     1      31.210 -10.541 -19.981  0.00  0.00    +0.042 C 
ENDROOT
BRANCH   5  12
ATOM     10  N   UNL     1      31.527  -5.823 -23.096  0.00  0.00    -0.208 N 
ATOM     11  N   UNL     1      32.799  -5.957 -23.511  0.00  0.00    -0.176 NA
ATOM     12  C   UNL     1      32.069  -7.831 -22.428  0.00  0.00    +0.056 C 
ATOM     13  C   UNL     1      31.043  -6.918 -22.442  0.00  0.00    +0.087 C 
ATOM     14  C   UNL     1      33.125  -7.185 -23.100  0.00  0.00    +0.121 C 
ATOM     15  C   UNL     1      30.812  -4.598 -23.360  0.00  0.00    +0.140 C 
ENDBRANCH   5  12
BRANCH   7  16
ATOM     16  S   UNL     1      34.035 -12.761 -23.657  0.00  0.00    -0.051 S 
BRANCH  16  19
ATOM     17  N   UNL     1      34.247 -18.689 -24.113  0.00  0.00    -0.248 NA
ATOM     18  C   UNL     1      34.876 -16.678 -22.943  0.00  0.00    -0.003 C 
ATOM     19  C   UNL     1      34.104 -14.536 -23.784  0.00  0.00    +0.011 C 
ATOM     20  C   UNL     1      34.211 -17.349 -23.991  0.00  0.00    +0.060 C 
ATOM     21  C   UNL     1      34.818 -15.278 -22.847  0.00  0.00    +0.060 C 
ATOM     22  C   UNL     1      33.447 -15.190 -24.819  0.00  0.00    -0.017 C 
ATOM     23  C   UNL     1      33.505 -16.582 -24.915  0.00  0.00    +0.072 C 
ATOM     24  C   UNL     1      35.586 -17.449 -22.014  0.00  0.00    -0.001 C 
ATOM     25  C   UNL     1      35.625 -18.831 -22.136  0.00  0.00    +0.020 C 
ATOM     26  C   UNL     1      34.944 -19.396 -23.195  0.00  0.00    +0.098 C 
ENDBRANCH  16  19
ENDBRANCH   7  16
TORSDOF 3
ENDMDL
MODEL 6
REMARK VINA RESULT:     -10.6      2.863      9.795
REMARK  Name = 24779724
REMARK  3 active torsions:
REMARK  status: ('A' for Active; 'I' for Inactive)
REMARK    1  A    between atoms: C_5  and  C_12
REMARK    2  A    between atoms: C_7  and  S_16
REMARK    3  A    between atoms: S_16  and  C_19
REMARK                            x       y       z     vdW  Elec       q    Type
REMARK                         _______ _______ _______ _____ _____    ______ ____
ROOT
ATOM      1  N   UNL     1      34.626 -17.530 -23.416  0.00  0.00    -0.186 N 
ATOM      2  N   UNL     1      34.680 -16.274 -22.907  0.00  0.00    -0.162 NA
ATOM      3  N   UNL     1      34.199 -19.232 -24.737  0.00  0.00    -0.126 NA
ATOM      4  N   UNL     1      34.909 -19.691 -23.646  0.00  0.00    -0.120 NA
ATOM      5  C   UNL     1      34.094 -15.379 -23.652  0.00  0.00    +0.104 C 
ATOM      6  C   UNL     1      34.035 -17.934 -24.590  0.00  0.00    +0.187 A 
ATOM      7  C   UNL     1      35.154 -18.662 -22.866  0.00  0.00    +0.217 A 
ATOM      8  C   UNL     1      33.395 -15.677 -24.944  0.00  0.00    +0.024 C 
ATOM      9  C   UNL     1      33.395 -16.948 -25.366  0.00  0.00    +0.042 C 
ENDROOT
BRANCH   5  12
ATOM     10  N   UNL     1      33.943 -11.783 -23.173  0.00  0.00    -0.208 N 
ATOM     11  N   UNL     1      34.238 -12.093 -21.899  0.00  0.00    -0.176 NA
ATOM     12  C   UNL     1      34.090 -13.962 -23.205  0.00  0.00    +0.056 C 
ATOM     13  C   UNL     1      33.843 -12.867 -23.995  0.00  0.00    +0.087 C 
ATOM     14  C   UNL     1      34.326 -13.425 -21.924  0.00  0.00    +0.121 C 
ATOM     15  C   UNL     1      33.764 -10.401 -23.552  0.00  0.00    +0.140 C 
ENDBRANCH   5  12
BRANCH   7  16
ATOM     16  S   UNL     1      36.040 -18.685 -21.316  0.00  0.00    -0.051 S 
BRANCH  16  19
ATOM     17  N   UNL     1      32.553 -22.247 -18.069  0.00  0.00    -0.248 NA
ATOM     18  C   UNL     1      34.758 -21.434 -18.603  0.00  0.00    -0.003 C 
ATOM     19  C   UNL     1      35.005 -19.755 -20.338  0.00  0.00    +0.011 C 
ATOM     20  C   UNL     1      33.360 -21.449 -18.793  0.00  0.00    +0.060 C 
ATOM     21  C   UNL     1      35.570 -20.588 -19.376  0.00  0.00    +0.060 C 
ATOM     22  C   UNL     1      33.630 -19.764 -20.530  0.00  0.00    -0.017 C 
ATOM     23  C   UNL     1      32.822 -20.605 -19.761  0.00  0.00    +0.072 C 
ATOM     24  C   UNL     1      35.299 -22.283 -17.629  0.00  0.00    -0.001 C 
ATOM     25  C   UNL     1      34.471 -23.107 -16.881  0.00  0.00    +0.020 C 
ATOM     26  C   UNL     1      33.116 -23.051 -17.139  0.00  0.00    +0.098 C 
ENDBRANCH  16  19
ENDBRANCH   7  16
TORSDOF 3
ENDMDL
MODEL 7
REMARK VINA RESULT:     -10.2      6.758     12.700
REMARK  Name = 24779724
REMARK  3 active torsions:
REMARK  status: ('A' for Active; 'I' for Inactive)
REMARK    1  A    between atoms: C_5  and  C_12
REMARK    2  A    between atoms: C_7  and  S_16
REMARK    3  A    between atoms: S_16  and  C_19
REMARK                            x       y       z     vdW  Elec       q    Type
REMARK                         _______ _______ _______ _____ _____    ______ ____
ROOT
ATOM      1  N   UNL     1      32.467 -11.143 -21.784  0.00  0.00    -0.186 N 
ATOM      2  N   UNL     1      32.799 -10.013 -22.456  0.00  0.00    -0.162 NA
ATOM      3  N   UNL     1      31.629 -12.513 -20.285  0.00  0.00    -0.126 NA
ATOM      4  N   UNL     1      32.287 -13.259 -21.242  0.00  0.00    -0.120 NA
ATOM      5  C   UNL     1      32.355  -8.921 -21.899  0.00  0.00    +0.104 C 
ATOM      6  C   UNL     1      31.743 -11.245 -20.620  0.00  0.00    +0.187 A 
ATOM      7  C   UNL     1      32.783 -12.426 -22.128  0.00  0.00    +0.217 A 
ATOM      8  C   UNL     1      31.570  -8.879 -20.623  0.00  0.00    +0.024 C 
ATOM      9  C   UNL     1      31.291 -10.047 -20.032  0.00  0.00    +0.042 C 
ENDROOT
BRANCH   5  12
ATOM     10  N   UNL     1      32.494  -5.799 -23.748  0.00  0.00    -0.208 N 
ATOM     11  N   UNL     1      33.697  -5.682 -23.161  0.00  0.00    -0.176 NA
ATOM     12  C   UNL     1      32.649  -7.615 -22.543  0.00  0.00    +0.056 C 
ATOM     13  C   UNL     1      31.826  -6.940 -23.412  0.00  0.00    +0.087 C 
ATOM     14  C   UNL     1      33.786  -6.793 -22.425  0.00  0.00    +0.121 C 
ATOM     15  C   UNL     1      32.029  -4.766 -24.642  0.00  0.00    +0.140 C 
ENDBRANCH   5  12
BRANCH   7  16
ATOM     16  S   UNL     1      33.731 -12.852 -23.581  0.00  0.00    -0.051 S 
BRANCH  16  19
ATOM     17  N   UNL     1      35.346 -18.432 -22.297  0.00  0.00    -0.248 NA
ATOM     18  C   UNL     1      34.250 -16.883 -23.783  0.00  0.00    -0.003 C 
ATOM     19  C   UNL     1      34.210 -14.526 -23.206  0.00  0.00    +0.011 C 
ATOM     20  C   UNL     1      34.971 -17.176 -22.607  0.00  0.00    +0.060 C 
ATOM     21  C   UNL     1      33.875 -15.561 -24.074  0.00  0.00    +0.060 C 
ATOM     22  C   UNL     1      34.920 -14.808 -22.046  0.00  0.00    -0.017 C 
ATOM     23  C   UNL     1      35.293 -16.122 -21.756  0.00  0.00    +0.072 C 
ATOM     24  C   UNL     1      33.926 -17.944 -24.639  0.00  0.00    -0.001 C 
ATOM     25  C   UNL     1      34.311 -19.239 -24.323  0.00  0.00    +0.020 C 
ATOM     26  C   UNL     1      35.013 -19.427 -23.150  0.00  0.00    +0.098 C 
ENDBRANCH  16  19
ENDBRANCH   7  16
TORSDOF 3
ENDMDL
MODEL 8
REMARK VINA RESULT:     -10.2      1.830      9.316
REMARK  Name = 24779724
REMARK  3 active torsions:
REMARK  status: ('A' for Active; 'I' for Inactive)
REMARK    1  A    between atoms: C_5  and  C_12
REMARK    2  A    between atoms: C_7  and  S_16
REMARK    3  A    between atoms: S_16  and  C_19
REMARK                            x       y       z     vdW  Elec       q    Type
REMARK                         _______ _______ _______ _____ _____    ______ ____
ROOT
ATOM      1  N   UNL     1      34.980 -21.716 -18.064  0.00  0.00    -0.186 N 
ATOM      2  N   UNL     1      35.546 -20.798 -18.885  0.00  0.00    -0.162 NA
ATOM      3  N   UNL     1      33.530 -23.091 -17.153  0.00  0.00    -0.126 NA
ATOM      4  N   UNL     1      34.712 -23.170 -16.445  0.00  0.00    -0.120 NA
ATOM      5  C   UNL     1      34.752 -20.372 -19.826  0.00  0.00    +0.104 C 
ATOM      6  C   UNL     1      33.700 -22.217 -18.122  0.00  0.00    +0.187 A 
ATOM      7  C   UNL     1      35.566 -22.341 -17.001  0.00  0.00    +0.217 A 
ATOM      8  C   UNL     1      33.330 -20.815 -20.000  0.00  0.00    +0.024 C 
ATOM      9  C   UNL     1      32.858 -21.726 -19.139  0.00  0.00    +0.042 C 
ENDROOT
BRANCH   5  12
ATOM     10  N   UNL     1      35.402 -17.956 -22.458  0.00  0.00    -0.208 N 
ATOM     11  N   UNL     1      36.618 -17.893 -21.888  0.00  0.00    -0.176 NA
ATOM     12  C   UNL     1      35.258 -19.367 -20.795  0.00  0.00    +0.056 C 
ATOM     13  C   UNL     1      34.551 -18.825 -21.841  0.00  0.00    +0.087 C 
ATOM     14  C   UNL     1      36.524 -18.755 -20.874  0.00  0.00    +0.121 C 
ATOM     15  C   UNL     1      35.109 -17.145 -23.615  0.00  0.00    +0.140 C 
ENDBRANCH   5  12
BRANCH   7  16
ATOM     16  S   UNL     1      37.251 -22.042 -16.488  0.00  0.00    -0.051 S 
BRANCH  16  19
ATOM     17  N   UNL     1      37.613 -25.390 -11.585  0.00  0.00    -0.248 NA
ATOM     18  C   UNL     1      36.532 -23.615 -12.805  0.00  0.00    -0.003 C 
ATOM     19  C   UNL     1      37.350 -23.039 -15.016  0.00  0.00    +0.011 C 
ATOM     20  C   UNL     1      37.513 -24.622 -12.686  0.00  0.00    +0.060 C 
ATOM     21  C   UNL     1      36.458 -22.832 -13.968  0.00  0.00    +0.060 C 
ATOM     22  C   UNL     1      38.319 -24.028 -14.905  0.00  0.00    -0.017 C 
ATOM     23  C   UNL     1      38.393 -24.807 -13.749  0.00  0.00    +0.072 C 
ATOM     24  C   UNL     1      35.647 -23.428 -11.735  0.00  0.00    -0.001 C 
ATOM     25  C   UNL     1      35.746 -24.219 -10.599  0.00  0.00    +0.020 C 
ATOM     26  C   UNL     1      36.739 -25.178 -10.575  0.00  0.00    +0.098 C 
ENDBRANCH  16  19
ENDBRANCH   7  16
TORSDOF 3
ENDMDL
MODEL 9
REMARK VINA RESULT:     -10.1      4.301      7.712
REMARK  Name = 24779724
REMARK  3 active torsions:
REMARK  status: ('A' for Active; 'I' for Inactive)
REMARK    1  A    between atoms: C_5  and  C_12
REMARK    2  A    between atoms: C_7  and  S_16
REMARK    3  A    between atoms: S_16  and  C_19
REMARK                            x       y       z     vdW  Elec       q    Type
REMARK                         _______ _______ _______ _____ _____    ______ ____
ROOT
ATOM      1  N   UNL     1      34.421 -16.847 -23.799  0.00  0.00    -0.186 N 
ATOM      2  N   UNL     1      35.152 -17.259 -22.733  0.00  0.00    -0.162 NA
ATOM      3  N   UNL     1      33.047 -16.840 -25.513  0.00  0.00    -0.126 NA
ATOM      4  N   UNL     1      33.550 -15.565 -25.349  0.00  0.00    -0.120 NA
ATOM      5  C   UNL     1      35.000 -18.521 -22.448  0.00  0.00    +0.104 C 
ATOM      6  C   UNL     1      33.575 -17.601 -24.578  0.00  0.00    +0.187 A 
ATOM      7  C   UNL     1      34.370 -15.587 -24.323  0.00  0.00    +0.217 A 
ATOM      8  C   UNL     1      34.128 -19.466 -23.219  0.00  0.00    +0.024 C 
ATOM      9  C   UNL     1      33.445 -18.967 -24.257  0.00  0.00    +0.042 C 
ENDROOT
BRANCH   5  12
ATOM     10  N   UNL     1      36.326 -20.330 -19.592  0.00  0.00    -0.208 N 
ATOM     11  N   UNL     1      37.341 -19.456 -19.703  0.00  0.00    -0.176 NA
ATOM     12  C   UNL     1      35.745 -19.093 -21.297  0.00  0.00    +0.056 C 
ATOM     13  C   UNL     1      35.344 -20.154 -20.523  0.00  0.00    +0.087 C 
ATOM     14  C   UNL     1      36.981 -18.703 -20.745  0.00  0.00    +0.121 C 
ATOM     15  C   UNL     1      36.352 -21.331 -18.553  0.00  0.00    +0.140 C 
ENDBRANCH   5  12
BRANCH   7  16
ATOM     16  S   UNL     1      35.299 -14.209 -23.668  0.00  0.00    -0.051 S 
BRANCH  16  19
ATOM     17  N   UNL     1      31.119 -11.413 -20.489  0.00  0.00    -0.248 NA
ATOM     18  C   UNL     1      32.761 -11.360 -22.253  0.00  0.00    -0.003 C 
ATOM     19  C   UNL     1      34.049 -13.363 -22.723  0.00  0.00    +0.011 C 
ATOM     20  C   UNL     1      32.068 -12.027 -21.221  0.00  0.00    +0.060 C 
ATOM     21  C   UNL     1      33.745 -12.032 -22.996  0.00  0.00    +0.060 C 
ATOM     22  C   UNL     1      33.371 -14.026 -21.708  0.00  0.00    -0.017 C 
ATOM     23  C   UNL     1      32.392 -13.358 -20.969  0.00  0.00    +0.072 C 
ATOM     24  C   UNL     1      32.435 -10.021 -22.506  0.00  0.00    -0.001 C 
ATOM     25  C   UNL     1      31.458  -9.385 -21.754  0.00  0.00    +0.020 C 
ATOM     26  C   UNL     1      30.835 -10.120 -20.766  0.00  0.00    +0.098 C 
ENDBRANCH  16  19
ENDBRANCH   7  16
TORSDOF 3
ENDMDL
