MODEL 1
REMARK VINA RESULT:     -11.8      0.000      0.000
REMARK  Name = 11740318
REMARK  5 active torsions:
REMARK  status: ('A' for Active; 'I' for Inactive)
REMARK    1  A    between atoms: N_1  and  C_20
REMARK    2  A    between atoms: C_2  and  O_8
REMARK    3  A    between atoms: O_8  and  C_9
REMARK    4  A    between atoms: C_14  and  N_15
REMARK    5  A    between atoms: C_20  and  C_23
REMARK                            x       y       z     vdW  Elec       q    Type
REMARK                         _______ _______ _______ _____ _____    ______ ____
ROOT
ATOM      1  N   UNL     1      33.929 -23.295 -13.843  0.00  0.00    +0.392 N 
ATOM      2  C   UNL     1      33.839 -22.844 -16.275  0.00  0.00    +0.145 C 
ATOM      3  C   UNL     1      34.600 -23.518 -15.130  0.00  0.00    -0.032 C 
ATOM      4  C   UNL     1      32.388 -23.316 -16.325  0.00  0.00    +0.039 C 
ATOM      5  C   UNL     1      31.727 -23.152 -14.963  0.00  0.00    -0.019 C 
ATOM      6  C   UNL     1      32.555 -23.816 -13.861  0.00  0.00    -0.077 C 
ATOM      7  H   UNL     1      33.881 -22.288 -13.684  0.00  0.00    -0.079 HD
ENDROOT
BRANCH   2   8
ATOM      8  O   UNL     1      34.460 -23.160 -17.516  0.00  0.00    -0.481 OA
BRANCH   8   9
ATOM      9  C   UNL     1      34.604 -22.134 -18.412  0.00  0.00    +0.138 C 
ATOM     10  C   UNL     1      33.476 -21.555 -18.983  0.00  0.00    +0.038 C 
ATOM     11  C   UNL     1      35.876 -21.680 -18.741  0.00  0.00    +0.038 C 
ATOM     12  C   UNL     1      33.622 -20.509 -19.896  0.00  0.00    +0.018 C 
ATOM     13  C   UNL     1      36.023 -20.635 -19.653  0.00  0.00    +0.018 C 
ATOM     14  C   UNL     1      34.896 -20.050 -20.230  0.00  0.00    +0.057 C 
BRANCH  14  15
ATOM     15  N   UNL     1      35.041 -19.013 -21.134  0.00  0.00    -0.246 N 
ATOM     16  N   UNL     1      34.954 -17.888 -23.057  0.00  0.00    -0.224 NA
ATOM     17  C   UNL     1      35.556 -17.768 -20.875  0.00  0.00    +0.092 C 
ATOM     18  C   UNL     1      34.694 -19.031 -22.462  0.00  0.00    +0.172 C 
ATOM     19  C   UNL     1      35.491 -17.096 -22.073  0.00  0.00    +0.117 C 
ENDBRANCH  14  15
ENDBRANCH   8   9
ENDBRANCH   2   8
BRANCH   1  20
ATOM     20  C   UNL     1      34.693 -23.904 -12.754  0.00  0.00    -0.050 C 
BRANCH  20  23
ATOM     21  O   UNL     1      39.565 -24.623 -13.118  0.00  0.00    -0.435 OA
ATOM     22  O   UNL     1      39.292 -26.524 -14.573  0.00  0.00    -0.435 OA
ATOM     23  C   UNL     1      35.909 -24.632 -13.263  0.00  0.00    -0.040 C 
ATOM     24  C   UNL     1      37.173 -24.195 -12.881  0.00  0.00    +0.034 C 
ATOM     25  C   UNL     1      35.740 -25.736 -14.107  0.00  0.00    -0.003 C 
ATOM     26  C   UNL     1      38.256 -24.895 -13.372  0.00  0.00    +0.176 C 
ATOM     27  C   UNL     1      36.853 -26.427 -14.590  0.00  0.00    +0.040 C 
ATOM     28  C   UNL     1      38.100 -25.981 -14.204  0.00  0.00    +0.176 C 
ATOM     29  C   UNL     1      40.216 -25.659 -13.880  0.00  0.00    +0.429 C 
ENDBRANCH  20  23
ENDBRANCH   1  20
TORSDOF 5
ENDMDL
MODEL 2
REMARK VINA RESULT:     -11.8      4.664      8.900
REMARK  Name = 11740318
REMARK  5 active torsions:
REMARK  status: ('A' for Active; 'I' for Inactive)
REMARK    1  A    between atoms: N_1  and  C_20
REMARK    2  A    between atoms: C_2  and  O_8
REMARK    3  A    between atoms: O_8  and  C_9
REMARK    4  A    between atoms: C_14  and  N_15
REMARK    5  A    between atoms: C_20  and  C_23
REMARK                            x       y       z     vdW  Elec       q    Type
REMARK                         _______ _______ _______ _____ _____    ______ ____
ROOT
ATOM      1  N   UNL     1      34.916 -18.710 -22.017  0.00  0.00    +0.392 N 
ATOM      2  C   UNL     1      34.629 -16.483 -23.058  0.00  0.00    +0.145 C 
ATOM      3  C   UNL     1      35.448 -17.344 -22.093  0.00  0.00    -0.032 C 
ATOM      4  C   UNL     1      34.561 -17.121 -24.443  0.00  0.00    +0.039 C 
ATOM      5  C   UNL     1      34.082 -18.563 -24.343  0.00  0.00    -0.019 C 
ATOM      6  C   UNL     1      34.919 -19.356 -23.337  0.00  0.00    -0.077 C 
ATOM      7  H   UNL     1      33.949 -18.653 -21.698  0.00  0.00    -0.079 HD
ENDROOT
BRANCH   2   8
ATOM      8  O   UNL     1      35.226 -15.197 -23.182  0.00  0.00    -0.481 OA
BRANCH   8   9
ATOM      9  C   UNL     1      34.502 -14.133 -22.714  0.00  0.00    +0.138 C 
ATOM     10  C   UNL     1      34.053 -14.131 -21.397  0.00  0.00    +0.038 C 
ATOM     11  C   UNL     1      34.222 -13.065 -23.559  0.00  0.00    +0.038 C 
ATOM     12  C   UNL     1      33.315 -13.047 -20.920  0.00  0.00    +0.018 C 
ATOM     13  C   UNL     1      33.484 -11.981 -23.082  0.00  0.00    +0.018 C 
ATOM     14  C   UNL     1      33.031 -11.972 -21.763  0.00  0.00    +0.057 C 
BRANCH  14  15
ATOM     15  N   UNL     1      32.300 -10.898 -21.290  0.00  0.00    -0.246 N 
ATOM     16  N   UNL     1      30.958  -9.699 -19.974  0.00  0.00    -0.224 NA
ATOM     17  C   UNL     1      32.212  -9.654 -21.862  0.00  0.00    +0.092 C 
ATOM     18  C   UNL     1      31.527 -10.870 -20.156  0.00  0.00    +0.172 C 
ATOM     19  C   UNL     1      31.381  -8.937 -21.034  0.00  0.00    +0.117 C 
ENDBRANCH  14  15
ENDBRANCH   8   9
ENDBRANCH   2   8
BRANCH   1  20
ATOM     20  C   UNL     1      35.680 -19.505 -21.056  0.00  0.00    -0.050 C 
BRANCH  20  23
ATOM     21  O   UNL     1      34.839 -22.867 -17.539  0.00  0.00    -0.435 OA
ATOM     22  O   UNL     1      32.454 -22.535 -17.631  0.00  0.00    -0.435 OA
ATOM     23  C   UNL     1      34.782 -20.304 -20.149  0.00  0.00    -0.040 C 
ATOM     24  C   UNL     1      35.346 -21.221 -19.269  0.00  0.00    +0.034 C 
ATOM     25  C   UNL     1      33.398 -20.104 -20.211  0.00  0.00    -0.003 C 
ATOM     26  C   UNL     1      34.483 -21.928 -18.458  0.00  0.00    +0.176 C 
ATOM     27  C   UNL     1      32.546 -20.832 -19.378  0.00  0.00    +0.040 C 
ATOM     28  C   UNL     1      33.121 -21.739 -18.511  0.00  0.00    +0.176 C 
ATOM     29  C   UNL     1      33.548 -23.246 -17.018  0.00  0.00    +0.429 C 
ENDBRANCH  20  23
ENDBRANCH   1  20
TORSDOF 5
ENDMDL
MODEL 3
REMARK VINA RESULT:     -11.2      4.891      9.232
REMARK  Name = 11740318
REMARK  5 active torsions:
REMARK  status: ('A' for Active; 'I' for Inactive)
REMARK    1  A    between atoms: N_1  and  C_20
REMARK    2  A    between atoms: C_2  and  O_8
REMARK    3  A    between atoms: O_8  and  C_9
REMARK    4  A    between atoms: C_14  and  N_15
REMARK    5  A    between atoms: C_20  and  C_23
REMARK                            x       y       z     vdW  Elec       q    Type
REMARK                         _______ _______ _______ _____ _____    ______ ____
ROOT
ATOM      1  N   UNL     1      35.181 -18.115 -22.197  0.00  0.00    +0.392 N 
ATOM      2  C   UNL     1      34.263 -16.211 -23.487  0.00  0.00    +0.145 C 
ATOM      3  C   UNL     1      35.410 -16.725 -22.611  0.00  0.00    -0.032 C 
ATOM      4  C   UNL     1      34.046 -17.116 -24.697  0.00  0.00    +0.039 C 
ATOM      5  C   UNL     1      33.888 -18.565 -24.259  0.00  0.00    -0.019 C 
ATOM      6  C   UNL     1      35.047 -19.002 -23.360  0.00  0.00    -0.077 C 
ATOM      7  H   UNL     1      34.304 -18.146 -21.676  0.00  0.00    -0.079 HD
ENDROOT
BRANCH   2   8
ATOM      8  O   UNL     1      34.561 -14.899 -23.950  0.00  0.00    -0.481 OA
BRANCH   8   9
ATOM      9  C   UNL     1      33.987 -13.860 -23.267  0.00  0.00    +0.138 C 
ATOM     10  C   UNL     1      33.452 -14.078 -22.002  0.00  0.00    +0.038 C 
ATOM     11  C   UNL     1      33.946 -12.595 -23.845  0.00  0.00    +0.038 C 
ATOM     12  C   UNL     1      32.867 -13.019 -21.307  0.00  0.00    +0.018 C 
ATOM     13  C   UNL     1      33.361 -11.537 -23.150  0.00  0.00    +0.018 C 
ATOM     14  C   UNL     1      32.823 -11.749 -21.880  0.00  0.00    +0.057 C 
BRANCH  14  15
ATOM     15  N   UNL     1      32.244 -10.698 -21.191  0.00  0.00    -0.246 N 
ATOM     16  N   UNL     1      31.162  -9.598 -19.583  0.00  0.00    -0.224 NA
ATOM     17  C   UNL     1      32.204  -9.385 -21.584  0.00  0.00    +0.092 C 
ATOM     18  C   UNL     1      31.602 -10.770 -19.979  0.00  0.00    +0.172 C 
ATOM     19  C   UNL     1      31.534  -8.730 -20.579  0.00  0.00    +0.117 C 
ENDBRANCH  14  15
ENDBRANCH   8   9
ENDBRANCH   2   8
BRANCH   1  20
ATOM     20  C   UNL     1      36.261 -18.573 -21.324  0.00  0.00    -0.050 C 
BRANCH  20  23
ATOM     21  O   UNL     1      32.799 -21.279 -19.072  0.00  0.00    -0.435 OA
ATOM     22  O   UNL     1      34.434 -22.598 -17.891  0.00  0.00    -0.435 OA
ATOM     23  C   UNL     1      35.805 -19.664 -20.392  0.00  0.00    -0.040 C 
ATOM     24  C   UNL     1      34.443 -19.894 -20.229  0.00  0.00    +0.034 C 
ATOM     25  C   UNL     1      36.763 -20.425 -19.711  0.00  0.00    -0.003 C 
ATOM     26  C   UNL     1      34.074 -20.905 -19.366  0.00  0.00    +0.176 C 
ATOM     27  C   UNL     1      36.362 -21.442 -18.842  0.00  0.00    +0.040 C 
ATOM     28  C   UNL     1      35.008 -21.658 -18.690  0.00  0.00    +0.176 C 
ATOM     29  C   UNL     1      33.034 -22.353 -18.139  0.00  0.00    +0.429 C 
ENDBRANCH  20  23
ENDBRANCH   1  20
TORSDOF 5
ENDMDL
MODEL 4
REMARK VINA RESULT:     -10.9      3.401      5.896
REMARK  Name = 11740318
REMARK  5 active torsions:
REMARK  status: ('A' for Active; 'I' for Inactive)
REMARK    1  A    between atoms: N_1  and  C_20
REMARK    2  A    between atoms: C_2  and  O_8
REMARK    3  A    between atoms: O_8  and  C_9
REMARK    4  A    between atoms: C_14  and  N_15
REMARK    5  A    between atoms: C_20  and  C_23
REMARK                            x       y       z     vdW  Elec       q    Type
REMARK                         _______ _______ _______ _____ _____    ______ ____
ROOT
ATOM      1  N   UNL     1      35.628 -20.545 -19.094  0.00  0.00    +0.392 N 
ATOM      2  C   UNL     1      35.170 -18.712 -20.695  0.00  0.00    +0.145 C 
ATOM      3  C   UNL     1      36.198 -19.715 -20.162  0.00  0.00    -0.032 C 
ATOM      4  C   UNL     1      33.904 -19.421 -21.168  0.00  0.00    +0.039 C 
ATOM      5  C   UNL     1      33.366 -20.338 -20.078  0.00  0.00    -0.019 C 
ATOM      6  C   UNL     1      34.452 -21.288 -19.568  0.00  0.00    -0.077 C 
ATOM      7  H   UNL     1      35.325 -19.924 -18.343  0.00  0.00    -0.079 HD
ENDROOT
BRANCH   2   8
ATOM      8  O   UNL     1      35.723 -17.993 -21.791  0.00  0.00    -0.481 OA
BRANCH   8   9
ATOM      9  C   UNL     1      35.254 -16.722 -21.992  0.00  0.00    +0.138 C 
ATOM     10  C   UNL     1      34.997 -16.279 -23.285  0.00  0.00    +0.038 C 
ATOM     11  C   UNL     1      35.040 -15.885 -20.902  0.00  0.00    +0.038 C 
ATOM     12  C   UNL     1      34.519 -14.984 -23.491  0.00  0.00    +0.018 C 
ATOM     13  C   UNL     1      34.563 -14.591 -21.107  0.00  0.00    +0.018 C 
ATOM     14  C   UNL     1      34.302 -14.141 -22.402  0.00  0.00    +0.057 C 
BRANCH  14  15
ATOM     15  N   UNL     1      33.828 -12.857 -22.605  0.00  0.00    -0.246 N 
ATOM     16  N   UNL     1      32.619 -11.006 -22.320  0.00  0.00    -0.224 NA
ATOM     17  C   UNL     1      34.252 -11.970 -23.561  0.00  0.00    +0.092 C 
ATOM     18  C   UNL     1      32.843 -12.226 -21.886  0.00  0.00    +0.172 C 
ATOM     19  C   UNL     1      33.494 -10.841 -23.364  0.00  0.00    +0.117 C 
ENDBRANCH  14  15
ENDBRANCH   8   9
ENDBRANCH   2   8
BRANCH   1  20
ATOM     20  C   UNL     1      36.636 -21.463 -18.565  0.00  0.00    -0.050 C 
BRANCH  20  23
ATOM     21  O   UNL     1      37.548 -22.687 -13.870  0.00  0.00    -0.435 OA
ATOM     22  O   UNL     1      35.301 -23.486 -13.520  0.00  0.00    -0.435 OA
ATOM     23  C   UNL     1      36.242 -22.014 -17.220  0.00  0.00    -0.040 C 
ATOM     24  C   UNL     1      37.185 -22.052 -16.199  0.00  0.00    +0.034 C 
ATOM     25  C   UNL     1      34.935 -22.475 -17.028  0.00  0.00    -0.003 C 
ATOM     26  C   UNL     1      36.777 -22.564 -14.985  0.00  0.00    +0.176 C 
ATOM     27  C   UNL     1      34.548 -22.989 -15.789  0.00  0.00    +0.040 C 
ATOM     28  C   UNL     1      35.494 -23.021 -14.785  0.00  0.00    +0.176 C 
ATOM     29  C   UNL     1      36.606 -23.270 -12.946  0.00  0.00    +0.429 C 
ENDBRANCH  20  23
ENDBRANCH   1  20
TORSDOF 5
ENDMDL
MODEL 5
REMARK VINA RESULT:     -10.7      6.025     10.389
REMARK  Name = 11740318
REMARK  5 active torsions:
REMARK  status: ('A' for Active; 'I' for Inactive)
REMARK    1  A    between atoms: N_1  and  C_20
REMARK    2  A    between atoms: C_2  and  O_8
REMARK    3  A    between atoms: O_8  and  C_9
REMARK    4  A    between atoms: C_14  and  N_15
REMARK    5  A    between atoms: C_20  and  C_23
REMARK                            x       y       z     vdW  Elec       q    Type
REMARK                         _______ _______ _______ _____ _____    ______ ____
ROOT
ATOM      1  N   UNL     1      35.652 -16.558 -22.002  0.00  0.00    +0.392 N 
ATOM      2  C   UNL     1      34.576 -14.377 -22.466  0.00  0.00    +0.145 C 
ATOM      3  C   UNL     1      34.768 -15.828 -22.919  0.00  0.00    -0.032 C 
ATOM      4  C   UNL     1      34.054 -14.312 -21.033  0.00  0.00    +0.039 C 
ATOM      5  C   UNL     1      34.935 -15.137 -20.106  0.00  0.00    -0.019 C 
ATOM      6  C   UNL     1      35.114 -16.562 -20.634  0.00  0.00    -0.077 C 
ATOM      7  H   UNL     1      36.551 -16.078 -21.984  0.00  0.00    -0.079 HD
ENDROOT
BRANCH   2   8
ATOM      8  O   UNL     1      33.640 -13.727 -23.319  0.00  0.00    -0.481 OA
BRANCH   8   9
ATOM      9  C   UNL     1      33.467 -12.382 -23.131  0.00  0.00    +0.138 C 
ATOM     10  C   UNL     1      34.228 -11.480 -23.867  0.00  0.00    +0.038 C 
ATOM     11  C   UNL     1      32.532 -11.929 -22.207  0.00  0.00    +0.038 C 
ATOM     12  C   UNL     1      34.052 -10.108 -23.676  0.00  0.00    +0.018 C 
ATOM     13  C   UNL     1      32.356 -10.559 -22.016  0.00  0.00    +0.018 C 
ATOM     14  C   UNL     1      33.116  -9.649 -22.751  0.00  0.00    +0.057 C 
BRANCH  14  15
ATOM     15  N   UNL     1      32.941  -8.290 -22.562  0.00  0.00    -0.246 N 
ATOM     16  N   UNL     1      31.951  -6.292 -22.546  0.00  0.00    -0.224 NA
ATOM     17  C   UNL     1      33.863  -7.408 -22.059  0.00  0.00    +0.092 C 
ATOM     18  C   UNL     1      31.807  -7.566 -22.838  0.00  0.00    +0.172 C 
ATOM     19  C   UNL     1      33.230  -6.188 -22.060  0.00  0.00    +0.117 C 
ENDBRANCH  14  15
ENDBRANCH   8   9
ENDBRANCH   2   8
BRANCH   1  20
ATOM     20  C   UNL     1      35.861 -17.927 -22.474  0.00  0.00    -0.050 C 
BRANCH  20  23
ATOM     21  O   UNL     1      32.882 -20.890 -19.880  0.00  0.00    -0.435 OA
ATOM     22  O   UNL     1      34.690 -21.695 -18.505  0.00  0.00    -0.435 OA
ATOM     23  C   UNL     1      35.582 -18.941 -21.397  0.00  0.00    -0.040 C 
ATOM     24  C   UNL     1      34.282 -19.398 -21.214  0.00  0.00    +0.034 C 
ATOM     25  C   UNL     1      36.639 -19.402 -20.603  0.00  0.00    -0.003 C 
ATOM     26  C   UNL     1      34.076 -20.327 -20.214  0.00  0.00    +0.176 C 
ATOM     27  C   UNL     1      36.403 -20.343 -19.599  0.00  0.00    +0.040 C 
ATOM     28  C   UNL     1      35.108 -20.786 -19.428  0.00  0.00    +0.176 C 
ATOM     29  C   UNL     1      33.279 -21.756 -18.798  0.00  0.00    +0.429 C 
ENDBRANCH  20  23
ENDBRANCH   1  20
TORSDOF 5
ENDMDL
MODEL 6
REMARK VINA RESULT:     -10.4      3.814     10.802
REMARK  Name = 11740318
REMARK  5 active torsions:
REMARK  status: ('A' for Active; 'I' for Inactive)
REMARK    1  A    between atoms: N_1  and  C_20
REMARK    2  A    between atoms: C_2  and  O_8
REMARK    3  A    between atoms: O_8  and  C_9
REMARK    4  A    between atoms: C_14  and  N_15
REMARK    5  A    between atoms: C_20  and  C_23
REMARK                            x       y       z     vdW  Elec       q    Type
REMARK                         _______ _______ _______ _____ _____    ______ ____
ROOT
ATOM      1  N   UNL     1      35.320 -18.379 -21.679  0.00  0.00    +0.392 N 
ATOM      2  C   UNL     1      34.963 -20.188 -20.027  0.00  0.00    +0.145 C 
ATOM      3  C   UNL     1      34.612 -19.638 -21.412  0.00  0.00    -0.032 C 
ATOM      4  C   UNL     1      36.470 -20.364 -19.870  0.00  0.00    +0.039 C 
ATOM      5  C   UNL     1      37.198 -19.074 -20.225  0.00  0.00    -0.019 C 
ATOM      6  C   UNL     1      36.776 -18.562 -21.604  0.00  0.00    -0.077 C 
ATOM      7  H   UNL     1      35.049 -17.709 -20.960  0.00  0.00    -0.079 HD
ENDROOT
BRANCH   2   8
ATOM      8  O   UNL     1      34.337 -21.453 -19.839  0.00  0.00    -0.481 OA
BRANCH   8   9
ATOM      9  C   UNL     1      34.321 -21.948 -18.563  0.00  0.00    +0.138 C 
ATOM     10  C   UNL     1      33.128 -22.415 -18.020  0.00  0.00    +0.038 C 
ATOM     11  C   UNL     1      35.496 -21.980 -17.820  0.00  0.00    +0.038 C 
ATOM     12  C   UNL     1      33.111 -22.920 -16.719  0.00  0.00    +0.018 C 
ATOM     13  C   UNL     1      35.479 -22.485 -16.520  0.00  0.00    +0.018 C 
ATOM     14  C   UNL     1      34.286 -22.955 -15.970  0.00  0.00    +0.057 C 
BRANCH  14  15
ATOM     15  N   UNL     1      34.269 -23.456 -14.681  0.00  0.00    -0.246 N 
ATOM     16  N   UNL     1      33.473 -24.281 -12.769  0.00  0.00    -0.224 NA
ATOM     17  C   UNL     1      35.356 -23.665 -13.870  0.00  0.00    +0.092 C 
ATOM     18  C   UNL     1      33.162 -23.844 -13.969  0.00  0.00    +0.172 C 
ATOM     19  C   UNL     1      34.840 -24.172 -12.702  0.00  0.00    +0.117 C 
ENDBRANCH  14  15
ENDBRANCH   8   9
ENDBRANCH   2   8
BRANCH   1  20
ATOM     20  C   UNL     1      34.937 -17.844 -22.986  0.00  0.00    -0.050 C 
BRANCH  20  23
ATOM     21  O   UNL     1      33.578 -13.531 -24.969  0.00  0.00    -0.435 OA
ATOM     22  O   UNL     1      34.017 -12.324 -22.930  0.00  0.00    -0.435 OA
ATOM     23  C   UNL     1      34.701 -16.358 -22.935  0.00  0.00    -0.040 C 
ATOM     24  C   UNL     1      34.230 -15.705 -24.069  0.00  0.00    +0.034 C 
ATOM     25  C   UNL     1      34.959 -15.666 -21.746  0.00  0.00    -0.003 C 
ATOM     26  C   UNL     1      34.029 -14.344 -23.974  0.00  0.00    +0.176 C 
ATOM     27  C   UNL     1      34.746 -14.287 -21.676  0.00  0.00    +0.040 C 
ATOM     28  C   UNL     1      34.280 -13.654 -22.810  0.00  0.00    +0.176 C 
ATOM     29  C   UNL     1      33.572 -12.254 -24.300  0.00  0.00    +0.429 C 
ENDBRANCH  20  23
ENDBRANCH   1  20
TORSDOF 5
ENDMDL
MODEL 7
REMARK VINA RESULT:     -10.2      3.837     10.780
REMARK  Name = 11740318
REMARK  5 active torsions:
REMARK  status: ('A' for Active; 'I' for Inactive)
REMARK    1  A    between atoms: N_1  and  C_20
REMARK    2  A    between atoms: C_2  and  O_8
REMARK    3  A    between atoms: O_8  and  C_9
REMARK    4  A    between atoms: C_14  and  N_15
REMARK    5  A    between atoms: C_20  and  C_23
REMARK                            x       y       z     vdW  Elec       q    Type
REMARK                         _______ _______ _______ _____ _____    ______ ____
ROOT
ATOM      1  N   UNL     1      35.190 -18.456 -22.171  0.00  0.00    +0.392 N 
ATOM      2  C   UNL     1      35.086 -20.004 -20.241  0.00  0.00    +0.145 C 
ATOM      3  C   UNL     1      34.653 -19.733 -21.685  0.00  0.00    -0.032 C 
ATOM      4  C   UNL     1      36.605 -19.961 -20.105  0.00  0.00    +0.039 C 
ATOM      5  C   UNL     1      37.157 -18.665 -20.683  0.00  0.00    -0.019 C 
ATOM      6  C   UNL     1      36.658 -18.439 -22.112  0.00  0.00    -0.077 C 
ATOM      7  H   UNL     1      34.843 -17.717 -21.559  0.00  0.00    -0.079 HD
ENDROOT
BRANCH   2   8
ATOM      8  O   UNL     1      34.631 -21.290 -19.836  0.00  0.00    -0.481 OA
BRANCH   8   9
ATOM      9  C   UNL     1      35.017 -21.716 -18.593  0.00  0.00    +0.138 C 
ATOM     10  C   UNL     1      34.109 -22.389 -17.782  0.00  0.00    +0.038 C 
ATOM     11  C   UNL     1      36.314 -21.473 -18.153  0.00  0.00    +0.038 C 
ATOM     12  C   UNL     1      34.503 -22.824 -16.516  0.00  0.00    +0.018 C 
ATOM     13  C   UNL     1      36.708 -21.907 -16.888  0.00  0.00    +0.018 C 
ATOM     14  C   UNL     1      35.802 -22.583 -16.069  0.00  0.00    +0.057 C 
BRANCH  14  15
ATOM     15  N   UNL     1      36.193 -23.015 -14.815  0.00  0.00    -0.246 N 
ATOM     16  N   UNL     1      37.527 -23.593 -13.125  0.00  0.00    -0.224 NA
ATOM     17  C   UNL     1      35.368 -23.366 -13.777  0.00  0.00    +0.092 C 
ATOM     18  C   UNL     1      37.482 -23.169 -14.368  0.00  0.00    +0.172 C 
ATOM     19  C   UNL     1      36.212 -23.718 -12.751  0.00  0.00    +0.117 C 
ENDBRANCH  14  15
ENDBRANCH   8   9
ENDBRANCH   2   8
BRANCH   1  20
ATOM     20  C   UNL     1      34.729 -18.191 -23.534  0.00  0.00    -0.050 C 
BRANCH  20  23
ATOM     21  O   UNL     1      34.667 -13.447 -22.169  0.00  0.00    -0.435 OA
ATOM     22  O   UNL     1      33.508 -12.767 -24.169  0.00  0.00    -0.435 OA
ATOM     23  C   UNL     1      34.385 -16.740 -23.737  0.00  0.00    -0.040 C 
ATOM     24  C   UNL     1      34.744 -15.813 -22.765  0.00  0.00    +0.034 C 
ATOM     25  C   UNL     1      33.711 -16.355 -24.902  0.00  0.00    -0.003 C 
ATOM     26  C   UNL     1      34.407 -14.495 -22.997  0.00  0.00    +0.176 C 
ATOM     27  C   UNL     1      33.382 -15.015 -25.112  0.00  0.00    +0.040 C 
ATOM     28  C   UNL     1      33.744 -14.107 -24.138  0.00  0.00    +0.176 C 
ATOM     29  C   UNL     1      34.096 -12.355 -22.918  0.00  0.00    +0.429 C 
ENDBRANCH  20  23
ENDBRANCH   1  20
TORSDOF 5
ENDMDL
MODEL 8
REMARK VINA RESULT:      -9.9      8.905     15.271
REMARK  Name = 11740318
REMARK  5 active torsions:
REMARK  status: ('A' for Active; 'I' for Inactive)
REMARK    1  A    between atoms: N_1  and  C_20
REMARK    2  A    between atoms: C_2  and  O_8
REMARK    3  A    between atoms: O_8  and  C_9
REMARK    4  A    between atoms: C_14  and  N_15
REMARK    5  A    between atoms: C_20  and  C_23
REMARK                            x       y       z     vdW  Elec       q    Type
REMARK                         _______ _______ _______ _____ _____    ______ ____
ROOT
ATOM      1  N   UNL     1      33.013 -10.183 -22.407  0.00  0.00    +0.392 N 
ATOM      2  C   UNL     1      34.033 -12.141 -23.528  0.00  0.00    +0.145 C 
ATOM      3  C   UNL     1      32.768 -11.543 -22.904  0.00  0.00    -0.032 C 
ATOM      4  C   UNL     1      34.578 -11.243 -24.634  0.00  0.00    +0.039 C 
ATOM      5  C   UNL     1      34.754  -9.818 -24.127  0.00  0.00    -0.019 C 
ATOM      6  C   UNL     1      33.467  -9.296 -23.486  0.00  0.00    -0.077 C 
ATOM      7  H   UNL     1      33.755 -10.234 -21.709  0.00  0.00    -0.079 HD
ENDROOT
BRANCH   2   8
ATOM      8  O   UNL     1      33.737 -13.417 -24.085  0.00  0.00    -0.481 OA
BRANCH   8   9
ATOM      9  C   UNL     1      34.215 -14.509 -23.411  0.00  0.00    +0.138 C 
ATOM     10  C   UNL     1      34.469 -15.688 -24.103  0.00  0.00    +0.038 C 
ATOM     11  C   UNL     1      34.441 -14.429 -22.041  0.00  0.00    +0.038 C 
ATOM     12  C   UNL     1      34.956 -16.802 -23.416  0.00  0.00    +0.018 C 
ATOM     13  C   UNL     1      34.928 -15.541 -21.355  0.00  0.00    +0.018 C 
ATOM     14  C   UNL     1      35.186 -16.728 -22.043  0.00  0.00    +0.057 C 
BRANCH  14  15
ATOM     15  N   UNL     1      35.670 -17.830 -21.362  0.00  0.00    -0.246 N 
ATOM     16  N   UNL     1      35.684 -19.658 -20.087  0.00  0.00    -0.224 NA
ATOM     17  C   UNL     1      36.972 -18.257 -21.317  0.00  0.00    +0.092 C 
ATOM     18  C   UNL     1      34.936 -18.710 -20.605  0.00  0.00    +0.172 C 
ATOM     19  C   UNL     1      36.954 -19.382 -20.527  0.00  0.00    +0.117 C 
ENDBRANCH  14  15
ENDBRANCH   8   9
ENDBRANCH   2   8
BRANCH   1  20
ATOM     20  C   UNL     1      31.810  -9.645 -21.773  0.00  0.00    -0.050 C 
BRANCH  20  23
ATOM     21  O   UNL     1      30.364  -4.980 -22.496  0.00  0.00    -0.435 OA
ATOM     22  O   UNL     1      32.070  -4.103 -21.037  0.00  0.00    -0.435 OA
ATOM     23  C   UNL     1      31.909  -8.159 -21.552  0.00  0.00    -0.040 C 
ATOM     24  C   UNL     1      31.010  -7.315 -22.195  0.00  0.00    +0.034 C 
ATOM     25  C   UNL     1      32.903  -7.660 -20.703  0.00  0.00    -0.003 C 
ATOM     26  C   UNL     1      31.141  -5.961 -21.961  0.00  0.00    +0.176 C 
ATOM     27  C   UNL     1      33.013  -6.286 -20.483  0.00  0.00    +0.040 C 
ATOM     28  C   UNL     1      32.115  -5.460 -21.128  0.00  0.00    +0.176 C 
ATOM     29  C   UNL     1      30.958  -3.806 -21.905  0.00  0.00    +0.429 C 
ENDBRANCH  20  23
ENDBRANCH   1  20
TORSDOF 5
ENDMDL
MODEL 9
REMARK VINA RESULT:      -9.9      3.520     10.216
REMARK  Name = 11740318
REMARK  5 active torsions:
REMARK  status: ('A' for Active; 'I' for Inactive)
REMARK    1  A    between atoms: N_1  and  C_20
REMARK    2  A    between atoms: C_2  and  O_8
REMARK    3  A    between atoms: O_8  and  C_9
REMARK    4  A    between atoms: C_14  and  N_15
REMARK    5  A    between atoms: C_20  and  C_23
REMARK                            x       y       z     vdW  Elec       q    Type
REMARK                         _______ _______ _______ _____ _____    ______ ____
ROOT
ATOM      1  N   UNL     1      35.684 -19.048 -20.580  0.00  0.00    +0.392 N 
ATOM      2  C   UNL     1      34.905 -20.920 -19.159  0.00  0.00    +0.145 C 
ATOM      3  C   UNL     1      34.830 -20.241 -20.530  0.00  0.00    -0.032 C 
ATOM      4  C   UNL     1      36.346 -21.261 -18.792  0.00  0.00    +0.039 C 
ATOM      5  C   UNL     1      37.236 -20.033 -18.923  0.00  0.00    -0.019 C 
ATOM      6  C   UNL     1      37.086 -19.385 -20.301  0.00  0.00    -0.077 C 
ATOM      7  H   UNL     1      35.366 -18.404 -19.856  0.00  0.00    -0.079 HD
ENDROOT
BRANCH   2   8
ATOM      8  O   UNL     1      34.144 -22.122 -19.175  0.00  0.00    -0.481 OA
BRANCH   8   9
ATOM      9  C   UNL     1      33.580 -22.510 -17.989  0.00  0.00    +0.138 C 
ATOM     10  C   UNL     1      32.229 -22.270 -17.758  0.00  0.00    +0.038 C 
ATOM     11  C   UNL     1      34.361 -23.141 -17.027  0.00  0.00    +0.038 C 
ATOM     12  C   UNL     1      31.654 -22.665 -16.549  0.00  0.00    +0.018 C 
ATOM     13  C   UNL     1      33.786 -23.536 -15.820  0.00  0.00    +0.018 C 
ATOM     14  C   UNL     1      32.432 -23.298 -15.581  0.00  0.00    +0.057 C 
BRANCH  14  15
ATOM     15  N   UNL     1      31.862 -23.691 -14.384  0.00  0.00    -0.246 N 
ATOM     16  N   UNL     1      31.514 -24.862 -12.519  0.00  0.00    -0.224 NA
ATOM     17  C   UNL     1      30.801 -23.098 -13.750  0.00  0.00    +0.092 C 
ATOM     18  C   UNL     1      32.253 -24.748 -13.600  0.00  0.00    +0.172 C 
ATOM     19  C   UNL     1      30.607 -23.836 -12.607  0.00  0.00    +0.117 C 
ENDBRANCH  14  15
ENDBRANCH   8   9
ENDBRANCH   2   8
BRANCH   1  20
ATOM     20  C   UNL     1      35.564 -18.387 -21.879  0.00  0.00    -0.050 C 
BRANCH  20  23
ATOM     21  O   UNL     1      34.278 -13.976 -23.688  0.00  0.00    -0.435 OA
ATOM     22  O   UNL     1      34.099 -12.999 -21.493  0.00  0.00    -0.435 OA
ATOM     23  C   UNL     1      35.172 -16.940 -21.738  0.00  0.00    -0.040 C 
ATOM     24  C   UNL     1      34.918 -16.190 -22.881  0.00  0.00    +0.034 C 
ATOM     25  C   UNL     1      35.071 -16.382 -20.458  0.00  0.00    -0.003 C 
ATOM     26  C   UNL     1      34.562 -14.869 -22.701  0.00  0.00    +0.176 C 
ATOM     27  C   UNL     1      34.708 -15.043 -20.304  0.00  0.00    +0.040 C 
ATOM     28  C   UNL     1      34.460 -14.311 -21.447  0.00  0.00    +0.176 C 
ATOM     29  C   UNL     1      33.984 -12.795 -22.915  0.00  0.00    +0.429 C 
ENDBRANCH  20  23
ENDBRANCH   1  20
TORSDOF 5
ENDMDL
