MODEL 1
REMARK VINA RESULT:     -12.3      0.000      0.000
REMARK  Name = 5327153
REMARK  6 active torsions:
REMARK  status: ('A' for Active; 'I' for Inactive)
REMARK    1  A    between atoms: C_3  and  C_15
REMARK    2  A    between atoms: C_10  and  O_24
REMARK    3  A    between atoms: C_11  and  N_18
REMARK    4  A    between atoms: N_18  and  S_20
REMARK    5  A    between atoms: O_24  and  C_25
REMARK    6  A    between atoms: C_25  and  C_26
REMARK                            x       y       z     vdW  Elec       q    Type
REMARK                         _______ _______ _______ _____ _____    ______ ____
ROOT
ATOM      1  O   UNL     1      37.275 -21.928 -15.978  0.00  0.00    -0.226 OA
ATOM      2  N   UNL     1      35.168 -22.868 -15.642  0.00  0.00    -0.235 N 
ATOM      3  C   UNL     1      35.486 -23.357 -14.300  0.00  0.00    +0.159 C 
ATOM      4  C   UNL     1      34.355 -23.115 -13.306  0.00  0.00    +0.055 C 
ATOM      5  C   UNL     1      33.864 -23.223 -16.223  0.00  0.00    +0.124 C 
ATOM      6  C   UNL     1      33.001 -23.489 -13.848  0.00  0.00    -0.022 C 
ATOM      7  C   UNL     1      32.771 -23.521 -15.231  0.00  0.00    -0.005 C 
ATOM      8  C   UNL     1      31.493 -23.848 -15.707  0.00  0.00    +0.013 C 
ATOM      9  C   UNL     1      31.947 -23.758 -12.962  0.00  0.00    -0.003 C 
ATOM     10  C   UNL     1      36.168 -22.248 -16.408  0.00  0.00    +0.406 C 
ATOM     11  C   UNL     1      30.453 -24.127 -14.820  0.00  0.00    +0.065 C 
ATOM     12  C   UNL     1      30.680 -24.079 -13.447  0.00  0.00    +0.016 C 
ENDROOT
BRANCH   3  15
ATOM     13  O   UNL     1      35.364 -25.510 -15.332  0.00  0.00    -0.273 OA
ATOM     14  N   UNL     1      36.704 -25.238 -13.448  0.00  0.00    -0.301 N 
ATOM     15  C   UNL     1      35.835 -24.812 -14.439  0.00  0.00    +0.241 C 
ATOM     16  C   UNL     1      37.175 -26.600 -13.344  0.00  0.00    +0.111 C 
ATOM     17  H   UNL     1      37.015 -24.582 -12.783  0.00  0.00    +0.150 HD
ENDBRANCH   3  15
BRANCH  11  18
ATOM     18  N   UNL     1      29.157 -24.457 -15.320  0.00  0.00    -0.213 N 
ATOM     19  H   UNL     1      28.802 -25.374 -15.268  0.00  0.00    +0.174 HD
BRANCH  18  20
ATOM     20  S   UNL     1      28.242 -23.164 -16.022  0.00  0.00    +0.091 S 
ATOM     21  O   UNL     1      27.442 -23.858 -17.262  0.00  0.00    -0.050 OA
ATOM     22  O   UNL     1      27.256 -22.712 -15.057  0.00  0.00    -0.050 OA
ATOM     23  O   UNL     1      29.180 -22.216 -16.595  0.00  0.00    -0.050 OA
ENDBRANCH  18  20
ENDBRANCH  11  18
BRANCH  10  24
ATOM     24  O   UNL     1      35.780 -22.040 -17.706  0.00  0.00    -0.430 OA
BRANCH  24  25
ATOM     25  C   UNL     1      36.766 -21.469 -18.574  0.00  0.00    +0.237 C 
BRANCH  25  26
ATOM     26  C   UNL     1      36.090 -20.534 -19.534  0.00  0.00    +0.021 C 
ATOM     27  C   UNL     1      36.830 -19.539 -20.162  0.00  0.00    -0.001 C 
ATOM     28  C   UNL     1      34.729 -20.671 -19.786  0.00  0.00    -0.001 C 
ATOM     29  C   UNL     1      36.202 -18.670 -21.054  0.00  0.00    -0.000 C 
ATOM     30  C   UNL     1      34.101 -19.802 -20.678  0.00  0.00    -0.000 C 
ATOM     31  C   UNL     1      34.837 -18.801 -21.313  0.00  0.00    -0.000 C 
ENDBRANCH  25  26
ENDBRANCH  24  25
ENDBRANCH  10  24
TORSDOF 6
ENDMDL
