MODEL 1
REMARK VINA RESULT:     -12.5      0.000      0.000
REMARK  Name = 5289110
REMARK  6 active torsions:
REMARK  status: ('A' for Active; 'I' for Inactive)
REMARK    1  A    between atoms: C_3  and  C_9
REMARK    2  A    between atoms: C_4  and  C_22
REMARK    3  A    between atoms: N_8  and  C_11
REMARK    4  A    between atoms: C_11  and  C_13
REMARK    5  A    between atoms: N_21  and  C_24
REMARK    6  A    between atoms: C_24  and  C_26
REMARK                            x       y       z     vdW  Elec       q    Type
REMARK                         _______ _______ _______ _____ _____    ______ ____
ROOT
ATOM      1  N   UNL     1      34.472 -17.371 -24.032  0.00  0.00    -0.244 NA
ATOM      2  N   UNL     1      33.464 -15.626 -25.353  0.00  0.00    -0.244 NA
ATOM      3  C   UNL     1      34.781 -16.441 -23.106  0.00  0.00    +0.115 C 
ATOM      4  C   UNL     1      33.813 -14.780 -24.380  0.00  0.00    +0.115 C 
ATOM      5  C   UNL     1      34.469 -15.102 -23.229  0.00  0.00    +0.100 C 
ATOM      6  C   UNL     1      33.824 -16.901 -25.115  0.00  0.00    +0.250 C 
ENDROOT
BRANCH   3   9
ATOM      7  O   UNL     1      35.371 -16.339 -20.838  0.00  0.00    -0.269 OA
ATOM      8  N   UNL     1      36.254 -18.085 -22.082  0.00  0.00    -0.296 N 
ATOM      9  C   UNL     1      35.481 -16.927 -21.929  0.00  0.00    +0.260 C 
ATOM     10  H   UNL     1      36.298 -18.501 -22.973  0.00  0.00    +0.150 HD
BRANCH   8  11
ATOM     11  C   UNL     1      36.990 -18.704 -21.003  0.00  0.00    +0.117 C 
BRANCH  11  13
ATOM     12  F   UNL     1      33.895 -22.495 -18.235  0.00  0.00    -0.205 F 
ATOM     13  C   UNL     1      36.160 -19.716 -20.266  0.00  0.00    -0.003 C 
ATOM     14  C   UNL     1      34.776 -19.692 -20.387  0.00  0.00    -0.005 C 
ATOM     15  C   UNL     1      34.006 -20.632 -19.702  0.00  0.00    +0.005 C 
ATOM     16  C   UNL     1      36.786 -20.666 -19.467  0.00  0.00    -0.000 C 
ATOM     17  C   UNL     1      34.626 -21.589 -18.898  0.00  0.00    +0.136 C 
ATOM     18  C   UNL     1      36.016 -21.606 -18.782  0.00  0.00    +0.029 C 
ATOM     19  C   UNL     1      32.520 -20.611 -19.831  0.00  0.00    +0.033 C 
ENDBRANCH  11  13
ENDBRANCH   8  11
ENDBRANCH   3   9
BRANCH   4  22
ATOM     20  O   UNL     1      32.827 -13.078 -25.657  0.00  0.00    -0.269 OA
ATOM     21  N   UNL     1      33.761 -12.463 -23.626  0.00  0.00    -0.296 N 
ATOM     22  C   UNL     1      33.426 -13.367 -24.624  0.00  0.00    +0.260 C 
ATOM     23  H   UNL     1      34.242 -12.791 -22.832  0.00  0.00    +0.150 HD
BRANCH  21  24
ATOM     24  C   UNL     1      33.432 -11.062 -23.705  0.00  0.00    +0.117 C 
BRANCH  24  26
ATOM     25  F   UNL     1      30.853  -9.217 -19.063  0.00  0.00    -0.205 F 
ATOM     26  C   UNL     1      32.748 -10.569 -22.474  0.00  0.00    -0.003 C 
ATOM     27  C   UNL     1      32.656  -9.200 -22.228  0.00  0.00    -0.005 C 
ATOM     28  C   UNL     1      32.017  -8.740 -21.076  0.00  0.00    +0.005 C 
ATOM     29  C   UNL     1      32.201 -11.479 -21.569  0.00  0.00    -0.000 C 
ATOM     30  C   UNL     1      31.470  -9.650 -20.172  0.00  0.00    +0.136 C 
ATOM     31  C   UNL     1      31.562 -11.019 -20.418  0.00  0.00    +0.029 C 
ATOM     32  C   UNL     1      31.919  -7.274 -20.816  0.00  0.00    +0.033 C 
ENDBRANCH  24  26
ENDBRANCH  21  24
ENDBRANCH   4  22
TORSDOF 6
ENDMDL
MODEL 2
REMARK VINA RESULT:     -12.5      0.091      9.410
REMARK  Name = 5289110
REMARK  6 active torsions:
REMARK  status: ('A' for Active; 'I' for Inactive)
REMARK    1  A    between atoms: C_3  and  C_9
REMARK    2  A    between atoms: C_4  and  C_22
REMARK    3  A    between atoms: N_8  and  C_11
REMARK    4  A    between atoms: C_11  and  C_13
REMARK    5  A    between atoms: N_21  and  C_24
REMARK    6  A    between atoms: C_24  and  C_26
REMARK                            x       y       z     vdW  Elec       q    Type
REMARK                         _______ _______ _______ _____ _____    ______ ____
ROOT
ATOM      1  N   UNL     1      33.477 -15.629 -25.383  0.00  0.00    -0.244 NA
ATOM      2  N   UNL     1      34.471 -17.363 -24.037  0.00  0.00    -0.244 NA
ATOM      3  C   UNL     1      33.830 -14.740 -24.432  0.00  0.00    +0.115 C 
ATOM      4  C   UNL     1      34.778 -16.410 -23.153  0.00  0.00    +0.115 C 
ATOM      5  C   UNL     1      34.496 -15.081 -23.272  0.00  0.00    +0.100 C 
ATOM      6  C   UNL     1      33.823 -16.904 -25.124  0.00  0.00    +0.250 C 
ENDROOT
BRANCH   3   9
ATOM      7  O   UNL     1      32.900 -13.039 -25.751  0.00  0.00    -0.269 OA
ATOM      8  N   UNL     1      33.763 -12.424 -23.689  0.00  0.00    -0.296 N 
ATOM      9  C   UNL     1      33.466 -13.358 -24.690  0.00  0.00    +0.260 C 
ATOM     10  H   UNL     1      34.212 -12.743 -22.874  0.00  0.00    +0.150 HD
BRANCH   8  11
ATOM     11  C   UNL     1      33.444 -11.017 -23.787  0.00  0.00    +0.117 C 
BRANCH  11  13
ATOM     12  F   UNL     1      30.994  -9.099 -19.104  0.00  0.00    -0.205 F 
ATOM     13  C   UNL     1      32.789 -10.502 -22.538  0.00  0.00    -0.003 C 
ATOM     14  C   UNL     1      32.696  -9.132 -22.324  0.00  0.00    -0.005 C 
ATOM     15  C   UNL     1      32.088  -8.653 -21.164  0.00  0.00    +0.005 C 
ATOM     16  C   UNL     1      32.285 -11.401 -21.605  0.00  0.00    -0.000 C 
ATOM     17  C   UNL     1      31.579  -9.549 -20.223  0.00  0.00    +0.136 C 
ATOM     18  C   UNL     1      31.677 -10.923 -20.444  0.00  0.00    +0.029 C 
ATOM     19  C   UNL     1      31.984  -7.183 -20.931  0.00  0.00    +0.033 C 
ENDBRANCH  11  13
ENDBRANCH   8  11
ENDBRANCH   3   9
BRANCH   4  22
ATOM     20  O   UNL     1      35.360 -16.287 -20.885  0.00  0.00    -0.269 OA
ATOM     21  N   UNL     1      36.254 -18.043 -22.108  0.00  0.00    -0.296 N 
ATOM     22  C   UNL     1      35.492 -16.895 -21.944  0.00  0.00    +0.260 C 
ATOM     23  H   UNL     1      36.297 -18.460 -22.999  0.00  0.00    +0.150 HD
BRANCH  21  24
ATOM     24  C   UNL     1      36.984 -18.650 -21.024  0.00  0.00    +0.117 C 
BRANCH  24  26
ATOM     25  F   UNL     1      33.938 -22.481 -18.259  0.00  0.00    -0.205 F 
ATOM     26  C   UNL     1      36.173 -19.665 -20.291  0.00  0.00    -0.003 C 
ATOM     27  C   UNL     1      34.783 -19.659 -20.401  0.00  0.00    -0.005 C 
ATOM     28  C   UNL     1      34.025 -20.609 -19.716  0.00  0.00    +0.005 C 
ATOM     29  C   UNL     1      36.805 -20.622 -19.497  0.00  0.00    -0.000 C 
ATOM     30  C   UNL     1      34.657 -21.564 -18.921  0.00  0.00    +0.136 C 
ATOM     31  C   UNL     1      36.048 -21.570 -18.811  0.00  0.00    +0.029 C 
ATOM     32  C   UNL     1      32.538 -20.600 -19.836  0.00  0.00    +0.033 C 
ENDBRANCH  24  26
ENDBRANCH  21  24
ENDBRANCH   4  22
TORSDOF 6
ENDMDL
MODEL 3
REMARK VINA RESULT:     -12.3      1.707      2.514
REMARK  Name = 5289110
REMARK  6 active torsions:
REMARK  status: ('A' for Active; 'I' for Inactive)
REMARK    1  A    between atoms: C_3  and  C_9
REMARK    2  A    between atoms: C_4  and  C_22
REMARK    3  A    between atoms: N_8  and  C_11
REMARK    4  A    between atoms: C_11  and  C_13
REMARK    5  A    between atoms: N_21  and  C_24
REMARK    6  A    between atoms: C_24  and  C_26
REMARK                            x       y       z     vdW  Elec       q    Type
REMARK                         _______ _______ _______ _____ _____    ______ ____
ROOT
ATOM      1  N   UNL     1      34.715 -19.425 -23.064  0.00  0.00    -0.244 NA
ATOM      2  N   UNL     1      33.974 -17.838 -24.719  0.00  0.00    -0.244 NA
ATOM      3  C   UNL     1      35.140 -18.388 -22.314  0.00  0.00    +0.115 C 
ATOM      4  C   UNL     1      34.426 -16.880 -23.906  0.00  0.00    +0.115 C 
ATOM      5  C   UNL     1      35.019 -17.066 -22.692  0.00  0.00    +0.100 C 
ATOM      6  C   UNL     1      34.150 -19.083 -24.238  0.00  0.00    +0.250 C 
ENDROOT
BRANCH   3   9
ATOM      7  O   UNL     1      36.156 -17.847 -20.270  0.00  0.00    -0.269 OA
ATOM      8  N   UNL     1      35.841 -20.097 -20.730  0.00  0.00    -0.296 N 
ATOM      9  C   UNL     1      35.752 -18.734 -21.043  0.00  0.00    +0.260 C 
ATOM     10  H   UNL     1      35.502 -20.747 -21.387  0.00  0.00    +0.150 HD
BRANCH   8  11
ATOM     11  C   UNL     1      36.402 -20.600 -19.497  0.00  0.00    +0.117 C 
BRANCH  11  13
ATOM     12  F   UNL     1      32.611 -23.464 -16.491  0.00  0.00    -0.205 F 
ATOM     13  C   UNL     1      35.391 -21.365 -18.692  0.00  0.00    -0.003 C 
ATOM     14  C   UNL     1      35.772 -21.960 -17.495  0.00  0.00    -0.005 C 
ATOM     15  C   UNL     1      34.833 -22.671 -16.747  0.00  0.00    +0.005 C 
ATOM     16  C   UNL     1      34.084 -21.472 -19.152  0.00  0.00    -0.000 C 
ATOM     17  C   UNL     1      33.519 -22.782 -17.202  0.00  0.00    +0.136 C 
ATOM     18  C   UNL     1      33.145 -22.182 -18.404  0.00  0.00    +0.029 C 
ATOM     19  C   UNL     1      35.237 -23.310 -15.461  0.00  0.00    +0.033 C 
ENDBRANCH  11  13
ENDBRANCH   8  11
ENDBRANCH   3   9
BRANCH   4  22
ATOM     20  O   UNL     1      34.225 -15.306 -25.633  0.00  0.00    -0.269 OA
ATOM     21  N   UNL     1      34.078 -14.508 -23.461  0.00  0.00    -0.296 N 
ATOM     22  C   UNL     1      34.243 -15.497 -24.420  0.00  0.00    +0.260 C 
ATOM     23  H   UNL     1      34.107 -14.762 -22.510  0.00  0.00    +0.150 HD
BRANCH  21  24
ATOM     24  C   UNL     1      33.865 -13.125 -23.802  0.00  0.00    +0.117 C 
BRANCH  24  26
ATOM     25  F   UNL     1      31.024 -10.364 -19.813  0.00  0.00    -0.205 F 
ATOM     26  C   UNL     1      33.112 -12.389 -22.745  0.00  0.00    -0.003 C 
ATOM     27  C   UNL     1      32.952 -11.007 -22.836  0.00  0.00    -0.005 C 
ATOM     28  C   UNL     1      32.247 -10.320 -21.847  0.00  0.00    +0.005 C 
ATOM     29  C   UNL     1      32.566 -13.085 -21.666  0.00  0.00    -0.000 C 
ATOM     30  C   UNL     1      31.702 -11.016 -20.768  0.00  0.00    +0.136 C 
ATOM     31  C   UNL     1      31.862 -12.398 -20.677  0.00  0.00    +0.029 C 
ATOM     32  C   UNL     1      32.078  -8.841 -21.947  0.00  0.00    +0.033 C 
ENDBRANCH  24  26
ENDBRANCH  21  24
ENDBRANCH   4  22
TORSDOF 6
ENDMDL
MODEL 4
REMARK VINA RESULT:     -12.2      1.621      9.736
REMARK  Name = 5289110
REMARK  6 active torsions:
REMARK  status: ('A' for Active; 'I' for Inactive)
REMARK    1  A    between atoms: C_3  and  C_9
REMARK    2  A    between atoms: C_4  and  C_22
REMARK    3  A    between atoms: N_8  and  C_11
REMARK    4  A    between atoms: C_11  and  C_13
REMARK    5  A    between atoms: N_21  and  C_24
REMARK    6  A    between atoms: C_24  and  C_26
REMARK                            x       y       z     vdW  Elec       q    Type
REMARK                         _______ _______ _______ _____ _____    ______ ____
ROOT
ATOM      1  N   UNL     1      33.875 -17.823 -24.736  0.00  0.00    -0.244 NA
ATOM      2  N   UNL     1      34.599 -19.359 -23.027  0.00  0.00    -0.244 NA
ATOM      3  C   UNL     1      34.369 -16.815 -23.988  0.00  0.00    +0.115 C 
ATOM      4  C   UNL     1      35.057 -18.297 -22.360  0.00  0.00    +0.115 C 
ATOM      5  C   UNL     1      34.984 -16.997 -22.766  0.00  0.00    +0.100 C 
ATOM      6  C   UNL     1      34.021 -19.051 -24.203  0.00  0.00    +0.250 C 
ENDROOT
BRANCH   3   9
ATOM      7  O   UNL     1      34.334 -15.290 -25.769  0.00  0.00    -0.269 OA
ATOM      8  N   UNL     1      33.930 -14.446 -23.648  0.00  0.00    -0.296 N 
ATOM      9  C   UNL     1      34.222 -15.482 -24.545  0.00  0.00    +0.260 C 
ATOM     10  H   UNL     1      33.855 -14.667 -22.692  0.00  0.00    +0.150 HD
BRANCH   8  11
ATOM     11  C   UNL     1      33.733 -13.072 -24.049  0.00  0.00    +0.117 C 
BRANCH  11  13
ATOM     12  F   UNL     1      31.248 -10.052 -20.009  0.00  0.00    -0.205 F 
ATOM     13  C   UNL     1      33.069 -12.263 -22.972  0.00  0.00    -0.003 C 
ATOM     14  C   UNL     1      33.086 -10.875 -23.044  0.00  0.00    -0.005 C 
ATOM     15  C   UNL     1      32.469 -10.123 -22.044  0.00  0.00    +0.005 C 
ATOM     16  C   UNL     1      32.446 -12.910 -21.911  0.00  0.00    -0.000 C 
ATOM     17  C   UNL     1      31.842 -10.766 -20.976  0.00  0.00    +0.136 C 
ATOM     18  C   UNL     1      31.830 -12.159 -20.910  0.00  0.00    +0.029 C 
ATOM     19  C   UNL     1      32.483  -8.634 -22.118  0.00  0.00    +0.033 C 
ENDBRANCH  11  13
ENDBRANCH   8  11
ENDBRANCH   3   9
BRANCH   4  22
ATOM     20  O   UNL     1      35.949 -17.703 -20.273  0.00  0.00    -0.269 OA
ATOM     21  N   UNL     1      35.947 -19.958 -20.814  0.00  0.00    -0.296 N 
ATOM     22  C   UNL     1      35.698 -18.615 -21.057  0.00  0.00    +0.260 C 
ATOM     23  H   UNL     1      35.708 -20.617 -21.506  0.00  0.00    +0.150 HD
BRANCH  21  24
ATOM     24  C   UNL     1      36.540 -20.427 -19.587  0.00  0.00    +0.117 C 
BRANCH  24  26
ATOM     25  F   UNL     1      32.943 -23.459 -16.509  0.00  0.00    -0.205 F 
ATOM     26  C   UNL     1      35.588 -21.232 -18.768  0.00  0.00    -0.003 C 
ATOM     27  C   UNL     1      36.000 -21.774 -17.551  0.00  0.00    -0.005 C 
ATOM     28  C   UNL     1      35.109 -22.527 -16.786  0.00  0.00    +0.005 C 
ATOM     29  C   UNL     1      34.285 -21.442 -19.219  0.00  0.00    -0.000 C 
ATOM     30  C   UNL     1      33.806 -22.737 -17.238  0.00  0.00    +0.136 C 
ATOM     31  C   UNL     1      33.394 -22.195 -18.455  0.00  0.00    +0.029 C 
ATOM     32  C   UNL     1      35.553 -23.105 -15.484  0.00  0.00    +0.033 C 
ENDBRANCH  24  26
ENDBRANCH  21  24
ENDBRANCH   4  22
TORSDOF 6
ENDMDL
MODEL 5
REMARK VINA RESULT:     -12.1      7.211     10.995
REMARK  Name = 5289110
REMARK  6 active torsions:
REMARK  status: ('A' for Active; 'I' for Inactive)
REMARK    1  A    between atoms: C_3  and  C_9
REMARK    2  A    between atoms: C_4  and  C_22
REMARK    3  A    between atoms: N_8  and  C_11
REMARK    4  A    between atoms: C_11  and  C_13
REMARK    5  A    between atoms: N_21  and  C_24
REMARK    6  A    between atoms: C_24  and  C_26
REMARK                            x       y       z     vdW  Elec       q    Type
REMARK                         _______ _______ _______ _____ _____    ______ ____
ROOT
ATOM      1  N   UNL     1      36.557 -24.391 -12.965  0.00  0.00    -0.244 NA
ATOM      2  N   UNL     1      37.965 -23.395 -14.647  0.00  0.00    -0.244 NA
ATOM      3  C   UNL     1      35.530 -23.661 -13.445  0.00  0.00    +0.115 C 
ATOM      4  C   UNL     1      36.889 -22.715 -15.050  0.00  0.00    +0.115 C 
ATOM      5  C   UNL     1      35.640 -22.789 -14.509  0.00  0.00    +0.100 C 
ATOM      6  C   UNL     1      37.729 -24.211 -13.603  0.00  0.00    +0.250 C 
ENDROOT
BRANCH   3   9
ATOM      7  O   UNL     1      34.167 -24.568 -11.766  0.00  0.00    -0.269 OA
ATOM      8  N   UNL     1      33.157 -23.145 -13.292  0.00  0.00    -0.296 N 
ATOM      9  C   UNL     1      34.256 -23.841 -12.771  0.00  0.00    +0.260 C 
ATOM     10  H   UNL     1      33.296 -22.587 -14.090  0.00  0.00    +0.150 HD
BRANCH   8  11
ATOM     11  C   UNL     1      31.830 -23.202 -12.721  0.00  0.00    +0.117 C 
BRANCH  11  13
ATOM     12  F   UNL     1      28.009 -24.951 -16.456  0.00  0.00    -0.205 F 
ATOM     13  C   UNL     1      30.809 -23.666 -13.720  0.00  0.00    -0.003 C 
ATOM     14  C   UNL     1      29.928 -22.749 -14.280  0.00  0.00    -0.005 C 
ATOM     15  C   UNL     1      28.979 -23.180 -15.207  0.00  0.00    +0.005 C 
ATOM     16  C   UNL     1      30.754 -25.010 -14.073  0.00  0.00    -0.000 C 
ATOM     17  C   UNL     1      28.918 -24.527 -15.567  0.00  0.00    +0.136 C 
ATOM     18  C   UNL     1      29.806 -25.441 -15.000  0.00  0.00    +0.029 C 
ATOM     19  C   UNL     1      28.032 -22.199 -15.813  0.00  0.00    +0.033 C 
ENDBRANCH  11  13
ENDBRANCH   8  11
ENDBRANCH   3   9
BRANCH   4  22
ATOM     20  O   UNL     1      37.804 -20.793 -16.035  0.00  0.00    -0.269 OA
ATOM     21  N   UNL     1      36.574 -22.197 -17.411  0.00  0.00    -0.296 N 
ATOM     22  C   UNL     1      37.129 -21.806 -16.201  0.00  0.00    +0.260 C 
ATOM     23  H   UNL     1      36.047 -23.028 -17.444  0.00  0.00    +0.150 HD
BRANCH  21  24
ATOM     24  C   UNL     1      36.739 -21.434 -18.623  0.00  0.00    +0.117 C 
BRANCH  24  26
ATOM     25  F   UNL     1      31.812 -19.966 -20.897  0.00  0.00    -0.205 F 
ATOM     26  C   UNL     1      35.433 -21.043 -19.229  0.00  0.00    -0.003 C 
ATOM     27  C   UNL     1      35.404 -20.200 -20.340  0.00  0.00    -0.005 C 
ATOM     28  C   UNL     1      34.182 -19.834 -20.905  0.00  0.00    +0.005 C 
ATOM     29  C   UNL     1      34.241 -21.520 -18.684  0.00  0.00    -0.000 C 
ATOM     30  C   UNL     1      32.991 -20.312 -20.360  0.00  0.00    +0.136 C 
ATOM     31  C   UNL     1      33.020 -21.154 -19.249  0.00  0.00    +0.029 C 
ATOM     32  C   UNL     1      34.155 -18.933 -22.094  0.00  0.00    +0.033 C 
ENDBRANCH  24  26
ENDBRANCH  21  24
ENDBRANCH   4  22
TORSDOF 6
ENDMDL
MODEL 6
REMARK VINA RESULT:     -12.1      7.218     12.030
REMARK  Name = 5289110
REMARK  6 active torsions:
REMARK  status: ('A' for Active; 'I' for Inactive)
REMARK    1  A    between atoms: C_3  and  C_9
REMARK    2  A    between atoms: C_4  and  C_22
REMARK    3  A    between atoms: N_8  and  C_11
REMARK    4  A    between atoms: C_11  and  C_13
REMARK    5  A    between atoms: N_21  and  C_24
REMARK    6  A    between atoms: C_24  and  C_26
REMARK                            x       y       z     vdW  Elec       q    Type
REMARK                         _______ _______ _______ _____ _____    ______ ____
ROOT
ATOM      1  N   UNL     1      37.968 -23.531 -14.629  0.00  0.00    -0.244 NA
ATOM      2  N   UNL     1      36.528 -24.514 -12.965  0.00  0.00    -0.244 NA
ATOM      3  C   UNL     1      36.919 -22.794 -15.048  0.00  0.00    +0.115 C 
ATOM      4  C   UNL     1      35.552 -23.743 -13.451  0.00  0.00    +0.115 C 
ATOM      5  C   UNL     1      35.661 -22.860 -14.484  0.00  0.00    +0.100 C 
ATOM      6  C   UNL     1      37.705 -24.358 -13.599  0.00  0.00    +0.250 C 
ENDROOT
BRANCH   3   9
ATOM      7  O   UNL     1      37.931 -20.913 -16.016  0.00  0.00    -0.269 OA
ATOM      8  N   UNL     1      36.570 -22.200 -17.381  0.00  0.00    -0.296 N 
ATOM      9  C   UNL     1      37.180 -21.895 -16.158  0.00  0.00    +0.260 C 
ATOM     10  H   UNL     1      35.987 -22.992 -17.425  0.00  0.00    +0.150 HD
BRANCH   8  11
ATOM     11  C   UNL     1      36.749 -21.417 -18.583  0.00  0.00    +0.117 C 
BRANCH  11  13
ATOM     12  F   UNL     1      31.830 -19.983 -20.897  0.00  0.00    -0.205 F 
ATOM     13  C   UNL     1      35.437 -21.033 -19.204  0.00  0.00    -0.003 C 
ATOM     14  C   UNL     1      35.417 -20.177 -20.298  0.00  0.00    -0.005 C 
ATOM     15  C   UNL     1      34.198 -19.820 -20.875  0.00  0.00    +0.005 C 
ATOM     16  C   UNL     1      34.253 -21.536 -18.675  0.00  0.00    -0.000 C 
ATOM     17  C   UNL     1      33.006 -20.321 -20.351  0.00  0.00    +0.136 C 
ATOM     18  C   UNL     1      33.034 -21.180 -19.252  0.00  0.00    +0.029 C 
ATOM     19  C   UNL     1      34.172 -18.903 -22.051  0.00  0.00    +0.033 C 
ENDBRANCH  11  13
ENDBRANCH   8  11
ENDBRANCH   3   9
BRANCH   4  22
ATOM     20  O   UNL     1      34.167 -24.622 -11.774  0.00  0.00    -0.269 OA
ATOM     21  N   UNL     1      33.184 -23.182 -13.303  0.00  0.00    -0.296 N 
ATOM     22  C   UNL     1      34.243 -23.901 -12.766  0.00  0.00    +0.260 C 
ATOM     23  H   UNL     1      33.344 -22.629 -14.102  0.00  0.00    +0.150 HD
BRANCH  21  24
ATOM     24  C   UNL     1      31.859 -23.212 -12.737  0.00  0.00    +0.117 C 
BRANCH  24  26
ATOM     25  F   UNL     1      27.996 -24.932 -16.440  0.00  0.00    -0.205 F 
ATOM     26  C   UNL     1      30.833 -23.666 -13.720  0.00  0.00    -0.003 C 
ATOM     27  C   UNL     1      29.937 -22.747 -14.268  0.00  0.00    -0.005 C 
ATOM     28  C   UNL     1      28.977 -23.172 -15.186  0.00  0.00    +0.005 C 
ATOM     29  C   UNL     1      30.770 -25.008 -14.093  0.00  0.00    -0.000 C 
ATOM     30  C   UNL     1      28.914 -24.515 -15.558  0.00  0.00    +0.136 C 
ATOM     31  C   UNL     1      29.810 -25.433 -15.011  0.00  0.00    +0.029 C 
ATOM     32  C   UNL     1      28.021 -22.187 -15.770  0.00  0.00    +0.033 C 
ENDBRANCH  24  26
ENDBRANCH  21  24
ENDBRANCH   4  22
TORSDOF 6
ENDMDL
MODEL 7
REMARK VINA RESULT:     -12.0      3.163      5.240
REMARK  Name = 5289110
REMARK  6 active torsions:
REMARK  status: ('A' for Active; 'I' for Inactive)
REMARK    1  A    between atoms: C_3  and  C_9
REMARK    2  A    between atoms: C_4  and  C_22
REMARK    3  A    between atoms: N_8  and  C_11
REMARK    4  A    between atoms: C_11  and  C_13
REMARK    5  A    between atoms: N_21  and  C_24
REMARK    6  A    between atoms: C_24  and  C_26
REMARK                            x       y       z     vdW  Elec       q    Type
REMARK                         _______ _______ _______ _____ _____    ______ ____
ROOT
ATOM      1  N   UNL     1      35.974 -20.187 -19.622  0.00  0.00    -0.244 NA
ATOM      2  N   UNL     1      36.615 -18.532 -21.252  0.00  0.00    -0.244 NA
ATOM      3  C   UNL     1      34.712 -20.109 -20.093  0.00  0.00    +0.115 C 
ATOM      4  C   UNL     1      35.339 -18.527 -21.649  0.00  0.00    +0.115 C 
ATOM      5  C   UNL     1      34.330 -19.280 -21.128  0.00  0.00    +0.100 C 
ATOM      6  C   UNL     1      36.861 -19.382 -20.237  0.00  0.00    +0.250 C 
ENDROOT
BRANCH   3   9
ATOM      7  O   UNL     1      32.535 -20.909 -19.749  0.00  0.00    -0.269 OA
ATOM      8  N   UNL     1      34.225 -21.870 -18.487  0.00  0.00    -0.296 N 
ATOM      9  C   UNL     1      33.739 -20.970 -19.443  0.00  0.00    +0.260 C 
ATOM     10  H   UNL     1      35.190 -21.866 -18.292  0.00  0.00    +0.150 HD
BRANCH   8  11
ATOM     11  C   UNL     1      33.388 -22.806 -17.771  0.00  0.00    +0.117 C 
BRANCH  11  13
ATOM     12  F   UNL     1      35.206 -23.680 -12.523  0.00  0.00    -0.205 F 
ATOM     13  C   UNL     1      33.876 -23.038 -16.370  0.00  0.00    -0.003 C 
ATOM     14  C   UNL     1      35.223 -22.864 -16.072  0.00  0.00    -0.005 C 
ATOM     15  C   UNL     1      35.676 -23.080 -14.771  0.00  0.00    +0.005 C 
ATOM     16  C   UNL     1      32.976 -23.425 -15.383  0.00  0.00    -0.000 C 
ATOM     17  C   UNL     1      34.780 -23.469 -13.775  0.00  0.00    +0.136 C 
ATOM     18  C   UNL     1      33.430 -23.641 -14.082  0.00  0.00    +0.029 C 
ATOM     19  C   UNL     1      37.120 -22.893 -14.447  0.00  0.00    +0.033 C 
ENDBRANCH  11  13
ENDBRANCH   8  11
ENDBRANCH   3   9
BRANCH   4  22
ATOM     20  O   UNL     1      34.526 -18.030 -23.792  0.00  0.00    -0.269 OA
ATOM     21  N   UNL     1      35.371 -16.262 -22.551  0.00  0.00    -0.296 N 
ATOM     22  C   UNL     1      35.046 -17.593 -22.768  0.00  0.00    +0.260 C 
ATOM     23  H   UNL     1      35.786 -16.009 -21.695  0.00  0.00    +0.150 HD
BRANCH  21  24
ATOM     24  C   UNL     1      35.125 -15.234 -23.531  0.00  0.00    +0.117 C 
BRANCH  24  26
ATOM     25  F   UNL     1      32.018 -11.018 -21.486  0.00  0.00    -0.205 F 
ATOM     26  C   UNL     1      34.300 -14.117 -22.985  0.00  0.00    -0.003 C 
ATOM     27  C   UNL     1      33.628 -14.273 -21.773  0.00  0.00    -0.005 C 
ATOM     28  C   UNL     1      32.856 -13.228 -21.264  0.00  0.00    +0.005 C 
ATOM     29  C   UNL     1      34.201 -12.916 -23.688  0.00  0.00    -0.000 C 
ATOM     30  C   UNL     1      32.757 -12.028 -21.967  0.00  0.00    +0.136 C 
ATOM     31  C   UNL     1      33.429 -11.872 -23.180  0.00  0.00    +0.029 C 
ATOM     32  C   UNL     1      32.140 -13.398 -19.967  0.00  0.00    +0.033 C 
ENDBRANCH  24  26
ENDBRANCH  21  24
ENDBRANCH   4  22
TORSDOF 6
ENDMDL
MODEL 8
REMARK VINA RESULT:     -11.9      1.899      2.947
REMARK  Name = 5289110
REMARK  6 active torsions:
REMARK  status: ('A' for Active; 'I' for Inactive)
REMARK    1  A    between atoms: C_3  and  C_9
REMARK    2  A    between atoms: C_4  and  C_22
REMARK    3  A    between atoms: N_8  and  C_11
REMARK    4  A    between atoms: C_11  and  C_13
REMARK    5  A    between atoms: N_21  and  C_24
REMARK    6  A    between atoms: C_24  and  C_26
REMARK                            x       y       z     vdW  Elec       q    Type
REMARK                         _______ _______ _______ _____ _____    ______ ____
ROOT
ATOM      1  N   UNL     1      34.039 -14.769 -24.710  0.00  0.00    -0.244 NA
ATOM      2  N   UNL     1      32.964 -12.880 -23.668  0.00  0.00    -0.244 NA
ATOM      3  C   UNL     1      34.244 -15.284 -23.481  0.00  0.00    +0.115 C 
ATOM      4  C   UNL     1      33.213 -13.470 -22.496  0.00  0.00    +0.115 C 
ATOM      5  C   UNL     1      33.843 -14.665 -22.313  0.00  0.00    +0.100 C 
ATOM      6  C   UNL     1      33.403 -13.581 -24.730  0.00  0.00    +0.250 C 
ENDROOT
BRANCH   3   9
ATOM      7  O   UNL     1      34.896 -17.334 -24.413  0.00  0.00    -0.269 OA
ATOM      8  N   UNL     1      35.630 -16.870 -22.264  0.00  0.00    -0.296 N 
ATOM      9  C   UNL     1      34.927 -16.564 -23.437  0.00  0.00    +0.260 C 
ATOM     10  H   UNL     1      35.614 -16.216 -21.529  0.00  0.00    +0.150 HD
BRANCH   8  11
ATOM     11  C   UNL     1      36.378 -18.092 -22.075  0.00  0.00    +0.117 C 
BRANCH  11  13
ATOM     12  F   UNL     1      33.697 -21.686 -18.684  0.00  0.00    -0.205 F 
ATOM     13  C   UNL     1      35.665 -19.052 -21.167  0.00  0.00    -0.003 C 
ATOM     14  C   UNL     1      36.389 -19.787 -20.236  0.00  0.00    -0.005 C 
ATOM     15  C   UNL     1      35.726 -20.679 -19.393  0.00  0.00    +0.005 C 
ATOM     16  C   UNL     1      34.286 -19.198 -21.268  0.00  0.00    -0.000 C 
ATOM     17  C   UNL     1      34.342 -20.831 -19.488  0.00  0.00    +0.136 C 
ATOM     18  C   UNL     1      33.623 -20.090 -20.425  0.00  0.00    +0.029 C 
ATOM     19  C   UNL     1      36.499 -21.468 -18.391  0.00  0.00    +0.033 C 
ENDBRANCH  11  13
ENDBRANCH   8  11
ENDBRANCH   3   9
BRANCH   4  22
ATOM     20  O   UNL     1      32.873 -13.201 -20.191  0.00  0.00    -0.269 OA
ATOM     21  N   UNL     1      32.184 -11.465 -21.567  0.00  0.00    -0.296 N 
ATOM     22  C   UNL     1      32.738 -12.711 -21.310  0.00  0.00    +0.260 C 
ATOM     23  H   UNL     1      32.119 -11.159 -22.501  0.00  0.00    +0.150 HD
BRANCH  21  24
ATOM     24  C   UNL     1      31.701 -10.601 -20.520  0.00  0.00    +0.117 C 
BRANCH  24  26
ATOM     25  F   UNL     1      32.464  -5.160 -21.712  0.00  0.00    -0.205 F 
ATOM     26  C   UNL     1      31.902  -9.157 -20.839  0.00  0.00    -0.003 C 
ATOM     27  C   UNL     1      31.375  -8.622 -22.015  0.00  0.00    -0.005 C 
ATOM     28  C   UNL     1      31.563  -7.272 -22.312  0.00  0.00    +0.005 C 
ATOM     29  C   UNL     1      32.616  -8.342 -19.962  0.00  0.00    -0.000 C 
ATOM     30  C   UNL     1      32.278  -6.458 -21.435  0.00  0.00    +0.136 C 
ATOM     31  C   UNL     1      32.805  -6.993 -20.259  0.00  0.00    +0.029 C 
ATOM     32  C   UNL     1      30.997  -6.703 -23.570  0.00  0.00    +0.033 C 
ENDBRANCH  24  26
ENDBRANCH  21  24
ENDBRANCH   4  22
TORSDOF 6
ENDMDL
MODEL 9
REMARK VINA RESULT:     -11.9      1.896     10.064
REMARK  Name = 5289110
REMARK  6 active torsions:
REMARK  status: ('A' for Active; 'I' for Inactive)
REMARK    1  A    between atoms: C_3  and  C_9
REMARK    2  A    between atoms: C_4  and  C_22
REMARK    3  A    between atoms: N_8  and  C_11
REMARK    4  A    between atoms: C_11  and  C_13
REMARK    5  A    between atoms: N_21  and  C_24
REMARK    6  A    between atoms: C_24  and  C_26
REMARK                            x       y       z     vdW  Elec       q    Type
REMARK                         _______ _______ _______ _____ _____    ______ ____
ROOT
ATOM      1  N   UNL     1      32.924 -12.909 -23.721  0.00  0.00    -0.244 NA
ATOM      2  N   UNL     1      33.999 -14.799 -24.761  0.00  0.00    -0.244 NA
ATOM      3  C   UNL     1      33.189 -13.466 -22.521  0.00  0.00    +0.115 C 
ATOM      4  C   UNL     1      34.215 -15.269 -23.530  0.00  0.00    +0.115 C 
ATOM      5  C   UNL     1      33.846 -14.670 -22.362  0.00  0.00    +0.100 C 
ATOM      6  C   UNL     1      33.350 -13.619 -24.783  0.00  0.00    +0.250 C 
ENDROOT
BRANCH   3   9
ATOM      7  O   UNL     1      32.890 -13.172 -20.214  0.00  0.00    -0.269 OA
ATOM      8  N   UNL     1      32.153 -11.466 -21.600  0.00  0.00    -0.296 N 
ATOM      9  C   UNL     1      32.738 -12.717 -21.362  0.00  0.00    +0.260 C 
ATOM     10  H   UNL     1      32.063 -11.166 -22.533  0.00  0.00    +0.150 HD
BRANCH   8  11
ATOM     11  C   UNL     1      31.676 -10.593 -20.553  0.00  0.00    +0.117 C 
BRANCH  11  13
ATOM     12  F   UNL     1      32.414  -5.169 -21.836  0.00  0.00    -0.205 F 
ATOM     13  C   UNL     1      31.871  -9.144 -20.898  0.00  0.00    -0.003 C 
ATOM     14  C   UNL     1      31.340  -8.641 -22.079  0.00  0.00    -0.005 C 
ATOM     15  C   UNL     1      31.521  -7.295 -22.400  0.00  0.00    +0.005 C 
ATOM     16  C   UNL     1      32.582  -8.321 -20.031  0.00  0.00    -0.000 C 
ATOM     17  C   UNL     1      32.233  -6.462 -21.536  0.00  0.00    +0.136 C 
ATOM     18  C   UNL     1      32.763  -6.975 -20.352  0.00  0.00    +0.029 C 
ATOM     19  C   UNL     1      30.952  -6.749 -23.666  0.00  0.00    +0.033 C 
ENDBRANCH  11  13
ENDBRANCH   8  11
ENDBRANCH   3   9
BRANCH   4  22
ATOM     20  O   UNL     1      34.929 -17.291 -24.480  0.00  0.00    -0.269 OA
ATOM     21  N   UNL     1      35.575 -16.870 -22.292  0.00  0.00    -0.296 N 
ATOM     22  C   UNL     1      34.928 -16.571 -23.484  0.00  0.00    +0.260 C 
ATOM     23  H   UNL     1      35.516 -16.227 -21.548  0.00  0.00    +0.150 HD
BRANCH  21  24
ATOM     24  C   UNL     1      36.328 -18.083 -22.101  0.00  0.00    +0.117 C 
BRANCH  24  26
ATOM     25  F   UNL     1      33.709 -21.699 -18.686  0.00  0.00    -0.205 F 
ATOM     26  C   UNL     1      35.636 -19.043 -21.194  0.00  0.00    -0.003 C 
ATOM     27  C   UNL     1      36.373 -19.787 -20.272  0.00  0.00    -0.005 C 
ATOM     28  C   UNL     1      35.725 -20.685 -19.424  0.00  0.00    +0.005 C 
ATOM     29  C   UNL     1      34.252 -19.197 -21.266  0.00  0.00    -0.000 C 
ATOM     30  C   UNL     1      34.341 -20.839 -19.497  0.00  0.00    +0.136 C 
ATOM     31  C   UNL     1      33.604 -20.095 -20.419  0.00  0.00    +0.029 C 
ATOM     32  C   UNL     1      36.516 -21.479 -18.439  0.00  0.00    +0.033 C 
ENDBRANCH  24  26
ENDBRANCH  21  24
ENDBRANCH   4  22
TORSDOF 6
ENDMDL
