MODEL 1
REMARK VINA RESULT:     -12.2      0.000      0.000
REMARK  Name = 15985904
REMARK  7 active torsions:
REMARK  status: ('A' for Active; 'I' for Inactive)
REMARK    1  A    between atoms: N_1  and  S_6
REMARK    2  A    between atoms: C_4  and  C_21
REMARK    3  A    between atoms: S_6  and  C_9
REMARK    4  A    between atoms: C_10  and  C_17
REMARK    5  A    between atoms: C_22  and  C_25
REMARK    6  A    between atoms: N_24  and  C_27
REMARK    7  A    between atoms: C_28  and  N_33
REMARK                            x       y       z     vdW  Elec       q    Type
REMARK                         _______ _______ _______ _____ _____    ______ ____
ROOT
ATOM      1  N   UNL     1      35.267 -17.009 -21.590  0.00  0.00    -0.167 N 
ATOM      2  C   UNL     1      34.952 -16.034 -22.443  0.00  0.00    +0.089 C 
ATOM      3  C   UNL     1      35.194 -16.658 -20.306  0.00  0.00    +0.089 C 
ATOM      4  C   UNL     1      34.642 -14.945 -21.659  0.00  0.00    +0.018 C 
ATOM      5  C   UNL     1      34.796 -15.340 -20.306  0.00  0.00    +0.019 C 
ENDROOT
BRANCH   1   6
ATOM      6  S   UNL     1      35.733 -18.592 -22.105  0.00  0.00    +0.080 S 
ATOM      7  O   UNL     1      37.178 -18.493 -22.191  0.00  0.00    -0.149 OA
ATOM      8  O   UNL     1      34.904 -18.894 -23.257  0.00  0.00    -0.149 OA
BRANCH   6   9
ATOM      9  C   UNL     1      35.272 -19.663 -20.805  0.00  0.00    +0.126 C 
ATOM     10  C   UNL     1      34.537 -21.373 -18.728  0.00  0.00    +0.003 C 
ATOM     11  C   UNL     1      33.924 -19.929 -20.565  0.00  0.00    +0.020 C 
ATOM     12  C   UNL     1      36.252 -20.253 -20.007  0.00  0.00    +0.020 C 
ATOM     13  C   UNL     1      33.556 -20.783 -19.526  0.00  0.00    +0.001 C 
ATOM     14  C   UNL     1      35.884 -21.107 -18.968  0.00  0.00    +0.001 C 
BRANCH  10  17
ATOM     15  N   UNL     1      34.281 -23.520 -15.890  0.00  0.00    -0.208 N 
ATOM     16  N   UNL     1      32.984 -23.590 -16.234  0.00  0.00    -0.176 NA
ATOM     17  C   UNL     1      34.158 -22.253 -17.658  0.00  0.00    +0.037 C 
ATOM     18  C   UNL     1      35.029 -22.729 -16.713  0.00  0.00    +0.086 C 
ATOM     19  C   UNL     1      32.916 -22.812 -17.317  0.00  0.00    +0.119 C 
ATOM     20  C   UNL     1      34.757 -24.247 -14.737  0.00  0.00    +0.140 C 
ENDBRANCH  10  17
ENDBRANCH   6   9
ENDBRANCH   1   6
BRANCH   4  21
ATOM     21  C   UNL     1      34.247 -13.681 -22.146  0.00  0.00    +0.006 C 
ATOM     22  C   UNL     1      34.043 -13.299 -23.439  0.00  0.00    +0.058 C 
BRANCH  22  25
ATOM     23  O   UNL     1      33.504 -11.545 -24.951  0.00  0.00    -0.270 OA
ATOM     24  N   UNL     1      33.402 -11.153 -22.638  0.00  0.00    -0.279 N 
ATOM     25  C   UNL     1      33.621 -11.905 -23.785  0.00  0.00    +0.250 C 
ATOM     26  H   UNL     1      33.547 -11.614 -21.779  0.00  0.00    +0.155 HD
BRANCH  24  27
ATOM     27  C   UNL     1      32.995  -9.798 -22.564  0.00  0.00    +0.064 C 
ATOM     28  C   UNL     1      31.814  -9.456 -21.925  0.00  0.00    +0.055 C 
ATOM     29  C   UNL     1      33.806  -8.836 -23.144  0.00  0.00    +0.016 C 
ATOM     30  C   UNL     1      31.434  -8.115 -21.865  0.00  0.00    +0.015 C 
ATOM     31  C   UNL     1      33.426  -7.495 -23.084  0.00  0.00    +0.001 C 
ATOM     32  C   UNL     1      32.240  -7.135 -22.445  0.00  0.00    +0.001 C 
BRANCH  28  33
ATOM     33  N   UNL     1      30.984 -10.431 -21.330  0.00  0.00    -0.356 N 
ATOM     34  H   UNL     1      30.335 -10.927 -21.881  0.00  0.00    +0.142 HD
ATOM     35  H   UNL     1      31.053 -10.615 -20.366  0.00  0.00    +0.142 HD
ENDBRANCH  28  33
ENDBRANCH  24  27
ENDBRANCH  22  25
ENDBRANCH   4  21
TORSDOF 7
ENDMDL
MODEL 2
REMARK VINA RESULT:     -11.9      2.517     12.027
REMARK  Name = 15985904
REMARK  7 active torsions:
REMARK  status: ('A' for Active; 'I' for Inactive)
REMARK    1  A    between atoms: N_1  and  S_6
REMARK    2  A    between atoms: C_4  and  C_21
REMARK    3  A    between atoms: S_6  and  C_9
REMARK    4  A    between atoms: C_10  and  C_17
REMARK    5  A    between atoms: C_22  and  C_25
REMARK    6  A    between atoms: N_24  and  C_27
REMARK    7  A    between atoms: C_28  and  N_33
REMARK                            x       y       z     vdW  Elec       q    Type
REMARK                         _______ _______ _______ _____ _____    ______ ____
ROOT
ATOM      1  N   UNL     1      35.284 -19.653 -20.656  0.00  0.00    -0.167 N 
ATOM      2  C   UNL     1      35.810 -20.442 -19.719  0.00  0.00    +0.089 C 
ATOM      3  C   UNL     1      33.956 -19.725 -20.750  0.00  0.00    +0.089 C 
ATOM      4  C   UNL     1      34.741 -21.092 -19.142  0.00  0.00    +0.018 C 
ATOM      5  C   UNL     1      33.568 -20.638 -19.795  0.00  0.00    +0.019 C 
ENDROOT
BRANCH   1   6
ATOM      6  S   UNL     1      36.242 -18.625 -21.663  0.00  0.00    +0.080 S 
ATOM      7  O   UNL     1      36.133 -19.256 -22.966  0.00  0.00    -0.149 OA
ATOM      8  O   UNL     1      37.511 -18.469 -20.978  0.00  0.00    -0.149 OA
BRANCH   6   9
ATOM      9  C   UNL     1      35.429 -17.080 -21.665  0.00  0.00    +0.126 C 
ATOM     10  C   UNL     1      34.131 -14.610 -21.669  0.00  0.00    +0.003 C 
ATOM     11  C   UNL     1      35.019 -16.509 -22.870  0.00  0.00    +0.020 C 
ATOM     12  C   UNL     1      35.189 -16.416 -20.462  0.00  0.00    +0.020 C 
ATOM     13  C   UNL     1      34.370 -15.275 -22.872  0.00  0.00    +0.001 C 
ATOM     14  C   UNL     1      34.540 -15.181 -20.464  0.00  0.00    +0.001 C 
BRANCH  10  17
ATOM     15  N   UNL     1      32.170 -11.690 -21.077  0.00  0.00    -0.208 N 
ATOM     16  N   UNL     1      32.745 -11.245 -22.207  0.00  0.00    -0.176 NA
ATOM     17  C   UNL     1      33.463 -13.339 -21.671  0.00  0.00    +0.037 C 
ATOM     18  C   UNL     1      32.568 -12.942 -20.711  0.00  0.00    +0.086 C 
ATOM     19  C   UNL     1      33.535 -12.260 -22.565  0.00  0.00    +0.119 C 
ATOM     20  C   UNL     1      31.227 -10.852 -20.374  0.00  0.00    +0.140 C 
ENDBRANCH  10  17
ENDBRANCH   6   9
ENDBRANCH   1   6
BRANCH   4  21
ATOM     21  C   UNL     1      34.834 -22.031 -18.094  0.00  0.00    +0.006 C 
ATOM     22  C   UNL     1      35.683 -22.028 -17.027  0.00  0.00    +0.058 C 
BRANCH  22  25
ATOM     23  O   UNL     1      34.709 -23.900 -15.931  0.00  0.00    -0.270 OA
ATOM     24  N   UNL     1      36.775 -23.069 -15.189  0.00  0.00    -0.279 N 
ATOM     25  C   UNL     1      35.646 -23.112 -15.995  0.00  0.00    +0.250 C 
ATOM     26  H   UNL     1      37.429 -22.360 -15.390  0.00  0.00    +0.155 HD
BRANCH  24  27
ATOM     27  C   UNL     1      37.093 -23.929 -14.109  0.00  0.00    +0.064 C 
ATOM     28  C   UNL     1      36.287 -23.967 -12.983  0.00  0.00    +0.055 C 
ATOM     29  C   UNL     1      38.224 -24.724 -14.213  0.00  0.00    +0.016 C 
ATOM     30  C   UNL     1      36.621 -24.822 -11.933  0.00  0.00    +0.015 C 
ATOM     31  C   UNL     1      38.557 -25.579 -13.163  0.00  0.00    +0.001 C 
ATOM     32  C   UNL     1      37.756 -25.628 -12.023  0.00  0.00    +0.001 C 
BRANCH  28  33
ATOM     33  N   UNL     1      35.132 -23.162 -12.870  0.00  0.00    -0.356 N 
ATOM     34  H   UNL     1      34.653 -23.107 -12.012  0.00  0.00    +0.142 HD
ATOM     35  H   UNL     1      34.807 -22.655 -13.649  0.00  0.00    +0.142 HD
ENDBRANCH  28  33
ENDBRANCH  24  27
ENDBRANCH  22  25
ENDBRANCH   4  21
TORSDOF 7
ENDMDL
MODEL 3
REMARK VINA RESULT:     -11.7      2.471     11.571
REMARK  Name = 15985904
REMARK  7 active torsions:
REMARK  status: ('A' for Active; 'I' for Inactive)
REMARK    1  A    between atoms: N_1  and  S_6
REMARK    2  A    between atoms: C_4  and  C_21
REMARK    3  A    between atoms: S_6  and  C_9
REMARK    4  A    between atoms: C_10  and  C_17
REMARK    5  A    between atoms: C_22  and  C_25
REMARK    6  A    between atoms: N_24  and  C_27
REMARK    7  A    between atoms: C_28  and  N_33
REMARK                            x       y       z     vdW  Elec       q    Type
REMARK                         _______ _______ _______ _____ _____    ______ ____
ROOT
ATOM      1  N   UNL     1      34.650 -19.441 -20.923  0.00  0.00    -0.167 N 
ATOM      2  C   UNL     1      34.860 -20.200 -19.847  0.00  0.00    +0.089 C 
ATOM      3  C   UNL     1      33.389 -19.441 -21.356  0.00  0.00    +0.089 C 
ATOM      4  C   UNL     1      33.634 -20.750 -19.540  0.00  0.00    +0.018 C 
ATOM      5  C   UNL     1      32.704 -20.270 -20.495  0.00  0.00    +0.019 C 
ENDROOT
BRANCH   1   6
ATOM      6  S   UNL     1      35.905 -18.535 -21.691  0.00  0.00    +0.080 S 
ATOM      7  O   UNL     1      36.030 -19.185 -22.983  0.00  0.00    -0.149 OA
ATOM      8  O   UNL     1      36.998 -18.483 -20.737  0.00  0.00    -0.149 OA
BRANCH   6   9
ATOM      9  C   UNL     1      35.270 -16.920 -21.881  0.00  0.00    +0.126 C 
ATOM     10  C   UNL     1      34.256 -14.339 -22.185  0.00  0.00    +0.003 C 
ATOM     11  C   UNL     1      34.971 -16.433 -23.154  0.00  0.00    +0.020 C 
ATOM     12  C   UNL     1      35.061 -16.115 -20.761  0.00  0.00    +0.020 C 
ATOM     13  C   UNL     1      34.465 -15.143 -23.306  0.00  0.00    +0.001 C 
ATOM     14  C   UNL     1      34.554 -14.825 -20.913  0.00  0.00    +0.001 C 
BRANCH  10  17
ATOM     15  N   UNL     1      32.573 -11.199 -22.001  0.00  0.00    -0.208 N 
ATOM     16  N   UNL     1      33.307 -10.899 -23.086  0.00  0.00    -0.176 NA
ATOM     17  C   UNL     1      33.734 -13.010 -22.342  0.00  0.00    +0.037 C 
ATOM     18  C   UNL     1      32.793 -12.454 -21.515  0.00  0.00    +0.086 C 
ATOM     19  C   UNL     1      34.015 -12.013 -23.289  0.00  0.00    +0.119 C 
ATOM     20  C   UNL     1      31.660 -10.219 -21.461  0.00  0.00    +0.140 C 
ENDBRANCH  10  17
ENDBRANCH   6   9
ENDBRANCH   1   6
BRANCH   4  21
ATOM     21  C   UNL     1      33.387 -21.627 -18.464  0.00  0.00    +0.006 C 
ATOM     22  C   UNL     1      34.287 -22.341 -17.730  0.00  0.00    +0.058 C 
BRANCH  22  25
ATOM     23  O   UNL     1      34.614 -24.054 -16.113  0.00  0.00    -0.270 OA
ATOM     24  N   UNL     1      32.529 -22.986 -16.262  0.00  0.00    -0.279 N 
ATOM     25  C   UNL     1      33.850 -23.234 -16.610  0.00  0.00    +0.250 C 
ATOM     26  H   UNL     1      32.067 -22.283 -16.776  0.00  0.00    +0.155 HD
BRANCH  24  27
ATOM     27  C   UNL     1      31.771 -23.628 -15.253  0.00  0.00    +0.064 C 
ATOM     28  C   UNL     1      30.386 -23.603 -15.295  0.00  0.00    +0.055 C 
ATOM     29  C   UNL     1      32.449 -24.277 -14.234  0.00  0.00    +0.016 C 
ATOM     30  C   UNL     1      29.661 -24.243 -14.290  0.00  0.00    +0.015 C 
ATOM     31  C   UNL     1      31.724 -24.917 -13.230  0.00  0.00    +0.001 C 
ATOM     32  C   UNL     1      30.330 -24.900 -13.257  0.00  0.00    +0.001 C 
BRANCH  28  33
ATOM     33  N   UNL     1      29.687 -22.945 -16.331  0.00  0.00    -0.356 N 
ATOM     34  H   UNL     1      28.998 -23.428 -16.844  0.00  0.00    +0.142 HD
ATOM     35  H   UNL     1      29.888 -22.005 -16.542  0.00  0.00    +0.142 HD
ENDBRANCH  28  33
ENDBRANCH  24  27
ENDBRANCH  22  25
ENDBRANCH   4  21
TORSDOF 7
ENDMDL
MODEL 4
REMARK VINA RESULT:     -11.4      3.040      5.051
REMARK  Name = 15985904
REMARK  7 active torsions:
REMARK  status: ('A' for Active; 'I' for Inactive)
REMARK    1  A    between atoms: N_1  and  S_6
REMARK    2  A    between atoms: C_4  and  C_21
REMARK    3  A    between atoms: S_6  and  C_9
REMARK    4  A    between atoms: C_10  and  C_17
REMARK    5  A    between atoms: C_22  and  C_25
REMARK    6  A    between atoms: N_24  and  C_27
REMARK    7  A    between atoms: C_28  and  N_33
REMARK                            x       y       z     vdW  Elec       q    Type
REMARK                         _______ _______ _______ _____ _____    ______ ____
ROOT
ATOM      1  N   UNL     1      34.657 -21.360 -19.264  0.00  0.00    -0.167 N 
ATOM      2  C   UNL     1      34.103 -20.341 -19.921  0.00  0.00    +0.089 C 
ATOM      3  C   UNL     1      35.989 -21.324 -19.220  0.00  0.00    +0.089 C 
ATOM      4  C   UNL     1      35.156 -19.562 -20.348  0.00  0.00    +0.018 C 
ATOM      5  C   UNL     1      36.350 -20.185 -19.905  0.00  0.00    +0.019 C 
ENDROOT
BRANCH   1   6
ATOM      6  S   UNL     1      33.728 -22.621 -18.532  0.00  0.00    +0.080 S 
ATOM      7  O   UNL     1      34.055 -23.778 -19.346  0.00  0.00    -0.149 OA
ATOM      8  O   UNL     1      32.377 -22.104 -18.421  0.00  0.00    -0.149 OA
BRANCH   6   9
ATOM      9  C   UNL     1      34.376 -22.807 -16.922  0.00  0.00    +0.126 C 
ATOM     10  C   UNL     1      35.411 -23.104 -14.348  0.00  0.00    +0.003 C 
ATOM     11  C   UNL     1      33.572 -23.313 -15.901  0.00  0.00    +0.020 C 
ATOM     12  C   UNL     1      35.698 -22.450 -16.656  0.00  0.00    +0.020 C 
ATOM     13  C   UNL     1      34.089 -23.461 -14.614  0.00  0.00    +0.001 C 
ATOM     14  C   UNL     1      36.215 -22.598 -15.369  0.00  0.00    +0.001 C 
BRANCH  10  17
ATOM     15  N   UNL     1      36.102 -23.778 -10.914  0.00  0.00    -0.208 N 
ATOM     16  N   UNL     1      37.295 -23.222 -11.189  0.00  0.00    -0.176 NA
ATOM     17  C   UNL     1      35.943 -23.257 -13.023  0.00  0.00    +0.037 C 
ATOM     18  C   UNL     1      35.255 -23.823 -11.981  0.00  0.00    +0.086 C 
ATOM     19  C   UNL     1      37.190 -22.906 -12.482  0.00  0.00    +0.119 C 
ATOM     20  C   UNL     1      35.827 -24.259  -9.581  0.00  0.00    +0.140 C 
ENDBRANCH  10  17
ENDBRANCH   6   9
ENDBRANCH   1   6
BRANCH   4  21
ATOM     21  C   UNL     1      35.033 -18.369 -21.090  0.00  0.00    +0.006 C 
ATOM     22  C   UNL     1      35.318 -17.095 -20.697  0.00  0.00    +0.058 C 
BRANCH  22  25
ATOM     23  O   UNL     1      35.703 -15.874 -22.701  0.00  0.00    -0.270 OA
ATOM     24  N   UNL     1      34.255 -15.000 -21.073  0.00  0.00    -0.279 N 
ATOM     25  C   UNL     1      35.128 -15.931 -21.619  0.00  0.00    +0.250 C 
ATOM     26  H   UNL     1      33.887 -15.216 -20.184  0.00  0.00    +0.155 HD
BRANCH  24  27
ATOM     27  C   UNL     1      33.834 -13.776 -21.647  0.00  0.00    +0.064 C 
ATOM     28  C   UNL     1      32.761 -13.083 -21.110  0.00  0.00    +0.055 C 
ATOM     29  C   UNL     1      34.521 -13.297 -22.751  0.00  0.00    +0.016 C 
ATOM     30  C   UNL     1      32.364 -11.880 -21.694  0.00  0.00    +0.015 C 
ATOM     31  C   UNL     1      34.125 -12.094 -23.334  0.00  0.00    +0.001 C 
ATOM     32  C   UNL     1      33.046 -11.385 -22.806  0.00  0.00    +0.001 C 
BRANCH  28  33
ATOM     33  N   UNL     1      32.056 -13.563 -19.984  0.00  0.00    -0.356 N 
ATOM     34  H   UNL     1      31.410 -12.980 -19.523  0.00  0.00    +0.142 HD
ATOM     35  H   UNL     1      32.211 -14.480 -19.661  0.00  0.00    +0.142 HD
ENDBRANCH  28  33
ENDBRANCH  24  27
ENDBRANCH  22  25
ENDBRANCH   4  21
TORSDOF 7
ENDMDL
MODEL 5
REMARK VINA RESULT:     -11.3      5.269      8.575
REMARK  Name = 15985904
REMARK  7 active torsions:
REMARK  status: ('A' for Active; 'I' for Inactive)
REMARK    1  A    between atoms: N_1  and  S_6
REMARK    2  A    between atoms: C_4  and  C_21
REMARK    3  A    between atoms: S_6  and  C_9
REMARK    4  A    between atoms: C_10  and  C_17
REMARK    5  A    between atoms: C_22  and  C_25
REMARK    6  A    between atoms: N_24  and  C_27
REMARK    7  A    between atoms: C_28  and  N_33
REMARK                            x       y       z     vdW  Elec       q    Type
REMARK                         _______ _______ _______ _____ _____    ______ ____
ROOT
ATOM      1  N   UNL     1      36.137 -23.290 -15.125  0.00  0.00    -0.167 N 
ATOM      2  C   UNL     1      35.786 -22.664 -16.249  0.00  0.00    +0.089 C 
ATOM      3  C   UNL     1      37.314 -22.908 -14.630  0.00  0.00    +0.089 C 
ATOM      4  C   UNL     1      36.818 -21.793 -16.522  0.00  0.00    +0.018 C 
ATOM      5  C   UNL     1      37.785 -21.948 -15.498  0.00  0.00    +0.019 C 
ENDROOT
BRANCH   1   6
ATOM      6  S   UNL     1      35.149 -24.493 -14.374  0.00  0.00    +0.080 S 
ATOM      7  O   UNL     1      35.485 -24.357 -12.968  0.00  0.00    -0.149 OA
ATOM      8  O   UNL     1      35.385 -25.719 -15.115  0.00  0.00    -0.149 OA
BRANCH   6   9
ATOM      9  C   UNL     1      33.501 -23.992 -14.658  0.00  0.00    +0.126 C 
ATOM     10  C   UNL     1      30.868 -23.190 -15.110  0.00  0.00    +0.003 C 
ATOM     11  C   UNL     1      33.115 -23.547 -15.922  0.00  0.00    +0.020 C 
ATOM     12  C   UNL     1      32.570 -24.036 -13.620  0.00  0.00    +0.020 C 
ATOM     13  C   UNL     1      31.799 -23.146 -16.148  0.00  0.00    +0.001 C 
ATOM     14  C   UNL     1      31.254 -23.635 -13.846  0.00  0.00    +0.001 C 
BRANCH  10  17
ATOM     15  N   UNL     1      27.643 -22.326 -16.367  0.00  0.00    -0.208 N 
ATOM     16  N   UNL     1      27.378 -22.022 -15.085  0.00  0.00    -0.176 NA
ATOM     17  C   UNL     1      29.512 -22.777 -15.344  0.00  0.00    +0.037 C 
ATOM     18  C   UNL     1      28.910 -22.784 -16.576  0.00  0.00    +0.086 C 
ATOM     19  C   UNL     1      28.527 -22.301 -14.465  0.00  0.00    +0.119 C 
ATOM     20  C   UNL     1      26.619 -22.155 -17.370  0.00  0.00    +0.140 C 
ENDBRANCH  10  17
ENDBRANCH   6   9
ENDBRANCH   1   6
BRANCH   4  21
ATOM     21  C   UNL     1      36.870 -20.920 -17.629  0.00  0.00    +0.006 C 
ATOM     22  C   UNL     1      36.271 -21.060 -18.846  0.00  0.00    +0.058 C 
BRANCH  22  25
ATOM     23  O   UNL     1      37.498 -19.453 -20.097  0.00  0.00    -0.270 OA
ATOM     24  N   UNL     1      35.246 -19.854 -20.622  0.00  0.00    -0.279 N 
ATOM     25  C   UNL     1      36.431 -20.029 -19.919  0.00  0.00    +0.250 C 
ATOM     26  H   UNL     1      34.483 -20.409 -20.336  0.00  0.00    +0.155 HD
BRANCH  24  27
ATOM     27  C   UNL     1      35.010 -18.969 -21.702  0.00  0.00    +0.064 C 
ATOM     28  C   UNL     1      35.115 -17.600 -21.521  0.00  0.00    +0.055 C 
ATOM     29  C   UNL     1      34.674 -19.510 -22.933  0.00  0.00    +0.016 C 
ATOM     30  C   UNL     1      34.878 -16.748 -22.600  0.00  0.00    +0.015 C 
ATOM     31  C   UNL     1      34.437 -18.658 -24.012  0.00  0.00    +0.001 C 
ATOM     32  C   UNL     1      34.538 -17.277 -23.845  0.00  0.00    +0.001 C 
BRANCH  28  33
ATOM     33  N   UNL     1      35.459 -17.041 -20.270  0.00  0.00    -0.356 N 
ATOM     34  H   UNL     1      34.761 -16.641 -19.702  0.00  0.00    +0.142 HD
ATOM     35  H   UNL     1      36.395 -17.052 -19.966  0.00  0.00    +0.142 HD
ENDBRANCH  28  33
ENDBRANCH  24  27
ENDBRANCH  22  25
ENDBRANCH   4  21
TORSDOF 7
ENDMDL
MODEL 6
REMARK VINA RESULT:     -11.1      2.123     11.594
REMARK  Name = 15985904
REMARK  7 active torsions:
REMARK  status: ('A' for Active; 'I' for Inactive)
REMARK    1  A    between atoms: N_1  and  S_6
REMARK    2  A    between atoms: C_4  and  C_21
REMARK    3  A    between atoms: S_6  and  C_9
REMARK    4  A    between atoms: C_10  and  C_17
REMARK    5  A    between atoms: C_22  and  C_25
REMARK    6  A    between atoms: N_24  and  C_27
REMARK    7  A    between atoms: C_28  and  N_33
REMARK                            x       y       z     vdW  Elec       q    Type
REMARK                         _______ _______ _______ _____ _____    ______ ____
ROOT
ATOM      1  N   UNL     1      34.806 -18.045 -22.981  0.00  0.00    -0.167 N 
ATOM      2  C   UNL     1      34.173 -19.022 -22.331  0.00  0.00    +0.089 C 
ATOM      3  C   UNL     1      35.965 -17.682 -22.431  0.00  0.00    +0.089 C 
ATOM      4  C   UNL     1      34.981 -19.335 -21.260  0.00  0.00    +0.018 C 
ATOM      5  C   UNL     1      36.115 -18.486 -21.323  0.00  0.00    +0.019 C 
ENDROOT
BRANCH   1   6
ATOM      6  S   UNL     1      34.177 -17.311 -24.414  0.00  0.00    +0.080 S 
ATOM      7  O   UNL     1      32.884 -17.954 -24.566  0.00  0.00    -0.149 OA
ATOM      8  O   UNL     1      35.224 -17.425 -25.411  0.00  0.00    -0.149 OA
BRANCH   6   9
ATOM      9  C   UNL     1      33.974 -15.621 -24.025  0.00  0.00    +0.126 C 
ATOM     10  C   UNL     1      33.651 -12.920 -23.405  0.00  0.00    +0.003 C 
ATOM     11  C   UNL     1      33.382 -14.759 -24.949  0.00  0.00    +0.020 C 
ATOM     12  C   UNL     1      34.405 -15.132 -22.792  0.00  0.00    +0.020 C 
ATOM     13  C   UNL     1      33.221 -13.409 -24.639  0.00  0.00    +0.001 C 
ATOM     14  C   UNL     1      34.244 -13.782 -22.482  0.00  0.00    +0.001 C 
BRANCH  10  17
ATOM     15  N   UNL     1      32.793  -9.707 -22.115  0.00  0.00    -0.208 N 
ATOM     16  N   UNL     1      33.639  -9.257 -23.058  0.00  0.00    -0.176 NA
ATOM     17  C   UNL     1      33.485 -11.530 -23.087  0.00  0.00    +0.037 C 
ATOM     18  C   UNL     1      32.667 -11.065 -22.090  0.00  0.00    +0.086 C 
ATOM     19  C   UNL     1      34.058 -10.378 -23.648  0.00  0.00    +0.119 C 
ATOM     20  C   UNL     1      32.123  -8.768 -21.247  0.00  0.00    +0.140 C 
ENDBRANCH  10  17
ENDBRANCH   6   9
ENDBRANCH   1   6
BRANCH   4  21
ATOM     21  C   UNL     1      34.701 -20.325 -20.295  0.00  0.00    +0.006 C 
ATOM     22  C   UNL     1      35.573 -20.976 -19.473  0.00  0.00    +0.058 C 
BRANCH  22  25
ATOM     23  O   UNL     1      34.246 -22.831 -18.801  0.00  0.00    -0.270 OA
ATOM     24  N   UNL     1      35.760 -21.879 -17.280  0.00  0.00    -0.279 N 
ATOM     25  C   UNL     1      35.103 -22.009 -18.497  0.00  0.00    +0.250 C 
ATOM     26  H   UNL     1      36.424 -21.154 -17.218  0.00  0.00    +0.155 HD
BRANCH  24  27
ATOM     27  C   UNL     1      35.583 -22.672 -16.120  0.00  0.00    +0.064 C 
ATOM     28  C   UNL     1      36.680 -23.082 -15.378  0.00  0.00    +0.055 C 
ATOM     29  C   UNL     1      34.294 -23.020 -15.752  0.00  0.00    +0.016 C 
ATOM     30  C   UNL     1      36.481 -23.861 -14.239  0.00  0.00    +0.015 C 
ATOM     31  C   UNL     1      34.095 -23.800 -14.613  0.00  0.00    +0.001 C 
ATOM     32  C   UNL     1      35.188 -24.221 -13.857  0.00  0.00    +0.001 C 
BRANCH  28  33
ATOM     33  N   UNL     1      37.997 -22.729 -15.745  0.00  0.00    -0.356 N 
ATOM     34  H   UNL     1      38.696 -22.652 -15.056  0.00  0.00    +0.142 HD
ATOM     35  H   UNL     1      38.217 -22.560 -16.690  0.00  0.00    +0.142 HD
ENDBRANCH  28  33
ENDBRANCH  24  27
ENDBRANCH  22  25
ENDBRANCH   4  21
TORSDOF 7
ENDMDL
MODEL 7
REMARK VINA RESULT:     -11.0      2.568      3.984
REMARK  Name = 15985904
REMARK  7 active torsions:
REMARK  status: ('A' for Active; 'I' for Inactive)
REMARK    1  A    between atoms: N_1  and  S_6
REMARK    2  A    between atoms: C_4  and  C_21
REMARK    3  A    between atoms: S_6  and  C_9
REMARK    4  A    between atoms: C_10  and  C_17
REMARK    5  A    between atoms: C_22  and  C_25
REMARK    6  A    between atoms: N_24  and  C_27
REMARK    7  A    between atoms: C_28  and  N_33
REMARK                            x       y       z     vdW  Elec       q    Type
REMARK                         _______ _______ _______ _____ _____    ______ ____
ROOT
ATOM      1  N   UNL     1      33.841 -14.294 -23.837  0.00  0.00    -0.167 N 
ATOM      2  C   UNL     1      34.009 -13.082 -24.366  0.00  0.00    +0.089 C 
ATOM      3  C   UNL     1      33.328 -14.289 -22.607  0.00  0.00    +0.089 C 
ATOM      4  C   UNL     1      33.569 -12.198 -23.406  0.00  0.00    +0.018 C 
ATOM      5  C   UNL     1      33.138 -12.962 -22.292  0.00  0.00    +0.019 C 
ENDROOT
BRANCH   1   6
ATOM      6  S   UNL     1      34.255 -15.749 -24.675  0.00  0.00    +0.080 S 
ATOM      7  O   UNL     1      35.477 -15.386 -25.369  0.00  0.00    -0.149 OA
ATOM      8  O   UNL     1      33.053 -16.157 -25.378  0.00  0.00    -0.149 OA
BRANCH   6   9
ATOM      9  C   UNL     1      34.588 -16.928 -23.432  0.00  0.00    +0.126 C 
ATOM     10  C   UNL     1      35.120 -18.813 -21.445  0.00  0.00    +0.003 C 
ATOM     11  C   UNL     1      34.163 -18.247 -23.590  0.00  0.00    +0.020 C 
ATOM     12  C   UNL     1      35.279 -16.552 -22.280  0.00  0.00    +0.020 C 
ATOM     13  C   UNL     1      34.429 -19.189 -22.597  0.00  0.00    +0.001 C 
ATOM     14  C   UNL     1      35.544 -17.494 -21.287  0.00  0.00    +0.001 C 
BRANCH  10  17
ATOM     15  N   UNL     1      35.103 -21.365 -18.953  0.00  0.00    -0.208 N 
ATOM     16  N   UNL     1      36.417 -21.095 -18.866  0.00  0.00    -0.176 NA
ATOM     17  C   UNL     1      35.393 -19.783 -20.422  0.00  0.00    +0.037 C 
ATOM     18  C   UNL     1      34.443 -20.605 -19.873  0.00  0.00    +0.086 C 
ATOM     19  C   UNL     1      36.586 -20.126 -19.769  0.00  0.00    +0.119 C 
ATOM     20  C   UNL     1      34.525 -22.385 -18.111  0.00  0.00    +0.140 C 
ENDBRANCH  10  17
ENDBRANCH   6   9
ENDBRANCH   1   6
BRANCH   4  21
ATOM     21  C   UNL     1      33.563 -10.794 -23.539  0.00  0.00    +0.006 C 
ATOM     22  C   UNL     1      32.897  -9.875 -22.783  0.00  0.00    +0.058 C 
BRANCH  22  25
ATOM     23  O   UNL     1      33.918  -7.951 -23.739  0.00  0.00    -0.270 OA
ATOM     24  N   UNL     1      31.957  -7.712 -22.470  0.00  0.00    -0.279 N 
ATOM     25  C   UNL     1      33.001  -8.408 -23.064  0.00  0.00    +0.250 C 
ATOM     26  H   UNL     1      31.308  -8.250 -21.960  0.00  0.00    +0.155 HD
BRANCH  24  27
ATOM     27  C   UNL     1      31.720  -6.316 -22.513  0.00  0.00    +0.064 C 
ATOM     28  C   UNL     1      32.168  -5.498 -21.488  0.00  0.00    +0.055 C 
ATOM     29  C   UNL     1      31.035  -5.799 -23.600  0.00  0.00    +0.016 C 
ATOM     30  C   UNL     1      31.923  -4.127 -21.552  0.00  0.00    +0.015 C 
ATOM     31  C   UNL     1      30.790  -4.428 -23.665  0.00  0.00    +0.001 C 
ATOM     32  C   UNL     1      31.233  -3.591 -22.640  0.00  0.00    +0.001 C 
BRANCH  28  33
ATOM     33  N   UNL     1      32.869  -6.017 -20.377  0.00  0.00    -0.356 N 
ATOM     34  H   UNL     1      32.574  -5.799 -19.463  0.00  0.00    +0.142 HD
ATOM     35  H   UNL     1      33.652  -6.597 -20.516  0.00  0.00    +0.142 HD
ENDBRANCH  28  33
ENDBRANCH  24  27
ENDBRANCH  22  25
ENDBRANCH   4  21
TORSDOF 7
ENDMDL
MODEL 8
REMARK VINA RESULT:     -10.9      3.110      4.993
REMARK  Name = 15985904
REMARK  7 active torsions:
REMARK  status: ('A' for Active; 'I' for Inactive)
REMARK    1  A    between atoms: N_1  and  S_6
REMARK    2  A    between atoms: C_4  and  C_21
REMARK    3  A    between atoms: S_6  and  C_9
REMARK    4  A    between atoms: C_10  and  C_17
REMARK    5  A    between atoms: C_22  and  C_25
REMARK    6  A    between atoms: N_24  and  C_27
REMARK    7  A    between atoms: C_28  and  N_33
REMARK                            x       y       z     vdW  Elec       q    Type
REMARK                         _______ _______ _______ _____ _____    ______ ____
ROOT
ATOM      1  N   UNL     1      34.507 -20.758 -19.737  0.00  0.00    -0.167 N 
ATOM      2  C   UNL     1      33.995 -19.869 -20.590  0.00  0.00    +0.089 C 
ATOM      3  C   UNL     1      35.830 -20.679 -19.593  0.00  0.00    +0.089 C 
ATOM      4  C   UNL     1      35.069 -19.139 -21.048  0.00  0.00    +0.018 C 
ATOM      5  C   UNL     1      36.230 -19.651 -20.418  0.00  0.00    +0.019 C 
ENDROOT
BRANCH   1   6
ATOM      6  S   UNL     1      33.538 -21.914 -18.893  0.00  0.00    +0.080 S 
ATOM      7  O   UNL     1      33.472 -23.024 -19.826  0.00  0.00    -0.149 OA
ATOM      8  O   UNL     1      32.356 -21.196 -18.453  0.00  0.00    -0.149 OA
BRANCH   6   9
ATOM      9  C   UNL     1      34.463 -22.360 -17.481  0.00  0.00    +0.126 C 
ATOM     10  C   UNL     1      35.941 -23.075 -15.226  0.00  0.00    +0.003 C 
ATOM     11  C   UNL     1      35.799 -21.975 -17.372  0.00  0.00    +0.020 C 
ATOM     12  C   UNL     1      33.866 -23.102 -16.462  0.00  0.00    +0.020 C 
ATOM     13  C   UNL     1      36.538 -22.333 -16.245  0.00  0.00    +0.001 C 
ATOM     14  C   UNL     1      34.605 -23.460 -15.335  0.00  0.00    +0.001 C 
BRANCH  10  17
ATOM     15  N   UNL     1      37.808 -24.642 -12.621  0.00  0.00    -0.208 N 
ATOM     16  N   UNL     1      37.854 -23.404 -12.099  0.00  0.00    -0.176 NA
ATOM     17  C   UNL     1      36.703 -23.443 -14.065  0.00  0.00    +0.037 C 
ATOM     18  C   UNL     1      37.129 -24.719 -13.801  0.00  0.00    +0.086 C 
ATOM     19  C   UNL     1      37.175 -22.676 -12.989  0.00  0.00    +0.119 C 
ATOM     20  C   UNL     1      38.448 -25.735 -11.929  0.00  0.00    +0.140 C 
ENDBRANCH  10  17
ENDBRANCH   6   9
ENDBRANCH   1   6
BRANCH   4  21
ATOM     21  C   UNL     1      34.991 -18.080 -21.977  0.00  0.00    +0.006 C 
ATOM     22  C   UNL     1      34.496 -18.103 -23.247  0.00  0.00    +0.058 C 
BRANCH  22  25
ATOM     23  O   UNL     1      34.843 -16.916 -25.278  0.00  0.00    -0.270 OA
ATOM     24  N   UNL     1      34.043 -15.772 -23.391  0.00  0.00    -0.279 N 
ATOM     25  C   UNL     1      34.488 -16.876 -24.105  0.00  0.00    +0.250 C 
ATOM     26  H   UNL     1      33.799 -15.930 -22.450  0.00  0.00    +0.155 HD
BRANCH  24  27
ATOM     27  C   UNL     1      33.900 -14.444 -23.863  0.00  0.00    +0.064 C 
ATOM     28  C   UNL     1      34.227 -13.372 -23.048  0.00  0.00    +0.055 C 
ATOM     29  C   UNL     1      33.428 -14.251 -25.151  0.00  0.00    +0.016 C 
ATOM     30  C   UNL     1      34.078 -12.073 -23.534  0.00  0.00    +0.015 C 
ATOM     31  C   UNL     1      33.279 -12.953 -25.638  0.00  0.00    +0.001 C 
ATOM     32  C   UNL     1      33.604 -11.864 -24.829  0.00  0.00    +0.001 C 
BRANCH  28  33
ATOM     33  N   UNL     1      34.711 -13.560 -21.734  0.00  0.00    -0.356 N 
ATOM     34  H   UNL     1      34.457 -12.929 -21.021  0.00  0.00    +0.142 HD
ATOM     35  H   UNL     1      35.300 -14.322 -21.530  0.00  0.00    +0.142 HD
ENDBRANCH  28  33
ENDBRANCH  24  27
ENDBRANCH  22  25
ENDBRANCH   4  21
TORSDOF 7
ENDMDL
MODEL 9
REMARK VINA RESULT:     -10.8      3.354      5.473
REMARK  Name = 15985904
REMARK  7 active torsions:
REMARK  status: ('A' for Active; 'I' for Inactive)
REMARK    1  A    between atoms: N_1  and  S_6
REMARK    2  A    between atoms: C_4  and  C_21
REMARK    3  A    between atoms: S_6  and  C_9
REMARK    4  A    between atoms: C_10  and  C_17
REMARK    5  A    between atoms: C_22  and  C_25
REMARK    6  A    between atoms: N_24  and  C_27
REMARK    7  A    between atoms: C_28  and  N_33
REMARK                            x       y       z     vdW  Elec       q    Type
REMARK                         _______ _______ _______ _____ _____    ______ ____
ROOT
ATOM      1  N   UNL     1      34.664 -21.257 -19.387  0.00  0.00    -0.167 N 
ATOM      2  C   UNL     1      34.033 -20.152 -19.783  0.00  0.00    +0.089 C 
ATOM      3  C   UNL     1      35.985 -21.226 -19.560  0.00  0.00    +0.089 C 
ATOM      4  C   UNL     1      35.019 -19.316 -20.259  0.00  0.00    +0.018 C 
ATOM      5  C   UNL     1      36.255 -19.996 -20.118  0.00  0.00    +0.019 C 
ENDROOT
BRANCH   1   6
ATOM      6  S   UNL     1      33.839 -22.616 -18.707  0.00  0.00    +0.080 S 
ATOM      7  O   UNL     1      34.286 -23.717 -19.541  0.00  0.00    -0.149 OA
ATOM      8  O   UNL     1      32.444 -22.227 -18.614  0.00  0.00    -0.149 OA
BRANCH   6   9
ATOM      9  C   UNL     1      34.468 -22.785 -17.087  0.00  0.00    +0.126 C 
ATOM     10  C   UNL     1      35.474 -23.057 -14.499  0.00  0.00    +0.003 C 
ATOM     11  C   UNL     1      35.775 -22.392 -16.802  0.00  0.00    +0.020 C 
ATOM     12  C   UNL     1      33.664 -23.315 -16.078  0.00  0.00    +0.020 C 
ATOM     13  C   UNL     1      36.278 -22.528 -15.509  0.00  0.00    +0.001 C 
ATOM     14  C   UNL     1      34.167 -23.451 -14.784  0.00  0.00    +0.001 C 
BRANCH  10  17
ATOM     15  N   UNL     1      36.136 -23.716 -11.056  0.00  0.00    -0.208 N 
ATOM     16  N   UNL     1      37.318 -23.130 -11.316  0.00  0.00    -0.176 NA
ATOM     17  C   UNL     1      35.992 -23.197 -13.167  0.00  0.00    +0.037 C 
ATOM     18  C   UNL     1      35.304 -23.781 -12.135  0.00  0.00    +0.086 C 
ATOM     19  C   UNL     1      37.222 -22.816 -12.610  0.00  0.00    +0.119 C 
ATOM     20  C   UNL     1      35.855 -24.204  -9.727  0.00  0.00    +0.140 C 
ENDBRANCH  10  17
ENDBRANCH   6   9
ENDBRANCH   1   6
BRANCH   4  21
ATOM     21  C   UNL     1      34.803 -18.025 -20.783  0.00  0.00    +0.006 C 
ATOM     22  C   UNL     1      35.311 -16.838 -20.345  0.00  0.00    +0.058 C 
BRANCH  22  25
ATOM     23  O   UNL     1      35.048 -14.476 -20.431  0.00  0.00    -0.270 OA
ATOM     24  N   UNL     1      34.602 -15.760 -22.344  0.00  0.00    -0.279 N 
ATOM     25  C   UNL     1      34.977 -15.546 -21.025  0.00  0.00    +0.250 C 
ATOM     26  H   UNL     1      34.604 -16.696 -22.652  0.00  0.00    +0.155 HD
BRANCH  24  27
ATOM     27  C   UNL     1      34.218 -14.786 -23.297  0.00  0.00    +0.064 C 
ATOM     28  C   UNL     1      33.838 -15.167 -24.575  0.00  0.00    +0.055 C 
ATOM     29  C   UNL     1      34.232 -13.453 -22.917  0.00  0.00    +0.016 C 
ATOM     30  C   UNL     1      33.464 -14.189 -25.496  0.00  0.00    +0.015 C 
ATOM     31  C   UNL     1      33.857 -12.476 -23.839  0.00  0.00    +0.001 C 
ATOM     32  C   UNL     1      33.474 -12.843 -25.128  0.00  0.00    +0.001 C 
BRANCH  28  33
ATOM     33  N   UNL     1      33.820 -16.523 -24.969  0.00  0.00    -0.356 N 
ATOM     34  H   UNL     1      33.990 -17.230 -24.305  0.00  0.00    +0.142 HD
ATOM     35  H   UNL     1      33.636 -16.761 -25.906  0.00  0.00    +0.142 HD
ENDBRANCH  28  33
ENDBRANCH  24  27
ENDBRANCH  22  25
ENDBRANCH   4  21
TORSDOF 7
ENDMDL
