MODEL 1
REMARK VINA RESULT:     -12.5      0.000      0.000
REMARK  Name = 9998128
REMARK  2 active torsions:
REMARK  status: ('A' for Active; 'I' for Inactive)
REMARK    1  A    between atoms: N_1  and  C_15
REMARK    2  A    between atoms: C_7  and  C_24
REMARK                            x       y       z     vdW  Elec       q    Type
REMARK                         _______ _______ _______ _____ _____    ______ ____
ROOT
ATOM      1  N   UNL     1      33.716 -24.740 -14.213  0.00  0.00    -0.290 N 
ATOM      2  N   UNL     1      33.687 -23.371 -16.127  0.00  0.00    -0.327 NA
ATOM      3  N   UNL     1      31.606 -22.539 -17.012  0.00  0.00    -0.342 NA
ATOM      4  C   UNL     1      31.592 -23.931 -15.060  0.00  0.00    +0.143 C 
ATOM      5  C   UNL     1      32.980 -23.991 -15.164  0.00  0.00    +0.184 C 
ATOM      6  C   UNL     1      30.930 -23.171 -16.036  0.00  0.00    +0.133 C 
ATOM      7  C   UNL     1      32.948 -22.674 -17.004  0.00  0.00    +0.165 C 
ATOM      8  C   UNL     1      30.875 -24.588 -14.045  0.00  0.00    -0.011 C 
ATOM      9  C   UNL     1      29.541 -23.088 -15.965  0.00  0.00    +0.029 C 
ATOM     10  C   UNL     1      29.488 -24.489 -13.997  0.00  0.00    -0.004 C 
ATOM     11  C   UNL     1      28.821 -23.737 -14.959  0.00  0.00    +0.002 C 
ATOM     12  H   UNL     1      33.225 -25.511 -13.847  0.00  0.00    +0.154 HD
ENDROOT
BRANCH   1  15
ATOM     13  N   UNL     1      38.699 -23.976 -11.993  0.00  0.00    -0.236 N 
ATOM     14  N   UNL     1      38.497 -23.033 -11.057  0.00  0.00    -0.180 NA
ATOM     15  C   UNL     1      35.012 -24.597 -13.693  0.00  0.00    +0.050 C 
ATOM     16  C   UNL     1      36.554 -23.547 -12.152  0.00  0.00    +0.037 C 
ATOM     17  C   UNL     1      37.573 -24.329 -12.685  0.00  0.00    +0.067 C 
ATOM     18  C   UNL     1      35.250 -23.677 -12.658  0.00  0.00    +0.018 C 
ATOM     19  C   UNL     1      36.062 -25.368 -14.208  0.00  0.00    +0.016 C 
ATOM     20  C   UNL     1      37.365 -25.251 -13.714  0.00  0.00    +0.017 C 
ATOM     21  C   UNL     1      37.191 -22.775 -11.157  0.00  0.00    +0.119 C 
ATOM     22  H   UNL     1      39.581 -24.378 -12.165  0.00  0.00    +0.174 HD
ENDBRANCH   1  15
BRANCH   7  24
ATOM     23  N   UNL     1      32.903 -21.238 -18.873  0.00  0.00    -0.398 NA
ATOM     24  C   UNL     1      33.666 -21.995 -18.051  0.00  0.00    +0.197 C 
ATOM     25  C   UNL     1      35.041 -22.128 -18.182  0.00  0.00    +0.098 C 
ATOM     26  C   UNL     1      33.548 -20.587 -19.868  0.00  0.00    +0.110 C 
ATOM     27  C   UNL     1      35.668 -21.444 -19.216  0.00  0.00    -0.016 C 
ATOM     28  C   UNL     1      34.915 -20.656 -20.080  0.00  0.00    +0.023 C 
ATOM     29  C   UNL     1      32.708 -19.753 -20.776  0.00  0.00    +0.066 C 
ENDBRANCH   7  24
TORSDOF 2
ENDMDL
MODEL 2
REMARK VINA RESULT:     -12.1      1.348      4.796
REMARK  Name = 9998128
REMARK  2 active torsions:
REMARK  status: ('A' for Active; 'I' for Inactive)
REMARK    1  A    between atoms: N_1  and  C_15
REMARK    2  A    between atoms: C_7  and  C_24
REMARK                            x       y       z     vdW  Elec       q    Type
REMARK                         _______ _______ _______ _____ _____    ______ ____
ROOT
ATOM      1  N   UNL     1      35.781 -22.831 -15.825  0.00  0.00    -0.290 N 
ATOM      2  N   UNL     1      33.436 -23.005 -15.923  0.00  0.00    -0.327 NA
ATOM      3  N   UNL     1      32.219 -22.161 -17.824  0.00  0.00    -0.342 NA
ATOM      4  C   UNL     1      34.608 -21.963 -17.763  0.00  0.00    +0.143 C 
ATOM      5  C   UNL     1      34.570 -22.594 -16.522  0.00  0.00    +0.184 C 
ATOM      6  C   UNL     1      33.371 -21.763 -18.394  0.00  0.00    +0.133 C 
ATOM      7  C   UNL     1      32.315 -22.760 -16.620  0.00  0.00    +0.165 C 
ATOM      8  C   UNL     1      35.806 -21.543 -18.368  0.00  0.00    -0.011 C 
ATOM      9  C   UNL     1      33.368 -21.135 -19.637  0.00  0.00    +0.029 C 
ATOM     10  C   UNL     1      35.775 -20.918 -19.610  0.00  0.00    -0.004 C 
ATOM     11  C   UNL     1      34.554 -20.714 -20.246  0.00  0.00    +0.002 C 
ATOM     12  H   UNL     1      36.482 -22.163 -16.008  0.00  0.00    +0.154 HD
ENDROOT
BRANCH   1  15
ATOM     13  N   UNL     1      37.440 -26.554 -12.121  0.00  0.00    -0.236 N 
ATOM     14  N   UNL     1      38.037 -25.821 -11.167  0.00  0.00    -0.180 NA
ATOM     15  C   UNL     1      36.174 -23.832 -14.923  0.00  0.00    +0.050 C 
ATOM     16  C   UNL     1      37.242 -24.498 -12.857  0.00  0.00    +0.037 C 
ATOM     17  C   UNL     1      36.942 -25.821 -13.163  0.00  0.00    +0.067 C 
ATOM     18  C   UNL     1      36.856 -23.481 -13.746  0.00  0.00    +0.018 C 
ATOM     19  C   UNL     1      35.888 -25.175 -15.201  0.00  0.00    +0.016 C 
ATOM     20  C   UNL     1      36.266 -26.198 -14.326  0.00  0.00    +0.017 C 
ATOM     21  C   UNL     1      37.915 -24.570 -11.618  0.00  0.00    +0.119 C 
ATOM     22  H   UNL     1      37.368 -27.535 -12.074  0.00  0.00    +0.174 HD
ENDBRANCH   1  15
BRANCH   7  24
ATOM     23  N   UNL     1      29.961 -22.650 -16.560  0.00  0.00    -0.398 NA
ATOM     24  C   UNL     1      31.078 -23.184 -16.016  0.00  0.00    +0.197 C 
ATOM     25  C   UNL     1      31.068 -24.077 -14.954  0.00  0.00    +0.098 C 
ATOM     26  C   UNL     1      28.783 -23.028 -16.014  0.00  0.00    +0.110 C 
ATOM     27  C   UNL     1      29.839 -24.442 -14.418  0.00  0.00    -0.016 C 
ATOM     28  C   UNL     1      28.668 -23.912 -14.953  0.00  0.00    +0.023 C 
ATOM     29  C   UNL     1      27.549 -22.440 -16.612  0.00  0.00    +0.066 C 
ENDBRANCH   7  24
TORSDOF 2
ENDMDL
MODEL 3
REMARK VINA RESULT:     -12.1      1.848      5.971
REMARK  Name = 9998128
REMARK  2 active torsions:
REMARK  status: ('A' for Active; 'I' for Inactive)
REMARK    1  A    between atoms: N_1  and  C_15
REMARK    2  A    between atoms: C_7  and  C_24
REMARK                            x       y       z     vdW  Elec       q    Type
REMARK                         _______ _______ _______ _____ _____    ______ ____
ROOT
ATOM      1  N   UNL     1      33.254 -23.818 -13.527  0.00  0.00    -0.290 N 
ATOM      2  N   UNL     1      34.415 -22.959 -15.385  0.00  0.00    -0.327 NA
ATOM      3  N   UNL     1      36.811 -23.154 -15.534  0.00  0.00    -0.342 NA
ATOM      4  C   UNL     1      35.667 -24.042 -13.623  0.00  0.00    +0.143 C 
ATOM      5  C   UNL     1      34.480 -23.597 -14.201  0.00  0.00    +0.184 C 
ATOM      6  C   UNL     1      36.842 -23.789 -14.349  0.00  0.00    +0.133 C 
ATOM      7  C   UNL     1      35.600 -22.773 -15.988  0.00  0.00    +0.165 C 
ATOM      8  C   UNL     1      35.710 -24.706 -12.385  0.00  0.00    -0.011 C 
ATOM      9  C   UNL     1      38.049 -24.218 -13.803  0.00  0.00    +0.029 C 
ATOM     10  C   UNL     1      36.929 -25.124 -11.862  0.00  0.00    -0.004 C 
ATOM     11  C   UNL     1      38.100 -24.880 -12.572  0.00  0.00    +0.002 C 
ATOM     12  H   UNL     1      33.337 -23.836 -12.545  0.00  0.00    +0.154 HD
ENDROOT
BRANCH   1  15
ATOM     13  N   UNL     1      28.126 -24.336 -15.469  0.00  0.00    -0.236 N 
ATOM     14  N   UNL     1      27.945 -23.229 -16.209  0.00  0.00    -0.180 NA
ATOM     15  C   UNL     1      31.942 -24.014 -13.987  0.00  0.00    +0.050 C 
ATOM     16  C   UNL     1      30.031 -23.268 -15.270  0.00  0.00    +0.037 C 
ATOM     17  C   UNL     1      29.357 -24.420 -14.878  0.00  0.00    +0.067 C 
ATOM     18  C   UNL     1      31.345 -23.054 -14.821  0.00  0.00    +0.018 C 
ATOM     19  C   UNL     1      31.234 -25.162 -13.610  0.00  0.00    +0.016 C 
ATOM     20  C   UNL     1      29.925 -25.390 -14.049  0.00  0.00    +0.017 C 
ATOM     21  C   UNL     1      29.106 -22.582 -16.086  0.00  0.00    +0.119 C 
ATOM     22  H   UNL     1      27.432 -25.026 -15.362  0.00  0.00    +0.174 HD
ENDBRANCH   1  15
BRANCH   7  24
ATOM     23  N   UNL     1      34.350 -21.963 -17.814  0.00  0.00    -0.398 NA
ATOM     24  C   UNL     1      35.576 -22.095 -17.257  0.00  0.00    +0.197 C 
ATOM     25  C   UNL     1      36.743 -21.622 -17.840  0.00  0.00    +0.098 C 
ATOM     26  C   UNL     1      34.294 -21.329 -19.008  0.00  0.00    +0.110 C 
ATOM     27  C   UNL     1      36.646 -20.977 -19.067  0.00  0.00    -0.016 C 
ATOM     28  C   UNL     1      35.401 -20.823 -19.669  0.00  0.00    +0.023 C 
ATOM     29  C   UNL     1      32.943 -21.183 -19.624  0.00  0.00    +0.066 C 
ENDBRANCH   7  24
TORSDOF 2
ENDMDL
MODEL 4
REMARK VINA RESULT:     -11.9      0.874      1.988
REMARK  Name = 9998128
REMARK  2 active torsions:
REMARK  status: ('A' for Active; 'I' for Inactive)
REMARK    1  A    between atoms: N_1  and  C_15
REMARK    2  A    between atoms: C_7  and  C_24
REMARK                            x       y       z     vdW  Elec       q    Type
REMARK                         _______ _______ _______ _____ _____    ______ ____
ROOT
ATOM      1  N   UNL     1      33.604 -24.652 -14.572  0.00  0.00    -0.290 N 
ATOM      2  N   UNL     1      33.489 -23.191 -16.413  0.00  0.00    -0.327 NA
ATOM      3  N   UNL     1      31.372 -22.314 -17.157  0.00  0.00    -0.342 NA
ATOM      4  C   UNL     1      31.445 -23.800 -15.277  0.00  0.00    +0.143 C 
ATOM      5  C   UNL     1      32.826 -23.856 -15.449  0.00  0.00    +0.184 C 
ATOM      6  C   UNL     1      30.740 -22.992 -16.182  0.00  0.00    +0.133 C 
ATOM      7  C   UNL     1      32.712 -22.451 -17.220  0.00  0.00    +0.165 C 
ATOM      8  C   UNL     1      30.774 -24.505 -14.262  0.00  0.00    -0.011 C 
ATOM      9  C   UNL     1      29.357 -22.911 -16.042  0.00  0.00    +0.029 C 
ATOM     10  C   UNL     1      29.392 -24.406 -14.144  0.00  0.00    -0.004 C 
ATOM     11  C   UNL     1      28.682 -23.608 -15.035  0.00  0.00    +0.002 C 
ATOM     12  H   UNL     1      33.127 -25.439 -14.221  0.00  0.00    +0.154 HD
ENDROOT
BRANCH   1  15
ATOM     13  N   UNL     1      38.842 -24.442 -12.883  0.00  0.00    -0.236 N 
ATOM     14  N   UNL     1      39.400 -25.542 -13.416  0.00  0.00    -0.180 NA
ATOM     15  C   UNL     1      34.923 -24.535 -14.107  0.00  0.00    +0.050 C 
ATOM     16  C   UNL     1      37.186 -25.381 -13.971  0.00  0.00    +0.037 C 
ATOM     17  C   UNL     1      37.516 -24.288 -13.178  0.00  0.00    +0.067 C 
ATOM     18  C   UNL     1      35.871 -25.515 -14.448  0.00  0.00    +0.018 C 
ATOM     19  C   UNL     1      35.289 -23.447 -13.305  0.00  0.00    +0.016 C 
ATOM     20  C   UNL     1      36.594 -23.299 -12.824  0.00  0.00    +0.017 C 
ATOM     21  C   UNL     1      38.389 -26.111 -14.078  0.00  0.00    +0.119 C 
ATOM     22  H   UNL     1      39.346 -23.804 -12.328  0.00  0.00    +0.174 HD
ENDBRANCH   1  15
BRANCH   7  24
ATOM     23  N   UNL     1      34.730 -21.839 -18.274  0.00  0.00    -0.398 NA
ATOM     24  C   UNL     1      33.382 -21.722 -18.265  0.00  0.00    +0.197 C 
ATOM     25  C   UNL     1      32.667 -20.964 -19.182  0.00  0.00    +0.098 C 
ATOM     26  C   UNL     1      35.388 -21.166 -19.245  0.00  0.00    +0.110 C 
ATOM     27  C   UNL     1      33.379 -20.286 -20.164  0.00  0.00    -0.016 C 
ATOM     28  C   UNL     1      34.766 -20.383 -20.204  0.00  0.00    +0.023 C 
ATOM     29  C   UNL     1      36.874 -21.293 -19.256  0.00  0.00    +0.066 C 
ENDBRANCH   7  24
TORSDOF 2
ENDMDL
MODEL 5
REMARK VINA RESULT:     -11.9      2.049      7.344
REMARK  Name = 9998128
REMARK  2 active torsions:
REMARK  status: ('A' for Active; 'I' for Inactive)
REMARK    1  A    between atoms: N_1  and  C_15
REMARK    2  A    between atoms: C_7  and  C_24
REMARK                            x       y       z     vdW  Elec       q    Type
REMARK                         _______ _______ _______ _____ _____    ______ ____
ROOT
ATOM      1  N   UNL     1      35.280 -22.373 -17.659  0.00  0.00    -0.290 N 
ATOM      2  N   UNL     1      33.279 -22.916 -16.547  0.00  0.00    -0.327 NA
ATOM      3  N   UNL     1      33.309 -23.672 -14.259  0.00  0.00    -0.342 NA
ATOM      4  C   UNL     1      35.371 -23.128 -15.356  0.00  0.00    +0.143 C 
ATOM      5  C   UNL     1      34.620 -22.820 -16.487  0.00  0.00    +0.184 C 
ATOM      6  C   UNL     1      34.650 -23.564 -14.233  0.00  0.00    +0.133 C 
ATOM      7  C   UNL     1      32.697 -23.343 -15.414  0.00  0.00    +0.165 C 
ATOM      8  C   UNL     1      36.772 -23.020 -15.318  0.00  0.00    -0.011 C 
ATOM      9  C   UNL     1      35.367 -23.883 -13.082  0.00  0.00    +0.029 C 
ATOM     10  C   UNL     1      37.464 -23.344 -14.155  0.00  0.00    -0.004 C 
ATOM     11  C   UNL     1      36.760 -23.777 -13.036  0.00  0.00    +0.002 C 
ATOM     12  H   UNL     1      36.190 -22.735 -17.765  0.00  0.00    +0.154 HD
ENDROOT
BRANCH   1  15
ATOM     13  N   UNL     1      34.019 -18.934 -21.772  0.00  0.00    -0.236 N 
ATOM     14  N   UNL     1      35.208 -18.450 -22.168  0.00  0.00    -0.180 NA
ATOM     15  C   UNL     1      34.888 -21.514 -18.697  0.00  0.00    +0.050 C 
ATOM     16  C   UNL     1      35.447 -19.929 -20.438  0.00  0.00    +0.037 C 
ATOM     17  C   UNL     1      34.093 -19.826 -20.738  0.00  0.00    +0.067 C 
ATOM     18  C   UNL     1      35.859 -20.784 -19.403  0.00  0.00    +0.018 C 
ATOM     19  C   UNL     1      33.532 -21.386 -19.025  0.00  0.00    +0.016 C 
ATOM     20  C   UNL     1      33.105 -20.539 -20.053  0.00  0.00    +0.017 C 
ATOM     21  C   UNL     1      36.074 -19.058 -21.354  0.00  0.00    +0.119 C 
ATOM     22  H   UNL     1      33.168 -18.669 -22.191  0.00  0.00    +0.174 HD
ENDBRANCH   1  15
BRANCH   7  24
ATOM     23  N   UNL     1      30.758 -24.467 -14.685  0.00  0.00    -0.398 NA
ATOM     24  C   UNL     1      31.262 -23.461 -15.435  0.00  0.00    +0.197 C 
ATOM     25  C   UNL     1      30.481 -22.589 -16.181  0.00  0.00    +0.098 C 
ATOM     26  C   UNL     1      29.413 -24.605 -14.683  0.00  0.00    +0.110 C 
ATOM     27  C   UNL     1      29.102 -22.762 -16.155  0.00  0.00    -0.016 C 
ATOM     28  C   UNL     1      28.549 -23.787 -15.394  0.00  0.00    +0.023 C 
ATOM     29  C   UNL     1      28.855 -25.714 -13.857  0.00  0.00    +0.066 C 
ENDBRANCH   7  24
TORSDOF 2
ENDMDL
MODEL 6
REMARK VINA RESULT:     -11.7      1.973      7.010
REMARK  Name = 9998128
REMARK  2 active torsions:
REMARK  status: ('A' for Active; 'I' for Inactive)
REMARK    1  A    between atoms: N_1  and  C_15
REMARK    2  A    between atoms: C_7  and  C_24
REMARK                            x       y       z     vdW  Elec       q    Type
REMARK                         _______ _______ _______ _____ _____    ______ ____
ROOT
ATOM      1  N   UNL     1      35.270 -22.704 -16.819  0.00  0.00    -0.290 N 
ATOM      2  N   UNL     1      33.284 -23.382 -15.755  0.00  0.00    -0.327 NA
ATOM      3  N   UNL     1      33.283 -23.987 -13.423  0.00  0.00    -0.342 NA
ATOM      4  C   UNL     1      35.329 -23.302 -14.469  0.00  0.00    +0.143 C 
ATOM      5  C   UNL     1      34.604 -23.143 -15.648  0.00  0.00    +0.184 C 
ATOM      6  C   UNL     1      34.603 -23.739 -13.350  0.00  0.00    +0.133 C 
ATOM      7  C   UNL     1      32.695 -23.795 -14.621  0.00  0.00    +0.165 C 
ATOM      8  C   UNL     1      36.709 -23.046 -14.382  0.00  0.00    -0.011 C 
ATOM      9  C   UNL     1      35.294 -23.910 -12.153  0.00  0.00    +0.029 C 
ATOM     10  C   UNL     1      37.374 -23.225 -13.174  0.00  0.00    -0.004 C 
ATOM     11  C   UNL     1      36.666 -23.657 -12.058  0.00  0.00    +0.002 C 
ATOM     12  H   UNL     1      36.216 -22.976 -16.865  0.00  0.00    +0.154 HD
ENDROOT
BRANCH   1  15
ATOM     13  N   UNL     1      33.864 -19.685 -21.206  0.00  0.00    -0.236 N 
ATOM     14  N   UNL     1      35.025 -19.145 -21.615  0.00  0.00    -0.180 NA
ATOM     15  C   UNL     1      34.842 -21.956 -17.928  0.00  0.00    +0.050 C 
ATOM     16  C   UNL     1      35.327 -20.470 -19.774  0.00  0.00    +0.037 C 
ATOM     17  C   UNL     1      33.977 -20.490 -20.106  0.00  0.00    +0.067 C 
ATOM     18  C   UNL     1      35.775 -21.212 -18.669  0.00  0.00    +0.018 C 
ATOM     19  C   UNL     1      33.489 -21.954 -18.289  0.00  0.00    +0.016 C 
ATOM     20  C   UNL     1      33.027 -21.220 -19.387  0.00  0.00    +0.017 C 
ATOM     21  C   UNL     1      35.913 -19.625 -20.741  0.00  0.00    +0.119 C 
ATOM     22  H   UNL     1      33.007 -19.515 -21.660  0.00  0.00    +0.174 HD
ENDBRANCH   1  15
BRANCH   7  24
ATOM     23  N   UNL     1      30.574 -23.207 -15.463  0.00  0.00    -0.398 NA
ATOM     24  C   UNL     1      31.283 -24.063 -14.691  0.00  0.00    +0.197 C 
ATOM     25  C   UNL     1      30.719 -25.129 -14.004  0.00  0.00    +0.098 C 
ATOM     26  C   UNL     1      29.243 -23.431 -15.549  0.00  0.00    +0.110 C 
ATOM     27  C   UNL     1      29.348 -25.327 -14.116  0.00  0.00    -0.016 C 
ATOM     28  C   UNL     1      28.588 -24.467 -14.902  0.00  0.00    +0.023 C 
ATOM     29  C   UNL     1      28.459 -22.489 -16.399  0.00  0.00    +0.066 C 
ENDBRANCH   7  24
TORSDOF 2
ENDMDL
MODEL 7
REMARK VINA RESULT:     -11.4      1.887      6.808
REMARK  Name = 9998128
REMARK  2 active torsions:
REMARK  status: ('A' for Active; 'I' for Inactive)
REMARK    1  A    between atoms: N_1  and  C_15
REMARK    2  A    between atoms: C_7  and  C_24
REMARK                            x       y       z     vdW  Elec       q    Type
REMARK                         _______ _______ _______ _____ _____    ______ ____
ROOT
ATOM      1  N   UNL     1      35.796 -22.930 -16.078  0.00  0.00    -0.290 N 
ATOM      2  N   UNL     1      33.703 -23.540 -15.193  0.00  0.00    -0.327 NA
ATOM      3  N   UNL     1      33.467 -24.090 -12.860  0.00  0.00    -0.342 NA
ATOM      4  C   UNL     1      35.619 -23.474 -13.721  0.00  0.00    +0.143 C 
ATOM      5  C   UNL     1      35.012 -23.327 -14.966  0.00  0.00    +0.184 C 
ATOM      6  C   UNL     1      34.780 -23.869 -12.667  0.00  0.00    +0.133 C 
ATOM      7  C   UNL     1      33.000 -23.913 -14.112  0.00  0.00    +0.165 C 
ATOM      8  C   UNL     1      36.990 -23.246 -13.509  0.00  0.00    -0.011 C 
ATOM      9  C   UNL     1      35.350 -24.027 -11.406  0.00  0.00    +0.029 C 
ATOM     10  C   UNL     1      37.534 -23.411 -12.239  0.00  0.00    -0.004 C 
ATOM     11  C   UNL     1      36.712 -23.802 -11.186  0.00  0.00    +0.002 C 
ATOM     12  H   UNL     1      36.735 -23.224 -16.028  0.00  0.00    +0.154 HD
ENDROOT
BRANCH   1  15
ATOM     13  N   UNL     1      34.330 -20.128 -20.587  0.00  0.00    -0.236 N 
ATOM     14  N   UNL     1      32.993 -20.255 -20.629  0.00  0.00    -0.180 NA
ATOM     15  C   UNL     1      35.493 -22.200 -17.238  0.00  0.00    +0.050 C 
ATOM     16  C   UNL     1      33.875 -21.345 -18.821  0.00  0.00    +0.037 C 
ATOM     17  C   UNL     1      34.920 -20.759 -19.527  0.00  0.00    +0.067 C 
ATOM     18  C   UNL     1      34.158 -22.079 -17.657  0.00  0.00    +0.018 C 
ATOM     19  C   UNL     1      36.522 -21.597 -17.973  0.00  0.00    +0.016 C 
ATOM     20  C   UNL     1      36.257 -20.863 -19.134  0.00  0.00    +0.017 C 
ATOM     21  C   UNL     1      32.720 -20.996 -19.553  0.00  0.00    +0.119 C 
ATOM     22  H   UNL     1      34.840 -19.623 -21.262  0.00  0.00    +0.174 HD
ENDBRANCH   1  15
BRANCH   7  24
ATOM     23  N   UNL     1      30.976 -23.282 -15.143  0.00  0.00    -0.398 NA
ATOM     24  C   UNL     1      31.594 -24.151 -14.310  0.00  0.00    +0.197 C 
ATOM     25  C   UNL     1      30.949 -25.204 -13.677  0.00  0.00    +0.098 C 
ATOM     26  C   UNL     1      29.655 -23.479 -15.350  0.00  0.00    +0.110 C 
ATOM     27  C   UNL     1      29.590 -25.374 -13.914  0.00  0.00    -0.016 C 
ATOM     28  C   UNL     1      28.922 -24.500 -14.765  0.00  0.00    +0.023 C 
ATOM     29  C   UNL     1      28.972 -22.522 -16.268  0.00  0.00    +0.066 C 
ENDBRANCH   7  24
TORSDOF 2
ENDMDL
MODEL 8
REMARK VINA RESULT:     -10.6      1.569      6.657
REMARK  Name = 9998128
REMARK  2 active torsions:
REMARK  status: ('A' for Active; 'I' for Inactive)
REMARK    1  A    between atoms: N_1  and  C_15
REMARK    2  A    between atoms: C_7  and  C_24
REMARK                            x       y       z     vdW  Elec       q    Type
REMARK                         _______ _______ _______ _____ _____    ______ ____
ROOT
ATOM      1  N   UNL     1      32.036 -22.258 -16.997  0.00  0.00    -0.290 N 
ATOM      2  N   UNL     1      33.345 -22.972 -15.177  0.00  0.00    -0.327 NA
ATOM      3  N   UNL     1      32.452 -24.508 -13.549  0.00  0.00    -0.342 NA
ATOM      4  C   UNL     1      31.085 -23.804 -15.389  0.00  0.00    +0.143 C 
ATOM      5  C   UNL     1      32.162 -23.033 -15.818  0.00  0.00    +0.184 C 
ATOM      6  C   UNL     1      31.284 -24.547 -14.214  0.00  0.00    +0.133 C 
ATOM      7  C   UNL     1      33.419 -23.723 -14.067  0.00  0.00    +0.165 C 
ATOM      8  C   UNL     1      29.859 -23.852 -16.076  0.00  0.00    -0.011 C 
ATOM      9  C   UNL     1      30.229 -25.330 -13.753  0.00  0.00    +0.029 C 
ATOM     10  C   UNL     1      28.822 -24.643 -15.593  0.00  0.00    -0.004 C 
ATOM     11  C   UNL     1      29.007 -25.383 -14.430  0.00  0.00    +0.002 C 
ATOM     12  H   UNL     1      31.117 -21.947 -17.172  0.00  0.00    +0.154 HD
ENDROOT
BRANCH   1  15
ATOM     13  N   UNL     1      35.481 -20.473 -20.906  0.00  0.00    -0.236 N 
ATOM     14  N   UNL     1      34.743 -19.607 -21.620  0.00  0.00    -0.180 NA
ATOM     15  C   UNL     1      32.966 -21.846 -17.965  0.00  0.00    +0.050 C 
ATOM     16  C   UNL     1      33.532 -20.512 -19.902  0.00  0.00    +0.037 C 
ATOM     17  C   UNL     1      34.813 -21.051 -19.861  0.00  0.00    +0.067 C 
ATOM     18  C   UNL     1      32.587 -20.911 -18.942  0.00  0.00    +0.018 C 
ATOM     19  C   UNL     1      34.265 -22.369 -17.953  0.00  0.00    +0.016 C 
ATOM     20  C   UNL     1      35.217 -21.982 -18.901  0.00  0.00    +0.017 C 
ATOM     21  C   UNL     1      33.557 -19.633 -21.006  0.00  0.00    +0.119 C 
ATOM     22  H   UNL     1      36.422 -20.674 -21.117  0.00  0.00    +0.174 HD
ENDBRANCH   1  15
BRANCH   7  24
ATOM     23  N   UNL     1      34.585 -24.005 -12.037  0.00  0.00    -0.398 NA
ATOM     24  C   UNL     1      34.667 -23.687 -13.350  0.00  0.00    +0.197 C 
ATOM     25  C   UNL     1      35.851 -23.346 -13.988  0.00  0.00    +0.098 C 
ATOM     26  C   UNL     1      35.740 -23.980 -11.336  0.00  0.00    +0.110 C 
ATOM     27  C   UNL     1      37.018 -23.330 -13.234  0.00  0.00    -0.016 C 
ATOM     28  C   UNL     1      36.971 -23.653 -11.881  0.00  0.00    +0.023 C 
ATOM     29  C   UNL     1      35.652 -24.330  -9.888  0.00  0.00    +0.066 C 
ENDBRANCH   7  24
TORSDOF 2
ENDMDL
MODEL 9
REMARK VINA RESULT:     -10.4      2.006      6.905
REMARK  Name = 9998128
REMARK  2 active torsions:
REMARK  status: ('A' for Active; 'I' for Inactive)
REMARK    1  A    between atoms: N_1  and  C_15
REMARK    2  A    between atoms: C_7  and  C_24
REMARK                            x       y       z     vdW  Elec       q    Type
REMARK                         _______ _______ _______ _____ _____    ______ ____
ROOT
ATOM      1  N   UNL     1      33.131 -23.040 -17.006  0.00  0.00    -0.290 N 
ATOM      2  N   UNL     1      35.170 -23.208 -15.843  0.00  0.00    -0.327 NA
ATOM      3  N   UNL     1      37.148 -22.105 -16.664  0.00  0.00    -0.342 NA
ATOM      4  C   UNL     1      35.090 -21.908 -17.879  0.00  0.00    +0.143 C 
ATOM      5  C   UNL     1      34.506 -22.711 -16.903  0.00  0.00    +0.184 C 
ATOM      6  C   UNL     1      36.455 -21.624 -17.711  0.00  0.00    +0.133 C 
ATOM      7  C   UNL     1      36.468 -22.871 -15.787  0.00  0.00    +0.165 C 
ATOM      8  C   UNL     1      34.376 -21.401 -18.979  0.00  0.00    -0.011 C 
ATOM      9  C   UNL     1      37.076 -20.824 -18.668  0.00  0.00    +0.029 C 
ATOM     10  C   UNL     1      35.020 -20.604 -19.919  0.00  0.00    -0.004 C 
ATOM     11  C   UNL     1      36.372 -20.315 -19.763  0.00  0.00    +0.002 C 
ATOM     12  H   UNL     1      32.802 -23.086 -17.933  0.00  0.00    +0.154 HD
ENDROOT
BRANCH   1  15
ATOM     13  N   UNL     1      29.474 -24.246 -13.068  0.00  0.00    -0.236 N 
ATOM     14  N   UNL     1      30.193 -24.914 -12.150  0.00  0.00    -0.180 NA
ATOM     15  C   UNL     1      32.148 -23.312 -16.042  0.00  0.00    +0.050 C 
ATOM     16  C   UNL     1      31.492 -24.284 -13.926  0.00  0.00    +0.037 C 
ATOM     17  C   UNL     1      30.195 -23.841 -14.158  0.00  0.00    +0.067 C 
ATOM     18  C   UNL     1      32.491 -24.020 -14.878  0.00  0.00    +0.018 C 
ATOM     19  C   UNL     1      30.831 -22.881 -16.245  0.00  0.00    +0.016 C 
ATOM     20  C   UNL     1      29.826 -23.136 -15.307  0.00  0.00    +0.017 C 
ATOM     21  C   UNL     1      31.420 -24.935 -12.675  0.00  0.00    +0.119 C 
ATOM     22  H   UNL     1      28.512 -24.065 -12.965  0.00  0.00    +0.174 HD
ENDBRANCH   1  15
BRANCH   7  24
ATOM     23  N   UNL     1      38.319 -24.094 -14.992  0.00  0.00    -0.398 NA
ATOM     24  C   UNL     1      37.216 -23.381 -14.668  0.00  0.00    +0.197 C 
ATOM     25  C   UNL     1      36.808 -23.143 -13.363  0.00  0.00    +0.098 C 
ATOM     26  C   UNL     1      39.044 -24.588 -13.963  0.00  0.00    +0.110 C 
ATOM     27  C   UNL     1      37.578 -23.667 -12.331  0.00  0.00    -0.016 C 
ATOM     28  C   UNL     1      38.720 -24.404 -12.628  0.00  0.00    +0.023 C 
ATOM     29  C   UNL     1      40.261 -25.375 -14.318  0.00  0.00    +0.066 C 
ENDBRANCH   7  24
TORSDOF 2
ENDMDL
