MODEL 1
REMARK VINA RESULT:     -11.9      0.000      0.000
REMARK  Name = 154000
REMARK  7 active torsions:
REMARK  status: ('A' for Active; 'I' for Inactive)
REMARK    1  A    between atoms: O_1  and  C_5
REMARK    2  A    between atoms: O_1  and  C_17
REMARK    3  A    between atoms: C_2  and  C_8
REMARK    4  A    between atoms: C_8  and  C_13
REMARK    5  A    between atoms: C_17  and  C_18
REMARK    6  A    between atoms: C_18  and  C_21
REMARK    7  A    between atoms: C_23  and  C_25
REMARK                            x       y       z     vdW  Elec       q    Type
REMARK                         _______ _______ _______ _____ _____    ______ ____
ROOT
ATOM      1  O   UNL     1      34.119 -14.814 -21.704  0.00  0.00    -0.475 OA
ENDROOT
BRANCH   1   5
ATOM      2  C   UNL     1      32.032 -11.260 -21.379  0.00  0.00    -0.021 C 
ATOM      3  C   UNL     1      32.867 -11.463 -22.469  0.00  0.00    -0.001 C 
ATOM      4  C   UNL     1      31.885 -12.228 -20.397  0.00  0.00    -0.001 C 
ATOM      5  C   UNL     1      33.432 -13.644 -21.597  0.00  0.00    +0.139 C 
ATOM      6  C   UNL     1      33.571 -12.662 -22.578  0.00  0.00    +0.037 C 
ATOM      7  C   UNL     1      32.590 -13.427 -20.507  0.00  0.00    +0.037 C 
BRANCH   2   8
ATOM      8  C   UNL     1      31.272  -9.963 -21.260  0.00  0.00    +0.047 C 
BRANCH   8  13
ATOM      9  O   UNL     1      31.504  -6.537 -21.471  0.00  0.00    -0.346 OA
ATOM     10  O   UNL     1      32.739  -8.638 -18.969  0.00  0.00    -0.272 OA
ATOM     11  O   UNL     1      31.310  -7.788 -23.387  0.00  0.00    -0.247 OA
ATOM     12  N   UNL     1      31.931  -6.801 -20.152  0.00  0.00    -0.144 N 
ATOM     13  C   UNL     1      32.191  -8.759 -21.331  0.00  0.00    +0.184 C 
ATOM     14  C   UNL     1      32.336  -8.104 -19.990  0.00  0.00    +0.264 C 
ATOM     15  C   UNL     1      31.619  -7.679 -22.212  0.00  0.00    +0.348 C 
ATOM     16  H   UNL     1      31.938  -6.129 -19.433  0.00  0.00    +0.196 HD
ENDBRANCH   8  13
ENDBRANCH   2   8
ENDBRANCH   1   5
BRANCH   1  17
ATOM     17  C   UNL     1      34.624 -15.155 -22.994  0.00  0.00    +0.213 C 
BRANCH  17  18
ATOM     18  C   UNL     1      35.705 -16.224 -22.858  0.00  0.00    +0.105 C 
BRANCH  18  21
ATOM     19  O   UNL     1      34.139 -19.490 -22.406  0.00  0.00    -0.449 OA
ATOM     20  N   UNL     1      35.409 -18.046 -21.214  0.00  0.00    -0.373 NA
ATOM     21  C   UNL     1      35.155 -17.561 -22.453  0.00  0.00    +0.134 C 
ATOM     22  C   UNL     1      34.397 -18.406 -23.190  0.00  0.00    +0.216 C 
ATOM     23  C   UNL     1      34.778 -19.199 -21.240  0.00  0.00    +0.277 C 
ATOM     24  C   UNL     1      33.832 -18.411 -24.544  0.00  0.00    +0.055 C 
BRANCH  23  25
ATOM     25  C   UNL     1      34.666 -20.201 -20.215  0.00  0.00    +0.066 C 
ATOM     26  C   UNL     1      33.407 -20.629 -19.783  0.00  0.00    +0.006 C 
ATOM     27  C   UNL     1      35.816 -20.750 -19.642  0.00  0.00    +0.006 C 
ATOM     28  C   UNL     1      33.300 -21.599 -18.787  0.00  0.00    +0.000 C 
ATOM     29  C   UNL     1      35.709 -21.721 -18.647  0.00  0.00    +0.000 C 
ATOM     30  C   UNL     1      34.451 -22.146 -18.219  0.00  0.00    +0.000 C 
ENDBRANCH  23  25
ENDBRANCH  18  21
ENDBRANCH  17  18
ENDBRANCH   1  17
TORSDOF 7
ENDMDL
MODEL 2
REMARK VINA RESULT:     -11.9      2.095     10.519
REMARK  Name = 154000
REMARK  7 active torsions:
REMARK  status: ('A' for Active; 'I' for Inactive)
REMARK    1  A    between atoms: O_1  and  C_5
REMARK    2  A    between atoms: O_1  and  C_17
REMARK    3  A    between atoms: C_2  and  C_8
REMARK    4  A    between atoms: C_8  and  C_13
REMARK    5  A    between atoms: C_17  and  C_18
REMARK    6  A    between atoms: C_18  and  C_21
REMARK    7  A    between atoms: C_23  and  C_25
REMARK                            x       y       z     vdW  Elec       q    Type
REMARK                         _______ _______ _______ _____ _____    ______ ____
ROOT
ATOM      1  O   UNL     1      33.835 -14.609 -25.010  0.00  0.00    -0.475 OA
ENDROOT
BRANCH   1   5
ATOM      2  C   UNL     1      34.788 -18.097 -23.007  0.00  0.00    -0.021 C 
ATOM      3  C   UNL     1      35.200 -16.879 -22.487  0.00  0.00    -0.001 C 
ATOM      4  C   UNL     1      34.063 -18.166 -24.187  0.00  0.00    -0.001 C 
ATOM      5  C   UNL     1      34.149 -15.757 -24.350  0.00  0.00    +0.139 C 
ATOM      6  C   UNL     1      34.879 -15.702 -23.162  0.00  0.00    +0.037 C 
ATOM      7  C   UNL     1      33.742 -16.989 -24.862  0.00  0.00    +0.037 C 
BRANCH   2   8
ATOM      8  C   UNL     1      35.137 -19.370 -22.277  0.00  0.00    +0.047 C 
BRANCH   8  13
ATOM      9  O   UNL     1      35.164 -20.845 -19.168  0.00  0.00    -0.346 OA
ATOM     10  O   UNL     1      37.615 -18.828 -20.626  0.00  0.00    -0.272 OA
ATOM     11  O   UNL     1      33.163 -20.330 -20.171  0.00  0.00    -0.247 OA
ATOM     12  N   UNL     1      36.492 -20.392 -19.313  0.00  0.00    -0.144 N 
ATOM     13  C   UNL     1      35.215 -19.160 -20.777  0.00  0.00    +0.184 C 
ATOM     14  C   UNL     1      36.602 -19.404 -20.263  0.00  0.00    +0.264 C 
ATOM     15  C   UNL     1      34.363 -20.157 -20.036  0.00  0.00    +0.348 C 
ATOM     16  H   UNL     1      37.251 -20.742 -18.794  0.00  0.00    +0.196 HD
ENDBRANCH   8  13
ENDBRANCH   2   8
ENDBRANCH   1   5
BRANCH   1  17
ATOM     17  C   UNL     1      33.059 -13.644 -24.300  0.00  0.00    +0.213 C 
BRANCH  17  18
ATOM     18  C   UNL     1      33.963 -12.521 -23.802  0.00  0.00    +0.105 C 
BRANCH  18  21
ATOM     19  O   UNL     1      32.089 -10.627 -21.307  0.00  0.00    -0.449 OA
ATOM     20  N   UNL     1      33.253 -10.229 -23.205  0.00  0.00    -0.373 NA
ATOM     21  C   UNL     1      33.248 -11.550 -22.906  0.00  0.00    +0.134 C 
ATOM     22  C   UNL     1      32.559 -11.818 -21.773  0.00  0.00    +0.216 C 
ATOM     23  C   UNL     1      32.545  -9.725 -22.218  0.00  0.00    +0.277 C 
ATOM     24  C   UNL     1      32.229 -13.017 -20.995  0.00  0.00    +0.055 C 
BRANCH  23  25
ATOM     25  C   UNL     1      32.185  -8.359 -21.959  0.00  0.00    +0.066 C 
ATOM     26  C   UNL     1      32.936  -7.589 -21.066  0.00  0.00    +0.006 C 
ATOM     27  C   UNL     1      31.079  -7.791 -22.598  0.00  0.00    +0.006 C 
ATOM     28  C   UNL     1      32.583  -6.264 -20.814  0.00  0.00    +0.000 C 
ATOM     29  C   UNL     1      30.727  -6.465 -22.347  0.00  0.00    +0.000 C 
ATOM     30  C   UNL     1      31.479  -5.701 -21.455  0.00  0.00    +0.000 C 
ENDBRANCH  23  25
ENDBRANCH  18  21
ENDBRANCH  17  18
ENDBRANCH   1  17
TORSDOF 7
ENDMDL
MODEL 3
REMARK VINA RESULT:     -11.8      5.978      9.920
REMARK  Name = 154000
REMARK  7 active torsions:
REMARK  status: ('A' for Active; 'I' for Inactive)
REMARK    1  A    between atoms: O_1  and  C_5
REMARK    2  A    between atoms: O_1  and  C_17
REMARK    3  A    between atoms: C_2  and  C_8
REMARK    4  A    between atoms: C_8  and  C_13
REMARK    5  A    between atoms: C_17  and  C_18
REMARK    6  A    between atoms: C_18  and  C_21
REMARK    7  A    between atoms: C_23  and  C_25
REMARK                            x       y       z     vdW  Elec       q    Type
REMARK                         _______ _______ _______ _____ _____    ______ ____
ROOT
ATOM      1  O   UNL     1      36.198 -22.796 -16.792  0.00  0.00    -0.475 OA
ENDROOT
BRANCH   1   5
ATOM      2  C   UNL     1      34.678 -20.513 -19.885  0.00  0.00    -0.021 C 
ATOM      3  C   UNL     1      36.042 -20.497 -19.634  0.00  0.00    -0.001 C 
ATOM      4  C   UNL     1      33.815 -21.281 -19.117  0.00  0.00    -0.001 C 
ATOM      5  C   UNL     1      35.698 -22.044 -17.811  0.00  0.00    +0.139 C 
ATOM      6  C   UNL     1      36.556 -21.267 -18.591  0.00  0.00    +0.037 C 
ATOM      7  C   UNL     1      34.329 -22.051 -18.074  0.00  0.00    +0.037 C 
BRANCH   2   8
ATOM      8  C   UNL     1      34.123 -19.679 -21.013  0.00  0.00    +0.047 C 
BRANCH   8  13
ATOM      9  O   UNL     1      34.890 -17.522 -23.582  0.00  0.00    -0.346 OA
ATOM     10  O   UNL     1      35.442 -17.092 -20.160  0.00  0.00    -0.272 OA
ATOM     11  O   UNL     1      34.776 -19.781 -23.982  0.00  0.00    -0.247 OA
ATOM     12  N   UNL     1      35.087 -16.727 -22.434  0.00  0.00    -0.144 N 
ATOM     13  C   UNL     1      35.212 -18.918 -21.744  0.00  0.00    +0.184 C 
ATOM     14  C   UNL     1      35.267 -17.486 -21.302  0.00  0.00    +0.264 C 
ATOM     15  C   UNL     1      34.934 -18.840 -23.222  0.00  0.00    +0.348 C 
ATOM     16  H   UNL     1      35.095 -15.743 -22.442  0.00  0.00    +0.196 HD
ENDBRANCH   8  13
ENDBRANCH   2   8
ENDBRANCH   1   5
BRANCH   1  17
ATOM     17  C   UNL     1      36.344 -22.157 -15.524  0.00  0.00    +0.213 C 
BRANCH  17  18
ATOM     18  C   UNL     1      36.372 -23.208 -14.418  0.00  0.00    +0.105 C 
BRANCH  18  21
ATOM     19  O   UNL     1      33.299 -24.267 -12.758  0.00  0.00    -0.449 OA
ATOM     20  N   UNL     1      33.940 -23.472 -14.776  0.00  0.00    -0.373 NA
ATOM     21  C   UNL     1      35.001 -23.590 -13.941  0.00  0.00    +0.134 C 
ATOM     22  C   UNL     1      34.646 -24.064 -12.725  0.00  0.00    +0.216 C 
ATOM     23  C   UNL     1      32.951 -23.890 -14.019  0.00  0.00    +0.277 C 
ATOM     24  C   UNL     1      35.339 -24.385 -11.472  0.00  0.00    +0.055 C 
BRANCH  23  25
ATOM     25  C   UNL     1      31.552 -24.006 -14.327  0.00  0.00    +0.066 C 
ATOM     26  C   UNL     1      30.925 -23.045 -15.126  0.00  0.00    +0.006 C 
ATOM     27  C   UNL     1      30.810 -25.079 -13.828  0.00  0.00    +0.006 C 
ATOM     28  C   UNL     1      29.568 -23.157 -15.423  0.00  0.00    +0.000 C 
ATOM     29  C   UNL     1      29.452 -25.192 -14.126  0.00  0.00    +0.000 C 
ATOM     30  C   UNL     1      28.830 -24.231 -14.923  0.00  0.00    +0.000 C 
ENDBRANCH  23  25
ENDBRANCH  18  21
ENDBRANCH  17  18
ENDBRANCH   1  17
TORSDOF 7
ENDMDL
MODEL 4
REMARK VINA RESULT:     -11.8      5.252      9.473
REMARK  Name = 154000
REMARK  7 active torsions:
REMARK  status: ('A' for Active; 'I' for Inactive)
REMARK    1  A    between atoms: O_1  and  C_5
REMARK    2  A    between atoms: O_1  and  C_17
REMARK    3  A    between atoms: C_2  and  C_8
REMARK    4  A    between atoms: C_8  and  C_13
REMARK    5  A    between atoms: C_17  and  C_18
REMARK    6  A    between atoms: C_18  and  C_21
REMARK    7  A    between atoms: C_23  and  C_25
REMARK                            x       y       z     vdW  Elec       q    Type
REMARK                         _______ _______ _______ _____ _____    ______ ____
ROOT
ATOM      1  O   UNL     1      32.685 -22.370 -18.336  0.00  0.00    -0.475 OA
ENDROOT
BRANCH   1   5
ATOM      2  C   UNL     1      34.845 -19.696 -20.632  0.00  0.00    -0.021 C 
ATOM      3  C   UNL     1      35.519 -20.627 -19.856  0.00  0.00    -0.001 C 
ATOM      4  C   UNL     1      33.459 -19.646 -20.651  0.00  0.00    -0.001 C 
ATOM      5  C   UNL     1      33.397 -21.490 -19.092  0.00  0.00    +0.139 C 
ATOM      6  C   UNL     1      34.791 -21.530 -19.081  0.00  0.00    +0.037 C 
ATOM      7  C   UNL     1      32.731 -20.548 -19.876  0.00  0.00    +0.037 C 
BRANCH   2   8
ATOM      8  C   UNL     1      35.633 -18.720 -21.468  0.00  0.00    +0.047 C 
BRANCH   8  13
ATOM      9  O   UNL     1      35.481 -15.465 -22.575  0.00  0.00    -0.346 OA
ATOM     10  O   UNL     1      34.675 -18.382 -24.319  0.00  0.00    -0.272 OA
ATOM     11  O   UNL     1      35.265 -15.921 -20.334  0.00  0.00    -0.247 OA
ATOM     12  N   UNL     1      35.304 -16.209 -23.760  0.00  0.00    -0.144 N 
ATOM     13  C   UNL     1      34.759 -17.610 -22.019  0.00  0.00    +0.184 C 
ATOM     14  C   UNL     1      34.894 -17.496 -23.508  0.00  0.00    +0.264 C 
ATOM     15  C   UNL     1      35.189 -16.262 -21.503  0.00  0.00    +0.348 C 
ATOM     16  H   UNL     1      35.458 -15.848 -24.663  0.00  0.00    +0.196 HD
ENDBRANCH   8  13
ENDBRANCH   2   8
ENDBRANCH   1   5
BRANCH   1  17
ATOM     17  C   UNL     1      33.359 -22.971 -17.231  0.00  0.00    +0.213 C 
BRANCH  17  18
ATOM     18  C   UNL     1      32.371 -23.214 -16.094  0.00  0.00    +0.105 C 
BRANCH  18  21
ATOM     19  O   UNL     1      33.478 -23.985 -12.703  0.00  0.00    -0.449 OA
ATOM     20  N   UNL     1      34.399 -23.602 -14.733  0.00  0.00    -0.373 NA
ATOM     21  C   UNL     1      33.047 -23.523 -14.789  0.00  0.00    +0.134 C 
ATOM     22  C   UNL     1      32.470 -23.749 -13.587  0.00  0.00    +0.216 C 
ATOM     23  C   UNL     1      34.601 -23.879 -13.465  0.00  0.00    +0.277 C 
ATOM     24  C   UNL     1      31.099 -23.791 -13.064  0.00  0.00    +0.055 C 
BRANCH  23  25
ATOM     25  C   UNL     1      35.838 -24.089 -12.764  0.00  0.00    +0.066 C 
ATOM     26  C   UNL     1      36.325 -23.115 -11.887  0.00  0.00    +0.006 C 
ATOM     27  C   UNL     1      36.563 -25.268 -12.957  0.00  0.00    +0.006 C 
ATOM     28  C   UNL     1      37.526 -23.319 -11.209  0.00  0.00    +0.000 C 
ATOM     29  C   UNL     1      37.764 -25.473 -12.278  0.00  0.00    +0.000 C 
ATOM     30  C   UNL     1      38.247 -24.498 -11.404  0.00  0.00    +0.000 C 
ENDBRANCH  23  25
ENDBRANCH  18  21
ENDBRANCH  17  18
ENDBRANCH   1  17
TORSDOF 7
ENDMDL
MODEL 5
REMARK VINA RESULT:     -11.7      4.247     10.972
REMARK  Name = 154000
REMARK  7 active torsions:
REMARK  status: ('A' for Active; 'I' for Inactive)
REMARK    1  A    between atoms: O_1  and  C_5
REMARK    2  A    between atoms: O_1  and  C_17
REMARK    3  A    between atoms: C_2  and  C_8
REMARK    4  A    between atoms: C_8  and  C_13
REMARK    5  A    between atoms: C_17  and  C_18
REMARK    6  A    between atoms: C_18  and  C_21
REMARK    7  A    between atoms: C_23  and  C_25
REMARK                            x       y       z     vdW  Elec       q    Type
REMARK                         _______ _______ _______ _____ _____    ______ ____
ROOT
ATOM      1  O   UNL     1      34.439 -19.100 -20.917  0.00  0.00    -0.475 OA
ENDROOT
BRANCH   1   5
ATOM      2  C   UNL     1      33.876 -22.282 -18.340  0.00  0.00    -0.021 C 
ATOM      3  C   UNL     1      35.161 -21.953 -18.745  0.00  0.00    -0.001 C 
ATOM      4  C   UNL     1      32.777 -21.564 -18.786  0.00  0.00    -0.001 C 
ATOM      5  C   UNL     1      34.255 -20.148 -20.069  0.00  0.00    +0.139 C 
ATOM      6  C   UNL     1      35.352 -20.879 -19.614  0.00  0.00    +0.037 C 
ATOM      7  C   UNL     1      32.968 -20.490 -19.655  0.00  0.00    +0.037 C 
BRANCH   2   8
ATOM      8  C   UNL     1      33.671 -23.444 -17.401  0.00  0.00    +0.047 C 
BRANCH   8  13
ATOM      9  O   UNL     1      32.634 -24.102 -14.187  0.00  0.00    -0.346 OA
ATOM     10  O   UNL     1      35.901 -23.883 -15.403  0.00  0.00    -0.272 OA
ATOM     11  O   UNL     1      31.293 -22.875 -15.591  0.00  0.00    -0.247 OA
ATOM     12  N   UNL     1      34.013 -24.399 -14.140  0.00  0.00    -0.144 N 
ATOM     13  C   UNL     1      33.702 -23.012 -15.948  0.00  0.00    +0.184 C 
ATOM     14  C   UNL     1      34.706 -23.802 -15.165  0.00  0.00    +0.264 C 
ATOM     15  C   UNL     1      32.391 -23.293 -15.261  0.00  0.00    +0.348 C 
ATOM     16  H   UNL     1      34.428 -24.969 -13.454  0.00  0.00    +0.196 HD
ENDBRANCH   8  13
ENDBRANCH   2   8
ENDBRANCH   1   5
BRANCH   1  17
ATOM     17  C   UNL     1      35.661 -18.371 -20.793  0.00  0.00    +0.213 C 
BRANCH  17  18
ATOM     18  C   UNL     1      36.225 -18.070 -22.179  0.00  0.00    +0.105 C 
BRANCH  18  21
ATOM     19  O   UNL     1      33.850 -16.360 -24.360  0.00  0.00    -0.449 OA
ATOM     20  N   UNL     1      35.440 -15.822 -22.844  0.00  0.00    -0.373 NA
ATOM     21  C   UNL     1      35.338 -17.165 -22.985  0.00  0.00    +0.134 C 
ATOM     22  C   UNL     1      34.392 -17.517 -23.886  0.00  0.00    +0.216 C 
ATOM     23  C   UNL     1      34.530 -15.391 -23.689  0.00  0.00    +0.277 C 
ATOM     24  C   UNL     1      33.863 -18.774 -24.427  0.00  0.00    +0.055 C 
BRANCH  23  25
ATOM     25  C   UNL     1      34.146 -14.043 -24.006  0.00  0.00    +0.066 C 
ATOM     26  C   UNL     1      33.679 -13.726 -25.285  0.00  0.00    +0.006 C 
ATOM     27  C   UNL     1      34.238 -13.040 -23.037  0.00  0.00    +0.006 C 
ATOM     28  C   UNL     1      33.309 -12.417 -25.592  0.00  0.00    +0.000 C 
ATOM     29  C   UNL     1      33.867 -11.731 -23.344  0.00  0.00    +0.000 C 
ATOM     30  C   UNL     1      33.402 -11.419 -24.622  0.00  0.00    +0.000 C 
ENDBRANCH  23  25
ENDBRANCH  18  21
ENDBRANCH  17  18
ENDBRANCH   1  17
TORSDOF 7
ENDMDL
MODEL 6
REMARK VINA RESULT:     -11.7      4.840      8.646
REMARK  Name = 154000
REMARK  7 active torsions:
REMARK  status: ('A' for Active; 'I' for Inactive)
REMARK    1  A    between atoms: O_1  and  C_5
REMARK    2  A    between atoms: O_1  and  C_17
REMARK    3  A    between atoms: C_2  and  C_8
REMARK    4  A    between atoms: C_8  and  C_13
REMARK    5  A    between atoms: C_17  and  C_18
REMARK    6  A    between atoms: C_18  and  C_21
REMARK    7  A    between atoms: C_23  and  C_25
REMARK                            x       y       z     vdW  Elec       q    Type
REMARK                         _______ _______ _______ _____ _____    ______ ____
ROOT
ATOM      1  O   UNL     1      35.182 -21.683 -18.414  0.00  0.00    -0.475 OA
ENDROOT
BRANCH   1   5
ATOM      2  C   UNL     1      35.759 -18.874 -21.391  0.00  0.00    -0.021 C 
ATOM      3  C   UNL     1      34.498 -19.421 -21.206  0.00  0.00    -0.001 C 
ATOM      4  C   UNL     1      36.830 -19.253 -20.596  0.00  0.00    -0.001 C 
ATOM      5  C   UNL     1      35.372 -20.758 -19.395  0.00  0.00    +0.139 C 
ATOM      6  C   UNL     1      34.303 -20.368 -20.202  0.00  0.00    +0.037 C 
ATOM      7  C   UNL     1      36.635 -20.201 -19.592  0.00  0.00    +0.037 C 
BRANCH   2   8
ATOM      8  C   UNL     1      35.970 -17.850 -22.478  0.00  0.00    +0.047 C 
BRANCH   8  13
ATOM      9  O   UNL     1      34.792 -14.638 -22.844  0.00  0.00    -0.346 OA
ATOM     10  O   UNL     1      34.449 -17.330 -25.043  0.00  0.00    -0.272 OA
ATOM     11  O   UNL     1      35.116 -15.503 -20.741  0.00  0.00    -0.247 OA
ATOM     12  N   UNL     1      34.595 -15.193 -24.126  0.00  0.00    -0.144 N 
ATOM     13  C   UNL     1      34.755 -16.961 -22.663  0.00  0.00    +0.184 C 
ATOM     14  C   UNL     1      34.580 -16.567 -24.099  0.00  0.00    +0.264 C 
ATOM     15  C   UNL     1      34.915 -15.651 -21.935  0.00  0.00    +0.348 C 
ATOM     16  H   UNL     1      34.482 -14.658 -24.944  0.00  0.00    +0.196 HD
ENDBRANCH   8  13
ENDBRANCH   2   8
ENDBRANCH   1   5
BRANCH   1  17
ATOM     17  C   UNL     1      34.200 -22.691 -18.653  0.00  0.00    +0.213 C 
BRANCH  17  18
ATOM     18  C   UNL     1      33.076 -22.569 -17.628  0.00  0.00    +0.105 C 
BRANCH  18  21
ATOM     19  O   UNL     1      33.351 -23.998 -14.281  0.00  0.00    -0.449 OA
ATOM     20  N   UNL     1      34.641 -23.750 -16.123  0.00  0.00    -0.373 NA
ATOM     21  C   UNL     1      33.412 -23.215 -16.315  0.00  0.00    +0.134 C 
ATOM     22  C   UNL     1      32.617 -23.349 -15.228  0.00  0.00    +0.216 C 
ATOM     23  C   UNL     1      34.550 -24.203 -14.892  0.00  0.00    +0.277 C 
ATOM     24  C   UNL     1      31.244 -22.977 -14.871  0.00  0.00    +0.055 C 
BRANCH  23  25
ATOM     25  C   UNL     1      35.532 -24.887 -14.097  0.00  0.00    +0.066 C 
ATOM     26  C   UNL     1      36.285 -25.928 -14.648  0.00  0.00    +0.006 C 
ATOM     27  C   UNL     1      35.739 -24.516 -12.765  0.00  0.00    +0.006 C 
ATOM     28  C   UNL     1      37.236 -26.591 -13.874  0.00  0.00    +0.000 C 
ATOM     29  C   UNL     1      36.691 -25.179 -11.992  0.00  0.00    +0.000 C 
ATOM     30  C   UNL     1      37.440 -26.217 -12.546  0.00  0.00    +0.000 C 
ENDBRANCH  23  25
ENDBRANCH  18  21
ENDBRANCH  17  18
ENDBRANCH   1  17
TORSDOF 7
ENDMDL
MODEL 7
REMARK VINA RESULT:     -11.6      2.232     10.675
REMARK  Name = 154000
REMARK  7 active torsions:
REMARK  status: ('A' for Active; 'I' for Inactive)
REMARK    1  A    between atoms: O_1  and  C_5
REMARK    2  A    between atoms: O_1  and  C_17
REMARK    3  A    between atoms: C_2  and  C_8
REMARK    4  A    between atoms: C_8  and  C_13
REMARK    5  A    between atoms: C_17  and  C_18
REMARK    6  A    between atoms: C_18  and  C_21
REMARK    7  A    between atoms: C_23  and  C_25
REMARK                            x       y       z     vdW  Elec       q    Type
REMARK                         _______ _______ _______ _____ _____    ______ ____
ROOT
ATOM      1  O   UNL     1      35.193 -14.723 -22.756  0.00  0.00    -0.475 OA
ENDROOT
BRANCH   1   5
ATOM      2  C   UNL     1      35.005 -18.707 -21.668  0.00  0.00    -0.021 C 
ATOM      3  C   UNL     1      34.856 -18.357 -23.002  0.00  0.00    -0.001 C 
ATOM      4  C   UNL     1      35.216 -17.744 -20.693  0.00  0.00    -0.001 C 
ATOM      5  C   UNL     1      35.131 -16.035 -22.398  0.00  0.00    +0.139 C 
ATOM      6  C   UNL     1      34.919 -17.013 -23.370  0.00  0.00    +0.037 C 
ATOM      7  C   UNL     1      35.279 -16.400 -21.061  0.00  0.00    +0.037 C 
BRANCH   2   8
ATOM      8  C   UNL     1      34.935 -20.160 -21.271  0.00  0.00    +0.047 C 
BRANCH   8  13
ATOM      9  O   UNL     1      33.022 -21.978 -19.064  0.00  0.00    -0.346 OA
ATOM     10  O   UNL     1      36.474 -21.450 -19.007  0.00  0.00    -0.272 OA
ATOM     11  O   UNL     1      32.078 -20.238 -20.229  0.00  0.00    -0.247 OA
ATOM     12  N   UNL     1      34.339 -22.333 -18.705  0.00  0.00    -0.144 N 
ATOM     13  C   UNL     1      34.483 -20.335 -19.835  0.00  0.00    +0.184 C 
ATOM     14  C   UNL     1      35.261 -21.414 -19.145  0.00  0.00    +0.264 C 
ATOM     15  C   UNL     1      33.053 -20.802 -19.760  0.00  0.00    +0.348 C 
ATOM     16  H   UNL     1      34.570 -23.145 -18.199  0.00  0.00    +0.196 HD
ENDBRANCH   8  13
ENDBRANCH   2   8
ENDBRANCH   1   5
BRANCH   1  17
ATOM     17  C   UNL     1      34.530 -13.786 -21.906  0.00  0.00    +0.213 C 
BRANCH  17  18
ATOM     18  C   UNL     1      33.178 -13.413 -22.507  0.00  0.00    +0.105 C 
BRANCH  18  21
ATOM     19  O   UNL     1      33.120  -9.956 -23.677  0.00  0.00    -0.449 OA
ATOM     20  N   UNL     1      32.473 -11.133 -21.858  0.00  0.00    -0.373 NA
ATOM     21  C   UNL     1      33.048 -11.942 -22.781  0.00  0.00    +0.134 C 
ATOM     22  C   UNL     1      33.445 -11.263 -23.881  0.00  0.00    +0.216 C 
ATOM     23  C   UNL     1      32.543  -9.959 -22.445  0.00  0.00    +0.277 C 
ATOM     24  C   UNL     1      34.100 -11.598 -25.151  0.00  0.00    +0.055 C 
BRANCH  23  25
ATOM     25  C   UNL     1      32.097  -8.677 -21.974  0.00  0.00    +0.066 C 
ATOM     26  C   UNL     1      31.370  -7.832 -22.818  0.00  0.00    +0.006 C 
ATOM     27  C   UNL     1      32.389  -8.266 -20.671  0.00  0.00    +0.006 C 
ATOM     28  C   UNL     1      30.940  -6.587 -22.361  0.00  0.00    +0.000 C 
ATOM     29  C   UNL     1      31.958  -7.021 -20.214  0.00  0.00    +0.000 C 
ATOM     30  C   UNL     1      31.233  -6.181 -21.059  0.00  0.00    +0.000 C 
ENDBRANCH  23  25
ENDBRANCH  18  21
ENDBRANCH  17  18
ENDBRANCH   1  17
TORSDOF 7
ENDMDL
MODEL 8
REMARK VINA RESULT:     -11.6      3.715      6.550
REMARK  Name = 154000
REMARK  7 active torsions:
REMARK  status: ('A' for Active; 'I' for Inactive)
REMARK    1  A    between atoms: O_1  and  C_5
REMARK    2  A    between atoms: O_1  and  C_17
REMARK    3  A    between atoms: C_2  and  C_8
REMARK    4  A    between atoms: C_8  and  C_13
REMARK    5  A    between atoms: C_17  and  C_18
REMARK    6  A    between atoms: C_18  and  C_21
REMARK    7  A    between atoms: C_23  and  C_25
REMARK                            x       y       z     vdW  Elec       q    Type
REMARK                         _______ _______ _______ _____ _____    ______ ____
ROOT
ATOM      1  O   UNL     1      35.356 -20.445 -20.965  0.00  0.00    -0.475 OA
ENDROOT
BRANCH   1   5
ATOM      2  C   UNL     1      35.164 -16.670 -22.638  0.00  0.00    -0.021 C 
ATOM      3  C   UNL     1      34.899 -17.779 -23.428  0.00  0.00    -0.001 C 
ATOM      4  C   UNL     1      35.492 -16.805 -21.298  0.00  0.00    -0.001 C 
ATOM      5  C   UNL     1      35.293 -19.202 -21.517  0.00  0.00    +0.139 C 
ATOM      6  C   UNL     1      34.964 -19.053 -22.864  0.00  0.00    +0.037 C 
ATOM      7  C   UNL     1      35.557 -18.078 -20.734  0.00  0.00    +0.037 C 
BRANCH   2   8
ATOM      8  C   UNL     1      35.095 -15.293 -23.250  0.00  0.00    +0.047 C 
BRANCH   8  13
ATOM      9  O   UNL     1      32.947 -12.773 -24.187  0.00  0.00    -0.346 OA
ATOM     10  O   UNL     1      33.785 -15.669 -25.952  0.00  0.00    -0.272 OA
ATOM     11  O   UNL     1      33.307 -13.197 -21.958  0.00  0.00    -0.247 OA
ATOM     12  N   UNL     1      33.095 -13.519 -25.375  0.00  0.00    -0.144 N 
ATOM     13  C   UNL     1      33.680 -14.918 -23.645  0.00  0.00    +0.184 C 
ATOM     14  C   UNL     1      33.543 -14.796 -25.133  0.00  0.00    +0.264 C 
ATOM     15  C   UNL     1      33.304 -13.556 -23.124  0.00  0.00    +0.348 C 
ATOM     16  H   UNL     1      32.899 -13.166 -26.273  0.00  0.00    +0.196 HD
ENDBRANCH   8  13
ENDBRANCH   2   8
ENDBRANCH   1   5
BRANCH   1  17
ATOM     17  C   UNL     1      35.783 -20.531 -19.605  0.00  0.00    +0.213 C 
BRANCH  17  18
ATOM     18  C   UNL     1      35.590 -21.955 -19.093  0.00  0.00    +0.105 C 
BRANCH  18  21
ATOM     19  O   UNL     1      32.215 -22.080 -17.708  0.00  0.00    -0.449 OA
ATOM     20  N   UNL     1      34.280 -22.848 -17.196  0.00  0.00    -0.373 NA
ATOM     21  C   UNL     1      34.299 -22.136 -18.348  0.00  0.00    +0.134 C 
ATOM     22  C   UNL     1      33.075 -21.664 -18.680  0.00  0.00    +0.216 C 
ATOM     23  C   UNL     1      33.012 -22.782 -16.856  0.00  0.00    +0.277 C 
ATOM     24  C   UNL     1      32.511 -20.863 -19.772  0.00  0.00    +0.055 C 
BRANCH  23  25
ATOM     25  C   UNL     1      32.343 -23.345 -15.716  0.00  0.00    +0.066 C 
ATOM     26  C   UNL     1      30.947 -23.411 -15.681  0.00  0.00    +0.006 C 
ATOM     27  C   UNL     1      33.084 -23.828 -14.635  0.00  0.00    +0.006 C 
ATOM     28  C   UNL     1      30.298 -23.955 -14.573  0.00  0.00    +0.000 C 
ATOM     29  C   UNL     1      32.436 -24.373 -13.527  0.00  0.00    +0.000 C 
ATOM     30  C   UNL     1      31.042 -24.437 -13.496  0.00  0.00    +0.000 C 
ENDBRANCH  23  25
ENDBRANCH  18  21
ENDBRANCH  17  18
ENDBRANCH   1  17
TORSDOF 7
ENDMDL
MODEL 9
REMARK VINA RESULT:     -11.6      3.466     10.836
REMARK  Name = 154000
REMARK  7 active torsions:
REMARK  status: ('A' for Active; 'I' for Inactive)
REMARK    1  A    between atoms: O_1  and  C_5
REMARK    2  A    between atoms: O_1  and  C_17
REMARK    3  A    between atoms: C_2  and  C_8
REMARK    4  A    between atoms: C_8  and  C_13
REMARK    5  A    between atoms: C_17  and  C_18
REMARK    6  A    between atoms: C_18  and  C_21
REMARK    7  A    between atoms: C_23  and  C_25
REMARK                            x       y       z     vdW  Elec       q    Type
REMARK                         _______ _______ _______ _____ _____    ______ ____
ROOT
ATOM      1  O   UNL     1      35.833 -19.021 -20.978  0.00  0.00    -0.475 OA
ENDROOT
BRANCH   1   5
ATOM      2  C   UNL     1      34.083 -22.042 -18.766  0.00  0.00    -0.021 C 
ATOM      3  C   UNL     1      33.279 -21.180 -19.497  0.00  0.00    -0.001 C 
ATOM      4  C   UNL     1      35.463 -21.908 -18.763  0.00  0.00    -0.001 C 
ATOM      5  C   UNL     1      35.256 -20.015 -20.249  0.00  0.00    +0.139 C 
ATOM      6  C   UNL     1      33.869 -20.161 -20.244  0.00  0.00    +0.037 C 
ATOM      7  C   UNL     1      36.053 -20.889 -19.509  0.00  0.00    +0.037 C 
BRANCH   2   8
ATOM      8  C   UNL     1      33.444 -23.144 -17.958  0.00  0.00    +0.047 C 
BRANCH   8  13
ATOM      9  O   UNL     1      31.980 -23.910 -14.939  0.00  0.00    -0.346 OA
ATOM     10  O   UNL     1      35.378 -23.550 -15.665  0.00  0.00    -0.272 OA
ATOM     11  O   UNL     1      30.810 -22.698 -16.501  0.00  0.00    -0.247 OA
ATOM     12  N   UNL     1      33.348 -24.160 -14.699  0.00  0.00    -0.144 N 
ATOM     13  C   UNL     1      33.249 -22.744 -16.508  0.00  0.00    +0.184 C 
ATOM     14  C   UNL     1      34.159 -23.516 -15.601  0.00  0.00    +0.264 C 
ATOM     15  C   UNL     1      31.864 -23.086 -16.023  0.00  0.00    +0.348 C 
ATOM     16  H   UNL     1      33.681 -24.731 -13.969  0.00  0.00    +0.196 HD
ENDBRANCH   8  13
ENDBRANCH   2   8
ENDBRANCH   1   5
BRANCH   1  17
ATOM     17  C   UNL     1      35.142 -17.773 -21.036  0.00  0.00    +0.213 C 
BRANCH  17  18
ATOM     18  C   UNL     1      35.757 -16.893 -22.119  0.00  0.00    +0.105 C 
BRANCH  18  21
ATOM     19  O   UNL     1      33.513 -14.473 -23.679  0.00  0.00    -0.449 OA
ATOM     20  N   UNL     1      34.559 -14.772 -21.695  0.00  0.00    -0.373 NA
ATOM     21  C   UNL     1      34.847 -15.780 -22.553  0.00  0.00    +0.134 C 
ATOM     22  C   UNL     1      34.234 -15.627 -23.749  0.00  0.00    +0.216 C 
ATOM     23  C   UNL     1      33.760 -14.020 -22.419  0.00  0.00    +0.277 C 
ATOM     24  C   UNL     1      34.179 -16.372 -25.012  0.00  0.00    +0.055 C 
BRANCH  23  25
ATOM     25  C   UNL     1      33.105 -12.789 -22.073  0.00  0.00    +0.066 C 
ATOM     26  C   UNL     1      32.239 -12.735 -20.977  0.00  0.00    +0.006 C 
ATOM     27  C   UNL     1      33.330 -11.637 -22.831  0.00  0.00    +0.006 C 
ATOM     28  C   UNL     1      31.603 -11.540 -20.643  0.00  0.00    +0.000 C 
ATOM     29  C   UNL     1      32.694 -10.441 -22.497  0.00  0.00    +0.000 C 
ATOM     30  C   UNL     1      31.830 -10.392 -21.403  0.00  0.00    +0.000 C 
ENDBRANCH  23  25
ENDBRANCH  18  21
ENDBRANCH  17  18
ENDBRANCH   1  17
TORSDOF 7
ENDMDL
