MODEL 1
REMARK VINA RESULT:     -12.1      0.000      0.000
REMARK  Name = 25065981
REMARK  7 active torsions:
REMARK  status: ('A' for Active; 'I' for Inactive)
REMARK    1  A    between atoms: C_1  and  C_3
REMARK    2  A    between atoms: C_1  and  C_16
REMARK    3  A    between atoms: C_11  and  O_13
REMARK    4  A    between atoms: C_16  and  O_17
REMARK    5  A    between atoms: O_17  and  C_18
REMARK    6  A    between atoms: C_21  and  C_25
REMARK    7  A    between atoms: C_25  and  N_26
REMARK                            x       y       z     vdW  Elec       q    Type
REMARK                         _______ _______ _______ _____ _____    ______ ____
ROOT
ATOM      1  C   UNL     1      35.530 -17.220 -22.513  0.00  0.00    +0.122 C 
ATOM      2  C   UNL     1      34.537 -17.462 -23.667  0.00  0.00    +0.016 C 
ENDROOT
BRANCH   1   3
ATOM      3  C   UNL     1      35.577 -18.339 -21.529  0.00  0.00    -0.012 C 
ATOM      4  C   UNL     1      34.426 -20.038 -20.222  0.00  0.00    -0.000 C 
ATOM      5  C   UNL     1      34.399 -18.982 -21.147  0.00  0.00    -0.004 C 
ATOM      6  C   UNL     1      35.665 -20.448 -19.676  0.00  0.00    +0.003 C 
ATOM      7  C   UNL     1      36.796 -18.743 -20.992  0.00  0.00    -0.004 C 
ATOM      8  C   UNL     1      36.842 -19.790 -20.072  0.00  0.00    -0.000 C 
ATOM      9  C   UNL     1      33.251 -20.696 -19.827  0.00  0.00    +0.003 C 
ATOM     10  C   UNL     1      35.693 -21.504 -18.751  0.00  0.00    +0.037 C 
ATOM     11  C   UNL     1      34.515 -22.147 -18.370  0.00  0.00    +0.139 C 
ATOM     12  C   UNL     1      33.296 -21.743 -18.906  0.00  0.00    +0.037 C 
BRANCH  11  13
ATOM     13  O   UNL     1      34.558 -23.169 -17.472  0.00  0.00    -0.471 OA
ATOM     14  C   UNL     1      33.503 -23.238 -16.515  0.00  0.00    +0.252 C 
ENDBRANCH  11  13
ENDBRANCH   1   3
BRANCH   1  16
ATOM     15  O   UNL     1      35.128 -15.692 -20.647  0.00  0.00    -0.249 OA
ATOM     16  C   UNL     1      35.226 -15.867 -21.855  0.00  0.00    +0.325 C 
BRANCH  16  17
ATOM     17  O   UNL     1      35.110 -14.883 -22.837  0.00  0.00    -0.424 OA
BRANCH  17  18
ATOM     18  C   UNL     1      34.238 -13.853 -22.479  0.00  0.00    +0.148 C 
ATOM     19  C   UNL     1      33.376 -14.014 -21.394  0.00  0.00    +0.038 C 
ATOM     20  C   UNL     1      34.228 -12.663 -23.207  0.00  0.00    +0.038 C 
ATOM     21  C   UNL     1      32.493 -11.796 -21.767  0.00  0.00    +0.020 C 
ATOM     22  C   UNL     1      32.504 -12.986 -21.038  0.00  0.00    +0.005 C 
ATOM     23  C   UNL     1      33.356 -11.635 -22.851  0.00  0.00    +0.005 C 
BRANCH  21  25
ATOM     24  S   UNL     1      31.885  -9.073 -21.615  0.00  0.00    -0.035 S 
ATOM     25  C   UNL     1      31.584 -10.724 -21.395  0.00  0.00    +0.078 C 
BRANCH  25  26
ATOM     26  N   UNL     1      30.379 -11.113 -20.823  0.00  0.00    -0.352 N 
ATOM     27  H   UNL     1      29.655 -10.455 -20.705  0.00  0.00    +0.143 HD
ATOM     28  H   UNL     1      30.247 -12.045 -20.536  0.00  0.00    +0.143 HD
ENDBRANCH  25  26
ENDBRANCH  21  25
ENDBRANCH  17  18
ENDBRANCH  16  17
ENDBRANCH   1  16
TORSDOF 7
ENDMDL
MODEL 2
REMARK VINA RESULT:     -11.7      2.229      3.301
REMARK  Name = 25065981
REMARK  7 active torsions:
REMARK  status: ('A' for Active; 'I' for Inactive)
REMARK    1  A    between atoms: C_1  and  C_3
REMARK    2  A    between atoms: C_1  and  C_16
REMARK    3  A    between atoms: C_11  and  O_13
REMARK    4  A    between atoms: C_16  and  O_17
REMARK    5  A    between atoms: O_17  and  C_18
REMARK    6  A    between atoms: C_21  and  C_25
REMARK    7  A    between atoms: C_25  and  N_26
REMARK                            x       y       z     vdW  Elec       q    Type
REMARK                         _______ _______ _______ _____ _____    ______ ____
ROOT
ATOM      1  C   UNL     1      35.605 -19.782 -21.088  0.00  0.00    +0.122 C 
ATOM      2  C   UNL     1      34.235 -19.446 -21.710  0.00  0.00    +0.016 C 
ENDROOT
BRANCH   1   3
ATOM      3  C   UNL     1      35.505 -20.586 -19.836  0.00  0.00    -0.012 C 
ATOM      4  C   UNL     1      34.156 -21.847 -18.252  0.00  0.00    -0.000 C 
ATOM      5  C   UNL     1      34.268 -21.089 -19.428  0.00  0.00    -0.004 C 
ATOM      6  C   UNL     1      35.314 -22.101 -17.479  0.00  0.00    +0.003 C 
ATOM      7  C   UNL     1      36.643 -20.835 -19.076  0.00  0.00    -0.004 C 
ATOM      8  C   UNL     1      36.550 -21.587 -17.905  0.00  0.00    -0.000 C 
ATOM      9  C   UNL     1      32.921 -22.361 -17.826  0.00  0.00    +0.003 C 
ATOM     10  C   UNL     1      35.202 -22.859 -16.302  0.00  0.00    +0.037 C 
ATOM     11  C   UNL     1      33.966 -23.362 -15.894  0.00  0.00    +0.139 C 
ATOM     12  C   UNL     1      32.828 -23.113 -16.655  0.00  0.00    +0.037 C 
BRANCH  11  13
ATOM     13  O   UNL     1      33.874 -24.096 -14.752  0.00  0.00    -0.471 OA
ATOM     14  C   UNL     1      35.086 -24.627 -14.220  0.00  0.00    +0.252 C 
ENDBRANCH  11  13
ENDBRANCH   1   3
BRANCH   1  16
ATOM     15  O   UNL     1      37.552 -18.320 -21.306  0.00  0.00    -0.249 OA
ATOM     16  C   UNL     1      36.410 -18.489 -20.898  0.00  0.00    +0.325 C 
BRANCH  16  17
ATOM     17  O   UNL     1      35.633 -17.549 -20.222  0.00  0.00    -0.424 OA
BRANCH  17  18
ATOM     18  C   UNL     1      35.254 -16.472 -21.028  0.00  0.00    +0.148 C 
ATOM     19  C   UNL     1      34.801 -15.289 -20.443  0.00  0.00    +0.038 C 
ATOM     20  C   UNL     1      35.326 -16.581 -22.416  0.00  0.00    +0.038 C 
ATOM     21  C   UNL     1      34.493 -14.324 -22.636  0.00  0.00    +0.020 C 
ATOM     22  C   UNL     1      34.421 -14.215 -21.247  0.00  0.00    +0.005 C 
ATOM     23  C   UNL     1      34.946 -15.506 -23.220  0.00  0.00    +0.005 C 
BRANCH  21  25
ATOM     24  S   UNL     1      33.274 -13.336 -24.947  0.00  0.00    -0.035 S 
ATOM     25  C   UNL     1      34.096 -13.204 -23.474  0.00  0.00    +0.078 C 
BRANCH  25  26
ATOM     26  N   UNL     1      34.422 -11.938 -23.002  0.00  0.00    -0.352 N 
ATOM     27  H   UNL     1      35.359 -11.633 -23.017  0.00  0.00    +0.143 HD
ATOM     28  H   UNL     1      33.718 -11.346 -22.652  0.00  0.00    +0.143 HD
ENDBRANCH  25  26
ENDBRANCH  21  25
ENDBRANCH  17  18
ENDBRANCH  16  17
ENDBRANCH   1  16
TORSDOF 7
ENDMDL
MODEL 3
REMARK VINA RESULT:     -11.5      1.256      2.293
REMARK  Name = 25065981
REMARK  7 active torsions:
REMARK  status: ('A' for Active; 'I' for Inactive)
REMARK    1  A    between atoms: C_1  and  C_3
REMARK    2  A    between atoms: C_1  and  C_16
REMARK    3  A    between atoms: C_11  and  O_13
REMARK    4  A    between atoms: C_16  and  O_17
REMARK    5  A    between atoms: O_17  and  C_18
REMARK    6  A    between atoms: C_21  and  C_25
REMARK    7  A    between atoms: C_25  and  N_26
REMARK                            x       y       z     vdW  Elec       q    Type
REMARK                         _______ _______ _______ _____ _____    ______ ____
ROOT
ATOM      1  C   UNL     1      35.442 -18.958 -21.760  0.00  0.00    +0.122 C 
ATOM      2  C   UNL     1      34.777 -19.017 -23.149  0.00  0.00    +0.016 C 
ENDROOT
BRANCH   1   3
ATOM      3  C   UNL     1      34.757 -19.804 -20.740  0.00  0.00    -0.012 C 
ATOM      4  C   UNL     1      34.880 -21.300 -18.826  0.00  0.00    -0.000 C 
ATOM      5  C   UNL     1      35.509 -20.500 -19.793  0.00  0.00    -0.004 C 
ATOM      6  C   UNL     1      33.468 -21.396 -18.819  0.00  0.00    +0.003 C 
ATOM      7  C   UNL     1      33.369 -19.898 -20.733  0.00  0.00    -0.004 C 
ATOM      8  C   UNL     1      32.727 -20.688 -19.780  0.00  0.00    -0.000 C 
ATOM      9  C   UNL     1      35.621 -22.008 -17.866  0.00  0.00    +0.003 C 
ATOM     10  C   UNL     1      32.838 -22.197 -17.852  0.00  0.00    +0.037 C 
ATOM     11  C   UNL     1      33.590 -22.892 -16.905  0.00  0.00    +0.139 C 
ATOM     12  C   UNL     1      34.979 -22.798 -16.912  0.00  0.00    +0.037 C 
BRANCH  11  13
ATOM     13  O   UNL     1      32.966 -23.664 -15.974  0.00  0.00    -0.471 OA
ATOM     14  C   UNL     1      31.614 -23.337 -15.659  0.00  0.00    +0.252 C 
ENDBRANCH  11  13
ENDBRANCH   1   3
BRANCH   1  16
ATOM     15  O   UNL     1      35.664 -17.127 -20.155  0.00  0.00    -0.249 OA
ATOM     16  C   UNL     1      35.577 -17.494 -21.321  0.00  0.00    +0.325 C 
BRANCH  16  17
ATOM     17  O   UNL     1      35.610 -16.669 -22.444  0.00  0.00    -0.424 OA
BRANCH  17  18
ATOM     18  C   UNL     1      34.838 -15.514 -22.298  0.00  0.00    +0.148 C 
ATOM     19  C   UNL     1      34.681 -14.935 -21.038  0.00  0.00    +0.038 C 
ATOM     20  C   UNL     1      34.225 -14.940 -23.411  0.00  0.00    +0.038 C 
ATOM     21  C   UNL     1      33.294 -13.209 -22.006  0.00  0.00    +0.020 C 
ATOM     22  C   UNL     1      33.908 -13.783 -20.892  0.00  0.00    +0.005 C 
ATOM     23  C   UNL     1      33.452 -13.787 -23.264  0.00  0.00    +0.005 C 
BRANCH  21  25
ATOM     24  S   UNL     1      32.842 -10.507 -22.549  0.00  0.00    -0.035 S 
ATOM     25  C   UNL     1      32.489 -12.008 -21.852  0.00  0.00    +0.078 C 
BRANCH  25  26
ATOM     26  N   UNL     1      31.345 -12.131 -21.075  0.00  0.00    -0.352 N 
ATOM     27  H   UNL     1      31.256 -12.884 -20.445  0.00  0.00    +0.143 HD
ATOM     28  H   UNL     1      30.622 -11.467 -21.152  0.00  0.00    +0.143 HD
ENDBRANCH  25  26
ENDBRANCH  21  25
ENDBRANCH  17  18
ENDBRANCH  16  17
ENDBRANCH   1  16
TORSDOF 7
ENDMDL
MODEL 4
REMARK VINA RESULT:     -11.3      4.814      9.358
REMARK  Name = 25065981
REMARK  7 active torsions:
REMARK  status: ('A' for Active; 'I' for Inactive)
REMARK    1  A    between atoms: C_1  and  C_3
REMARK    2  A    between atoms: C_1  and  C_16
REMARK    3  A    between atoms: C_11  and  O_13
REMARK    4  A    between atoms: C_16  and  O_17
REMARK    5  A    between atoms: O_17  and  C_18
REMARK    6  A    between atoms: C_21  and  C_25
REMARK    7  A    between atoms: C_25  and  N_26
REMARK                            x       y       z     vdW  Elec       q    Type
REMARK                         _______ _______ _______ _____ _____    ______ ____
ROOT
ATOM      1  C   UNL     1      35.895 -19.544 -21.243  0.00  0.00    +0.122 C 
ATOM      2  C   UNL     1      36.974 -18.913 -20.340  0.00  0.00    +0.016 C 
ENDROOT
BRANCH   1   3
ATOM      3  C   UNL     1      35.294 -18.580 -22.208  0.00  0.00    -0.012 C 
ATOM      4  C   UNL     1      34.791 -16.287 -22.850  0.00  0.00    -0.000 C 
ATOM      5  C   UNL     1      35.352 -17.210 -21.951  0.00  0.00    -0.004 C 
ATOM      6  C   UNL     1      34.161 -16.762 -24.025  0.00  0.00    +0.003 C 
ATOM      7  C   UNL     1      34.674 -19.046 -23.363  0.00  0.00    -0.004 C 
ATOM      8  C   UNL     1      34.111 -18.145 -24.267  0.00  0.00    -0.000 C 
ATOM      9  C   UNL     1      34.841 -14.906 -22.608  0.00  0.00    +0.003 C 
ATOM     10  C   UNL     1      33.599 -15.840 -24.923  0.00  0.00    +0.037 C 
ATOM     11  C   UNL     1      33.658 -14.471 -24.667  0.00  0.00    +0.139 C 
ATOM     12  C   UNL     1      34.278 -14.004 -23.512  0.00  0.00    +0.037 C 
BRANCH  11  13
ATOM     13  O   UNL     1      33.110 -13.589 -25.548  0.00  0.00    -0.471 OA
ATOM     14  C   UNL     1      33.478 -12.219 -25.410  0.00  0.00    +0.252 C 
ENDBRANCH  11  13
ENDBRANCH   1   3
BRANCH   1  16
ATOM     15  O   UNL     1      33.822 -19.704 -19.956  0.00  0.00    -0.249 OA
ATOM     16  C   UNL     1      34.843 -20.241 -20.369  0.00  0.00    +0.325 C 
BRANCH  16  17
ATOM     17  O   UNL     1      35.218 -21.566 -20.149  0.00  0.00    -0.424 OA
BRANCH  17  18
ATOM     18  C   UNL     1      35.296 -21.895 -18.795  0.00  0.00    +0.148 C 
ATOM     19  C   UNL     1      34.210 -22.500 -18.160  0.00  0.00    +0.038 C 
ATOM     20  C   UNL     1      36.458 -21.619 -18.076  0.00  0.00    +0.038 C 
ATOM     21  C   UNL     1      35.450 -22.550 -16.087  0.00  0.00    +0.020 C 
ATOM     22  C   UNL     1      34.288 -22.827 -16.807  0.00  0.00    +0.005 C 
ATOM     23  C   UNL     1      36.535 -21.946 -16.721  0.00  0.00    +0.005 C 
BRANCH  21  25
ATOM     24  S   UNL     1      36.954 -23.284 -13.851  0.00  0.00    -0.035 S 
ATOM     25  C   UNL     1      35.530 -22.891 -14.676  0.00  0.00    +0.078 C 
BRANCH  25  26
ATOM     26  N   UNL     1      34.332 -22.880 -13.973  0.00  0.00    -0.352 N 
ATOM     27  H   UNL     1      34.334 -22.728 -13.000  0.00  0.00    +0.143 HD
ATOM     28  H   UNL     1      33.481 -23.023 -14.447  0.00  0.00    +0.143 HD
ENDBRANCH  25  26
ENDBRANCH  21  25
ENDBRANCH  17  18
ENDBRANCH  16  17
ENDBRANCH   1  16
TORSDOF 7
ENDMDL
MODEL 5
REMARK VINA RESULT:     -11.3      5.147      9.411
REMARK  Name = 25065981
REMARK  7 active torsions:
REMARK  status: ('A' for Active; 'I' for Inactive)
REMARK    1  A    between atoms: C_1  and  C_3
REMARK    2  A    between atoms: C_1  and  C_16
REMARK    3  A    between atoms: C_11  and  O_13
REMARK    4  A    between atoms: C_16  and  O_17
REMARK    5  A    between atoms: O_17  and  C_18
REMARK    6  A    between atoms: C_21  and  C_25
REMARK    7  A    between atoms: C_25  and  N_26
REMARK                            x       y       z     vdW  Elec       q    Type
REMARK                         _______ _______ _______ _____ _____    ______ ____
ROOT
ATOM      1  C   UNL     1      35.572 -21.124 -19.646  0.00  0.00    +0.122 C 
ATOM      2  C   UNL     1      36.577 -20.905 -18.497  0.00  0.00    +0.016 C 
ENDROOT
BRANCH   1   3
ATOM      3  C   UNL     1      35.504 -19.980 -20.599  0.00  0.00    -0.012 C 
ATOM      4  C   UNL     1      34.638 -19.005 -22.653  0.00  0.00    -0.000 C 
ATOM      5  C   UNL     1      34.713 -20.074 -21.745  0.00  0.00    -0.004 C 
ATOM      6  C   UNL     1      35.376 -17.825 -22.396  0.00  0.00    +0.003 C 
ATOM      7  C   UNL     1      36.230 -18.820 -20.346  0.00  0.00    -0.004 C 
ATOM      8  C   UNL     1      36.167 -17.748 -21.238  0.00  0.00    -0.000 C 
ATOM      9  C   UNL     1      33.847 -19.082 -23.811  0.00  0.00    +0.003 C 
ATOM     10  C   UNL     1      35.301 -16.756 -23.305  0.00  0.00    +0.037 C 
ATOM     11  C   UNL     1      34.510 -16.850 -24.449  0.00  0.00    +0.139 C 
ATOM     12  C   UNL     1      33.784 -18.010 -24.702  0.00  0.00    +0.037 C 
BRANCH  11  13
ATOM     13  O   UNL     1      34.447 -15.805 -25.320  0.00  0.00    -0.471 OA
ATOM     14  C   UNL     1      33.417 -14.843 -25.107  0.00  0.00    +0.252 C 
ENDBRANCH  11  13
ENDBRANCH   1   3
BRANCH   1  16
ATOM     15  O   UNL     1      33.240 -20.731 -19.028  0.00  0.00    -0.249 OA
ATOM     16  C   UNL     1      34.201 -21.489 -19.061  0.00  0.00    +0.325 C 
BRANCH  16  17
ATOM     17  O   UNL     1      34.221 -22.807 -18.606  0.00  0.00    -0.424 OA
BRANCH  17  18
ATOM     18  C   UNL     1      33.653 -22.958 -17.339  0.00  0.00    +0.148 C 
ATOM     19  C   UNL     1      34.473 -23.104 -16.220  0.00  0.00    +0.038 C 
ATOM     20  C   UNL     1      32.266 -22.963 -17.193  0.00  0.00    +0.038 C 
ATOM     21  C   UNL     1      32.518 -23.262 -14.809  0.00  0.00    +0.020 C 
ATOM     22  C   UNL     1      33.906 -23.256 -14.955  0.00  0.00    +0.005 C 
ATOM     23  C   UNL     1      31.699 -23.116 -15.927  0.00  0.00    +0.005 C 
BRANCH  21  25
ATOM     24  S   UNL     1      30.570 -24.370 -13.141  0.00  0.00    -0.035 S 
ATOM     25  C   UNL     1      31.928 -23.421 -13.490  0.00  0.00    +0.078 C 
BRANCH  25  26
ATOM     26  N   UNL     1      32.549 -22.737 -12.453  0.00  0.00    -0.352 N 
ATOM     27  H   UNL     1      32.888 -21.824 -12.598  0.00  0.00    +0.143 HD
ATOM     28  H   UNL     1      32.651 -23.164 -11.571  0.00  0.00    +0.143 HD
ENDBRANCH  25  26
ENDBRANCH  21  25
ENDBRANCH  17  18
ENDBRANCH  16  17
ENDBRANCH   1  16
TORSDOF 7
ENDMDL
MODEL 6
REMARK VINA RESULT:     -11.1      4.739      9.324
REMARK  Name = 25065981
REMARK  7 active torsions:
REMARK  status: ('A' for Active; 'I' for Inactive)
REMARK    1  A    between atoms: C_1  and  C_3
REMARK    2  A    between atoms: C_1  and  C_16
REMARK    3  A    between atoms: C_11  and  O_13
REMARK    4  A    between atoms: C_16  and  O_17
REMARK    5  A    between atoms: O_17  and  C_18
REMARK    6  A    between atoms: C_21  and  C_25
REMARK    7  A    between atoms: C_25  and  N_26
REMARK                            x       y       z     vdW  Elec       q    Type
REMARK                         _______ _______ _______ _____ _____    ______ ____
ROOT
ATOM      1  C   UNL     1      35.932 -19.207 -21.144  0.00  0.00    +0.122 C 
ATOM      2  C   UNL     1      37.188 -19.132 -20.253  0.00  0.00    +0.016 C 
ENDROOT
BRANCH   1   3
ATOM      3  C   UNL     1      35.443 -17.871 -21.590  0.00  0.00    -0.012 C 
ATOM      4  C   UNL     1      34.612 -16.421 -23.359  0.00  0.00    -0.000 C 
ATOM      5  C   UNL     1      35.074 -17.673 -22.921  0.00  0.00    -0.004 C 
ATOM      6  C   UNL     1      34.523 -15.355 -22.433  0.00  0.00    +0.003 C 
ATOM      7  C   UNL     1      35.356 -16.822 -20.680  0.00  0.00    -0.004 C 
ATOM      8  C   UNL     1      34.899 -15.572 -21.097  0.00  0.00    -0.000 C 
ATOM      9  C   UNL     1      34.236 -16.205 -24.694  0.00  0.00    +0.003 C 
ATOM     10  C   UNL     1      34.061 -14.102 -22.870  0.00  0.00    +0.037 C 
ATOM     11  C   UNL     1      33.691 -13.905 -24.200  0.00  0.00    +0.139 C 
ATOM     12  C   UNL     1      33.778 -14.954 -25.110  0.00  0.00    +0.037 C 
BRANCH  11  13
ATOM     13  O   UNL     1      33.245 -12.686 -24.608  0.00  0.00    -0.471 OA
ATOM     14  C   UNL     1      34.065 -11.559 -24.308  0.00  0.00    +0.252 C 
ENDBRANCH  11  13
ENDBRANCH   1   3
BRANCH   1  16
ATOM     15  O   UNL     1      33.763 -19.577 -20.078  0.00  0.00    -0.249 OA
ATOM     16  C   UNL     1      34.848 -20.025 -20.429  0.00  0.00    +0.325 C 
BRANCH  16  17
ATOM     17  O   UNL     1      35.281 -21.342 -20.273  0.00  0.00    -0.424 OA
BRANCH  17  18
ATOM     18  C   UNL     1      35.110 -21.823 -18.973  0.00  0.00    +0.148 C 
ATOM     19  C   UNL     1      33.921 -22.460 -18.615  0.00  0.00    +0.038 C 
ATOM     20  C   UNL     1      36.127 -21.665 -18.032  0.00  0.00    +0.038 C 
ATOM     21  C   UNL     1      34.768 -22.780 -16.375  0.00  0.00    +0.020 C 
ATOM     22  C   UNL     1      33.750 -22.938 -17.317  0.00  0.00    +0.005 C 
ATOM     23  C   UNL     1      35.956 -22.144 -16.733  0.00  0.00    +0.005 C 
BRANCH  21  25
ATOM     24  S   UNL     1      35.599 -24.402 -14.258  0.00  0.00    -0.035 S 
ATOM     25  C   UNL     1      34.588 -23.279 -15.021  0.00  0.00    +0.078 C 
BRANCH  25  26
ATOM     26  N   UNL     1      33.500 -22.775 -14.320  0.00  0.00    -0.352 N 
ATOM     27  H   UNL     1      32.605 -22.779 -14.731  0.00  0.00    +0.143 HD
ATOM     28  H   UNL     1      33.624 -22.413 -13.413  0.00  0.00    +0.143 HD
ENDBRANCH  25  26
ENDBRANCH  21  25
ENDBRANCH  17  18
ENDBRANCH  16  17
ENDBRANCH   1  16
TORSDOF 7
ENDMDL
MODEL 7
REMARK VINA RESULT:     -10.9      4.150      9.157
REMARK  Name = 25065981
REMARK  7 active torsions:
REMARK  status: ('A' for Active; 'I' for Inactive)
REMARK    1  A    between atoms: C_1  and  C_3
REMARK    2  A    between atoms: C_1  and  C_16
REMARK    3  A    between atoms: C_11  and  O_13
REMARK    4  A    between atoms: C_16  and  O_17
REMARK    5  A    between atoms: O_17  and  C_18
REMARK    6  A    between atoms: C_21  and  C_25
REMARK    7  A    between atoms: C_25  and  N_26
REMARK                            x       y       z     vdW  Elec       q    Type
REMARK                         _______ _______ _______ _____ _____    ______ ____
ROOT
ATOM      1  C   UNL     1      34.142 -15.475 -23.316  0.00  0.00    +0.122 C 
ATOM      2  C   UNL     1      34.780 -15.703 -24.701  0.00  0.00    +0.016 C 
ENDROOT
BRANCH   1   3
ATOM      3  C   UNL     1      33.754 -14.057 -23.070  0.00  0.00    -0.012 C 
ATOM      4  C   UNL     1      32.605 -12.399 -21.710  0.00  0.00    -0.000 C 
ATOM      5  C   UNL     1      32.980 -13.729 -21.956  0.00  0.00    -0.004 C 
ATOM      6  C   UNL     1      33.023 -11.385 -22.605  0.00  0.00    +0.003 C 
ATOM      7  C   UNL     1      34.165 -13.060 -23.950  0.00  0.00    -0.004 C 
ATOM      8  C   UNL     1      33.802 -11.733 -23.721  0.00  0.00    -0.000 C 
ATOM      9  C   UNL     1      31.826 -12.051 -20.595  0.00  0.00    +0.003 C 
ATOM     10  C   UNL     1      32.648 -10.054 -22.359  0.00  0.00    +0.037 C 
ATOM     11  C   UNL     1      31.874  -9.727 -21.246  0.00  0.00    +0.139 C 
ATOM     12  C   UNL     1      31.464 -10.724 -20.365  0.00  0.00    +0.037 C 
BRANCH  11  13
ATOM     13  O   UNL     1      31.520  -8.432 -21.020  0.00  0.00    -0.471 OA
ATOM     14  C   UNL     1      31.937  -7.849 -19.788  0.00  0.00    +0.252 C 
ENDBRANCH  11  13
ENDBRANCH   1   3
BRANCH   1  16
ATOM     15  O   UNL     1      35.226 -15.523 -21.125  0.00  0.00    -0.249 OA
ATOM     16  C   UNL     1      35.072 -16.031 -22.229  0.00  0.00    +0.325 C 
BRANCH  16  17
ATOM     17  O   UNL     1      35.679 -17.201 -22.684  0.00  0.00    -0.424 OA
BRANCH  17  18
ATOM     18  C   UNL     1      35.618 -18.246 -21.760  0.00  0.00    +0.148 C 
ATOM     19  C   UNL     1      34.422 -18.941 -21.571  0.00  0.00    +0.038 C 
ATOM     20  C   UNL     1      36.750 -18.593 -21.023  0.00  0.00    +0.038 C 
ATOM     21  C   UNL     1      35.494 -20.330 -19.909  0.00  0.00    +0.020 C 
ATOM     22  C   UNL     1      34.361 -19.983 -20.646  0.00  0.00    +0.005 C 
ATOM     23  C   UNL     1      36.688 -19.635 -20.098  0.00  0.00    +0.005 C 
BRANCH  21  25
ATOM     24  S   UNL     1      34.085 -22.416 -18.698  0.00  0.00    -0.035 S 
ATOM     25  C   UNL     1      35.428 -21.416 -18.945  0.00  0.00    +0.078 C 
BRANCH  25  26
ATOM     26  N   UNL     1      36.571 -21.633 -18.186  0.00  0.00    -0.352 N 
ATOM     27  H   UNL     1      37.383 -21.101 -18.355  0.00  0.00    +0.143 HD
ATOM     28  H   UNL     1      36.570 -22.317 -17.478  0.00  0.00    +0.143 HD
ENDBRANCH  25  26
ENDBRANCH  21  25
ENDBRANCH  17  18
ENDBRANCH  16  17
ENDBRANCH   1  16
TORSDOF 7
ENDMDL
MODEL 8
REMARK VINA RESULT:     -10.9      4.366      8.711
REMARK  Name = 25065981
REMARK  7 active torsions:
REMARK  status: ('A' for Active; 'I' for Inactive)
REMARK    1  A    between atoms: C_1  and  C_3
REMARK    2  A    between atoms: C_1  and  C_16
REMARK    3  A    between atoms: C_11  and  O_13
REMARK    4  A    between atoms: C_16  and  O_17
REMARK    5  A    between atoms: O_17  and  C_18
REMARK    6  A    between atoms: C_21  and  C_25
REMARK    7  A    between atoms: C_25  and  N_26
REMARK                            x       y       z     vdW  Elec       q    Type
REMARK                         _______ _______ _______ _____ _____    ______ ____
ROOT
ATOM      1  C   UNL     1      35.981 -18.023 -22.497  0.00  0.00    +0.122 C 
ATOM      2  C   UNL     1      37.148 -18.405 -21.565  0.00  0.00    +0.016 C 
ENDROOT
BRANCH   1   3
ATOM      3  C   UNL     1      35.329 -16.733 -22.131  0.00  0.00    -0.012 C 
ATOM      4  C   UNL     1      34.133 -14.720 -22.794  0.00  0.00    -0.000 C 
ATOM      5  C   UNL     1      34.751 -15.938 -23.122  0.00  0.00    -0.004 C 
ATOM      6  C   UNL     1      34.100 -14.303 -21.442  0.00  0.00    +0.003 C 
ATOM      7  C   UNL     1      35.296 -16.322 -20.801  0.00  0.00    -0.004 C 
ATOM      8  C   UNL     1      34.687 -15.116 -20.457  0.00  0.00    -0.000 C 
ATOM      9  C   UNL     1      33.547 -13.908 -23.777  0.00  0.00    +0.003 C 
ATOM     10  C   UNL     1      33.483 -13.085 -21.114  0.00  0.00    +0.037 C 
ATOM     11  C   UNL     1      32.905 -12.291 -22.104  0.00  0.00    +0.139 C 
ATOM     12  C   UNL     1      32.937 -12.702 -23.434  0.00  0.00    +0.037 C 
BRANCH  11  13
ATOM     13  O   UNL     1      32.309 -11.113 -21.771  0.00  0.00    -0.471 OA
ATOM     14  C   UNL     1      32.785  -9.937 -22.421  0.00  0.00    +0.252 C 
ENDBRANCH  11  13
ENDBRANCH   1   3
BRANCH   1  16
ATOM     15  O   UNL     1      35.094 -20.143 -23.332  0.00  0.00    -0.249 OA
ATOM     16  C   UNL     1      34.985 -19.189 -22.571  0.00  0.00    +0.325 C 
BRANCH  16  17
ATOM     17  O   UNL     1      33.973 -19.002 -21.631  0.00  0.00    -0.424 OA
BRANCH  17  18
ATOM     18  C   UNL     1      34.029 -19.917 -20.577  0.00  0.00    +0.148 C 
ATOM     19  C   UNL     1      35.265 -20.342 -20.088  0.00  0.00    +0.038 C 
ATOM     20  C   UNL     1      32.851 -20.405 -20.014  0.00  0.00    +0.038 C 
ATOM     21  C   UNL     1      34.142 -21.747 -18.474  0.00  0.00    +0.020 C 
ATOM     22  C   UNL     1      35.321 -21.257 -19.037  0.00  0.00    +0.005 C 
ATOM     23  C   UNL     1      32.908 -21.321 -18.962  0.00  0.00    +0.005 C 
BRANCH  21  25
ATOM     24  S   UNL     1      35.378 -22.710 -16.161  0.00  0.00    -0.035 S 
ATOM     25  C   UNL     1      34.202 -22.701 -17.379  0.00  0.00    +0.078 C 
BRANCH  25  26
ATOM     26  N   UNL     1      33.201 -23.664 -17.348  0.00  0.00    -0.352 N 
ATOM     27  H   UNL     1      32.690 -23.869 -18.164  0.00  0.00    +0.143 HD
ATOM     28  H   UNL     1      33.003 -24.142 -16.510  0.00  0.00    +0.143 HD
ENDBRANCH  25  26
ENDBRANCH  21  25
ENDBRANCH  17  18
ENDBRANCH  16  17
ENDBRANCH   1  16
TORSDOF 7
ENDMDL
MODEL 9
REMARK VINA RESULT:     -10.9      5.369      8.611
REMARK  Name = 25065981
REMARK  7 active torsions:
REMARK  status: ('A' for Active; 'I' for Inactive)
REMARK    1  A    between atoms: C_1  and  C_3
REMARK    2  A    between atoms: C_1  and  C_16
REMARK    3  A    between atoms: C_11  and  O_13
REMARK    4  A    between atoms: C_16  and  O_17
REMARK    5  A    between atoms: O_17  and  C_18
REMARK    6  A    between atoms: C_21  and  C_25
REMARK    7  A    between atoms: C_25  and  N_26
REMARK                            x       y       z     vdW  Elec       q    Type
REMARK                         _______ _______ _______ _____ _____    ______ ____
ROOT
ATOM      1  C   UNL     1      32.896 -23.571 -15.320  0.00  0.00    +0.122 C 
ATOM      2  C   UNL     1      32.132 -22.767 -14.249  0.00  0.00    +0.016 C 
ENDROOT
BRANCH   1   3
ATOM      3  C   UNL     1      34.363 -23.650 -15.065  0.00  0.00    -0.012 C 
ATOM      4  C   UNL     1      36.344 -24.981 -14.593  0.00  0.00    -0.000 C 
ATOM      5  C   UNL     1      34.964 -24.888 -14.835  0.00  0.00    -0.004 C 
ATOM      6  C   UNL     1      37.126 -23.802 -14.585  0.00  0.00    +0.003 C 
ATOM      7  C   UNL     1      35.132 -22.490 -15.057  0.00  0.00    -0.004 C 
ATOM      8  C   UNL     1      36.505 -22.563 -14.819  0.00  0.00    -0.000 C 
ATOM      9  C   UNL     1      36.966 -26.218 -14.360  0.00  0.00    +0.003 C 
ATOM     10  C   UNL     1      38.507 -23.894 -14.343  0.00  0.00    +0.037 C 
ATOM     11  C   UNL     1      39.107 -25.131 -14.113  0.00  0.00    +0.139 C 
ATOM     12  C   UNL     1      38.338 -26.291 -14.122  0.00  0.00    +0.037 C 
BRANCH  11  13
ATOM     13  O   UNL     1      40.447 -25.205 -13.881  0.00  0.00    -0.471 OA
ATOM     14  C   UNL     1      40.981 -26.487 -13.560  0.00  0.00    +0.252 C 
ENDBRANCH  11  13
ENDBRANCH   1   3
BRANCH   1  16
ATOM     15  O   UNL     1      31.571 -22.343 -16.968  0.00  0.00    -0.249 OA
ATOM     16  C   UNL     1      32.567 -23.008 -16.710  0.00  0.00    +0.325 C 
BRANCH  16  17
ATOM     17  O   UNL     1      33.579 -23.349 -17.606  0.00  0.00    -0.424 OA
BRANCH  17  18
ATOM     18  C   UNL     1      33.953 -22.292 -18.438  0.00  0.00    +0.148 C 
ATOM     19  C   UNL     1      32.975 -21.529 -19.078  0.00  0.00    +0.038 C 
ATOM     20  C   UNL     1      35.303 -21.999 -18.630  0.00  0.00    +0.038 C 
ATOM     21  C   UNL     1      34.699 -20.181 -20.103  0.00  0.00    +0.020 C 
ATOM     22  C   UNL     1      33.348 -20.474 -19.910  0.00  0.00    +0.005 C 
ATOM     23  C   UNL     1      35.676 -20.943 -19.463  0.00  0.00    +0.005 C 
BRANCH  21  25
ATOM     24  S   UNL     1      34.867 -19.044 -22.649  0.00  0.00    -0.035 S 
ATOM     25  C   UNL     1      35.087 -19.081 -20.971  0.00  0.00    +0.078 C 
BRANCH  25  26
ATOM     26  N   UNL     1      35.674 -17.987 -20.350  0.00  0.00    -0.352 N 
ATOM     27  H   UNL     1      35.155 -17.446 -19.711  0.00  0.00    +0.143 HD
ATOM     28  H   UNL     1      36.610 -17.751 -20.547  0.00  0.00    +0.143 HD
ENDBRANCH  25  26
ENDBRANCH  21  25
ENDBRANCH  17  18
ENDBRANCH  16  17
ENDBRANCH   1  16
TORSDOF 7
ENDMDL
