MODEL 1
REMARK VINA RESULT:     -11.5      0.000      0.000
REMARK  Name = 3351
REMARK  5 active torsions:
REMARK  status: ('A' for Active; 'I' for Inactive)
REMARK    1  A    between atoms: N_2  and  C_10
REMARK    2  A    between atoms: C_8  and  C_20
REMARK    3  A    between atoms: C_10  and  C_13
REMARK    4  A    between atoms: C_20  and  O_21
REMARK    5  A    between atoms: O_21  and  C_23
REMARK                            x       y       z     vdW  Elec       q    Type
REMARK                         _______ _______ _______ _____ _____    ______ ____
ROOT
ATOM      1  O   UNL     1      35.515 -17.036 -23.255  0.00  0.00    -0.271 OA
ATOM      2  N   UNL     1      33.085 -13.049 -21.492  0.00  0.00    +0.392 N 
ATOM      3  N   UNL     1      34.796 -15.315 -21.871  0.00  0.00    -0.281 N 
ATOM      4  C   UNL     1      33.147 -13.726 -22.795  0.00  0.00    -0.055 C 
ATOM      5  C   UNL     1      33.297 -14.011 -20.401  0.00  0.00    -0.055 C 
ATOM      6  C   UNL     1      34.500 -14.413 -22.984  0.00  0.00    +0.071 C 
ATOM      7  C   UNL     1      34.651 -14.711 -20.544  0.00  0.00    +0.071 C 
ATOM      8  C   UNL     1      35.295 -16.591 -22.126  0.00  0.00    +0.270 C 
ATOM      9  H   UNL     1      33.828 -12.351 -21.455  0.00  0.00    -0.079 HD
ENDROOT
BRANCH   2  10
ATOM     10  C   UNL     1      31.803 -12.364 -21.329  0.00  0.00    -0.050 C 
BRANCH  10  13
ATOM     11  O   UNL     1      32.832  -7.648 -22.366  0.00  0.00    -0.435 OA
ATOM     12  O   UNL     1      32.507  -6.954 -20.081  0.00  0.00    -0.435 OA
ATOM     13  C   UNL     1      31.984 -10.917 -20.957  0.00  0.00    -0.040 C 
ATOM     14  C   UNL     1      32.336 -10.000 -21.943  0.00  0.00    +0.034 C 
ATOM     15  C   UNL     1      31.793 -10.525 -19.627  0.00  0.00    -0.003 C 
ATOM     16  C   UNL     1      32.491  -8.685 -21.554  0.00  0.00    +0.176 C 
ATOM     17  C   UNL     1      32.305  -8.289 -20.250  0.00  0.00    +0.176 C 
ATOM     18  C   UNL     1      31.956  -9.186 -19.261  0.00  0.00    +0.040 C 
ATOM     19  C   UNL     1      32.840  -6.554 -21.426  0.00  0.00    +0.429 C 
ENDBRANCH  10  13
ENDBRANCH   2  10
BRANCH   8  20
ATOM     20  C   UNL     1      35.570 -17.461 -20.925  0.00  0.00    +0.290 C 
BRANCH  20  21
ATOM     21  O   UNL     1      35.575 -18.790 -21.383  0.00  0.00    -0.466 OA
BRANCH  21  23
ATOM     22 CL   UNL     1      33.460 -22.905 -17.767  0.00  0.00    -0.082 Cl
ATOM     23  C   UNL     1      35.080 -19.754 -20.533  0.00  0.00    +0.139 C 
ATOM     24  C   UNL     1      35.961 -20.556 -19.824  0.00  0.00    +0.038 C 
ATOM     25  C   UNL     1      33.707 -19.907 -20.403  0.00  0.00    +0.038 C 
ATOM     26  C   UNL     1      35.459 -21.534 -18.966  0.00  0.00    +0.015 C 
ATOM     27  C   UNL     1      33.205 -20.885 -19.545  0.00  0.00    +0.015 C 
ATOM     28  C   UNL     1      34.080 -21.698 -18.826  0.00  0.00    +0.058 C 
ENDBRANCH  21  23
ENDBRANCH  20  21
ENDBRANCH   8  20
TORSDOF 5
ENDMDL
MODEL 2
REMARK VINA RESULT:     -11.1      5.409      8.018
REMARK  Name = 3351
REMARK  5 active torsions:
REMARK  status: ('A' for Active; 'I' for Inactive)
REMARK    1  A    between atoms: N_2  and  C_10
REMARK    2  A    between atoms: C_8  and  C_20
REMARK    3  A    between atoms: C_10  and  C_13
REMARK    4  A    between atoms: C_20  and  O_21
REMARK    5  A    between atoms: O_21  and  C_23
REMARK                            x       y       z     vdW  Elec       q    Type
REMARK                         _______ _______ _______ _____ _____    ______ ____
ROOT
ATOM      1  O   UNL     1      32.028 -22.334 -17.527  0.00  0.00    -0.271 OA
ATOM      2  N   UNL     1      35.165 -20.039 -20.658  0.00  0.00    +0.392 N 
ATOM      3  N   UNL     1      33.870 -21.853 -18.859  0.00  0.00    -0.281 N 
ATOM      4  C   UNL     1      33.795 -19.778 -20.195  0.00  0.00    -0.055 C 
ATOM      5  C   UNL     1      35.937 -20.731 -19.616  0.00  0.00    -0.055 C 
ATOM      6  C   UNL     1      33.090 -21.084 -19.828  0.00  0.00    +0.071 C 
ATOM      7  C   UNL     1      35.273 -22.054 -19.230  0.00  0.00    +0.071 C 
ATOM      8  C   UNL     1      33.237 -22.426 -17.757  0.00  0.00    +0.270 C 
ATOM      9  H   UNL     1      35.120 -20.642 -21.480  0.00  0.00    -0.079 HD
ENDROOT
BRANCH   2  10
ATOM     10  C   UNL     1      35.824 -18.791 -21.041  0.00  0.00    -0.050 C 
BRANCH  10  13
ATOM     11  O   UNL     1      34.498 -14.962 -23.862  0.00  0.00    -0.435 OA
ATOM     12  O   UNL     1      33.532 -16.390 -25.547  0.00  0.00    -0.435 OA
ATOM     13  C   UNL     1      35.199 -18.180 -22.267  0.00  0.00    -0.040 C 
ATOM     14  C   UNL     1      35.190 -16.795 -22.407  0.00  0.00    +0.034 C 
ATOM     15  C   UNL     1      34.641 -19.018 -23.239  0.00  0.00    -0.003 C 
ATOM     16  C   UNL     1      34.606 -16.281 -23.547  0.00  0.00    +0.176 C 
ATOM     17  C   UNL     1      34.054 -17.097 -24.508  0.00  0.00    +0.176 C 
ATOM     18  C   UNL     1      34.056 -18.471 -24.384  0.00  0.00    +0.040 C 
ATOM     19  C   UNL     1      33.817 -15.038 -25.131  0.00  0.00    +0.429 C 
ENDBRANCH  10  13
ENDBRANCH   2  10
BRANCH   8  20
ATOM     20  C   UNL     1      34.112 -23.198 -16.802  0.00  0.00    +0.290 C 
BRANCH  20  21
ATOM     21  O   UNL     1      33.511 -23.099 -15.535  0.00  0.00    -0.466 OA
BRANCH  21  23
ATOM     22 CL   UNL     1      36.953 -23.913 -10.847  0.00  0.00    -0.082 Cl
ATOM     23  C   UNL     1      34.318 -23.288 -14.435  0.00  0.00    +0.139 C 
ATOM     24  C   UNL     1      35.643 -22.884 -14.485  0.00  0.00    +0.038 C 
ATOM     25  C   UNL     1      33.791 -23.881 -13.297  0.00  0.00    +0.038 C 
ATOM     26  C   UNL     1      36.461 -23.078 -13.372  0.00  0.00    +0.015 C 
ATOM     27  C   UNL     1      34.609 -24.075 -12.184  0.00  0.00    +0.015 C 
ATOM     28  C   UNL     1      35.943 -23.673 -12.220  0.00  0.00    +0.058 C 
ENDBRANCH  21  23
ENDBRANCH  20  21
ENDBRANCH   8  20
TORSDOF 5
ENDMDL
MODEL 3
REMARK VINA RESULT:     -11.1      3.563      6.007
REMARK  Name = 3351
REMARK  5 active torsions:
REMARK  status: ('A' for Active; 'I' for Inactive)
REMARK    1  A    between atoms: N_2  and  C_10
REMARK    2  A    between atoms: C_8  and  C_20
REMARK    3  A    between atoms: C_10  and  C_13
REMARK    4  A    between atoms: C_20  and  O_21
REMARK    5  A    between atoms: O_21  and  C_23
REMARK                            x       y       z     vdW  Elec       q    Type
REMARK                         _______ _______ _______ _____ _____    ______ ____
ROOT
ATOM      1  O   UNL     1      36.835 -21.441 -18.676  0.00  0.00    -0.271 OA
ATOM      2  N   UNL     1      35.152 -18.290 -22.162  0.00  0.00    +0.392 N 
ATOM      3  N   UNL     1      35.437 -20.108 -19.966  0.00  0.00    -0.281 N 
ATOM      4  C   UNL     1      36.484 -18.746 -21.740  0.00  0.00    -0.055 C 
ATOM      5  C   UNL     1      34.151 -19.342 -21.932  0.00  0.00    -0.055 C 
ATOM      6  C   UNL     1      36.482 -19.127 -20.260  0.00  0.00    +0.071 C 
ATOM      7  C   UNL     1      34.105 -19.742 -20.456  0.00  0.00    +0.071 C 
ATOM      8  C   UNL     1      35.727 -21.215 -19.171  0.00  0.00    +0.270 C 
ATOM      9  H   UNL     1      34.897 -17.475 -21.602  0.00  0.00    -0.079 HD
ENDROOT
BRANCH   2  10
ATOM     10  C   UNL     1      35.166 -17.893 -23.569  0.00  0.00    -0.050 C 
BRANCH  10  13
ATOM     11  O   UNL     1      34.515 -13.202 -22.173  0.00  0.00    -0.435 OA
ATOM     12  O   UNL     1      33.273 -12.660 -24.167  0.00  0.00    -0.435 OA
ATOM     13  C   UNL     1      34.642 -16.495 -23.763  0.00  0.00    -0.040 C 
ATOM     14  C   UNL     1      34.885 -15.536 -22.785  0.00  0.00    +0.034 C 
ATOM     15  C   UNL     1      33.922 -16.191 -24.924  0.00  0.00    -0.003 C 
ATOM     16  C   UNL     1      34.384 -14.269 -23.007  0.00  0.00    +0.176 C 
ATOM     17  C   UNL     1      33.675 -13.960 -24.145  0.00  0.00    +0.176 C 
ATOM     18  C   UNL     1      33.426 -14.900 -25.124  0.00  0.00    +0.040 C 
ATOM     19  C   UNL     1      33.809 -12.186 -22.914  0.00  0.00    +0.429 C 
ENDBRANCH  10  13
ENDBRANCH   2  10
BRANCH   8  20
ATOM     20  C   UNL     1      34.597 -22.180 -18.920  0.00  0.00    +0.290 C 
BRANCH  20  21
ATOM     21  O   UNL     1      34.893 -22.842 -17.715  0.00  0.00    -0.466 OA
BRANCH  21  23
ATOM     22 CL   UNL     1      30.567 -23.335 -13.774  0.00  0.00    -0.082 Cl
ATOM     23  C   UNL     1      33.878 -22.960 -16.792  0.00  0.00    +0.139 C 
ATOM     24  C   UNL     1      32.569 -22.722 -17.183  0.00  0.00    +0.038 C 
ATOM     25  C   UNL     1      34.183 -23.312 -15.485  0.00  0.00    +0.038 C 
ATOM     26  C   UNL     1      31.542 -22.838 -16.247  0.00  0.00    +0.015 C 
ATOM     27  C   UNL     1      33.155 -23.429 -14.549  0.00  0.00    +0.015 C 
ATOM     28  C   UNL     1      31.835 -23.192 -14.929  0.00  0.00    +0.058 C 
ENDBRANCH  21  23
ENDBRANCH  20  21
ENDBRANCH   8  20
TORSDOF 5
ENDMDL
MODEL 4
REMARK VINA RESULT:     -10.9      3.982     10.237
REMARK  Name = 3351
REMARK  5 active torsions:
REMARK  status: ('A' for Active; 'I' for Inactive)
REMARK    1  A    between atoms: N_2  and  C_10
REMARK    2  A    between atoms: C_8  and  C_20
REMARK    3  A    between atoms: C_10  and  C_13
REMARK    4  A    between atoms: C_20  and  O_21
REMARK    5  A    between atoms: O_21  and  C_23
REMARK                            x       y       z     vdW  Elec       q    Type
REMARK                         _______ _______ _______ _____ _____    ______ ____
ROOT
ATOM      1  O   UNL     1      33.431 -12.977 -25.296  0.00  0.00    -0.271 OA
ATOM      2  N   UNL     1      34.945 -16.934 -22.658  0.00  0.00    +0.392 N 
ATOM      3  N   UNL     1      33.921 -14.405 -23.530  0.00  0.00    -0.281 N 
ATOM      4  C   UNL     1      34.783 -16.650 -24.091  0.00  0.00    -0.055 C 
ATOM      5  C   UNL     1      35.276 -15.704 -21.923  0.00  0.00    -0.055 C 
ATOM      6  C   UNL     1      33.681 -15.616 -24.316  0.00  0.00    +0.071 C 
ATOM      7  C   UNL     1      34.186 -14.646 -22.110  0.00  0.00    +0.071 C 
ATOM      8  C   UNL     1      33.766 -13.152 -24.121  0.00  0.00    +0.270 C 
ATOM      9  H   UNL     1      34.062 -17.297 -22.299  0.00  0.00    -0.079 HD
ENDROOT
BRANCH   2  10
ATOM     10  C   UNL     1      35.977 -17.949 -22.449  0.00  0.00    -0.050 C 
BRANCH  10  13
ATOM     11  O   UNL     1      32.673 -20.621 -19.933  0.00  0.00    -0.435 OA
ATOM     12  O   UNL     1      34.368 -21.622 -18.543  0.00  0.00    -0.435 OA
ATOM     13  C   UNL     1      35.580 -18.942 -21.388  0.00  0.00    -0.040 C 
ATOM     14  C   UNL     1      34.237 -19.266 -21.228  0.00  0.00    +0.034 C 
ATOM     15  C   UNL     1      36.573 -19.517 -20.586  0.00  0.00    -0.003 C 
ATOM     16  C   UNL     1      33.922 -20.180 -20.243  0.00  0.00    +0.176 C 
ATOM     17  C   UNL     1      34.890 -20.751 -19.449  0.00  0.00    +0.176 C 
ATOM     18  C   UNL     1      36.226 -20.440 -19.596  0.00  0.00    +0.040 C 
ATOM     19  C   UNL     1      32.962 -21.534 -18.856  0.00  0.00    +0.429 C 
ENDBRANCH  10  13
ENDBRANCH   2  10
BRANCH   8  20
ATOM     20  C   UNL     1      34.037 -11.956 -23.245  0.00  0.00    +0.290 C 
BRANCH  20  21
ATOM     21  O   UNL     1      32.787 -11.386 -22.943  0.00  0.00    -0.466 OA
BRANCH  21  23
ATOM     22 CL   UNL     1      32.746  -5.871 -20.927  0.00  0.00    -0.082 Cl
ATOM     23  C   UNL     1      32.779 -10.094 -22.469  0.00  0.00    +0.139 C 
ATOM     24  C   UNL     1      31.973  -9.770 -21.388  0.00  0.00    +0.038 C 
ATOM     25  C   UNL     1      33.576  -9.138 -23.082  0.00  0.00    +0.038 C 
ATOM     26  C   UNL     1      31.962  -8.459 -20.910  0.00  0.00    +0.015 C 
ATOM     27  C   UNL     1      33.565  -7.828 -22.603  0.00  0.00    +0.015 C 
ATOM     28  C   UNL     1      32.759  -7.488 -21.517  0.00  0.00    +0.058 C 
ENDBRANCH  21  23
ENDBRANCH  20  21
ENDBRANCH   8  20
TORSDOF 5
ENDMDL
MODEL 5
REMARK VINA RESULT:     -10.8      5.183      7.755
REMARK  Name = 3351
REMARK  5 active torsions:
REMARK  status: ('A' for Active; 'I' for Inactive)
REMARK    1  A    between atoms: N_2  and  C_10
REMARK    2  A    between atoms: C_8  and  C_20
REMARK    3  A    between atoms: C_10  and  C_13
REMARK    4  A    between atoms: C_20  and  O_21
REMARK    5  A    between atoms: O_21  and  C_23
REMARK                            x       y       z     vdW  Elec       q    Type
REMARK                         _______ _______ _______ _____ _____    ______ ____
ROOT
ATOM      1  O   UNL     1      31.796 -22.097 -17.622  0.00  0.00    -0.271 OA
ATOM      2  N   UNL     1      35.409 -20.149 -20.461  0.00  0.00    +0.392 N 
ATOM      3  N   UNL     1      33.726 -21.855 -18.892  0.00  0.00    -0.281 N 
ATOM      4  C   UNL     1      34.113 -19.665 -19.964  0.00  0.00    -0.055 C 
ATOM      5  C   UNL     1      35.997 -21.107 -19.514  0.00  0.00    -0.055 C 
ATOM      6  C   UNL     1      33.144 -20.829 -19.757  0.00  0.00    +0.071 C 
ATOM      7  C   UNL     1      35.064 -22.299 -19.291  0.00  0.00    +0.071 C 
ATOM      8  C   UNL     1      32.963 -22.412 -17.866  0.00  0.00    +0.270 C 
ATOM      9  H   UNL     1      35.257 -20.626 -21.350  0.00  0.00    -0.079 HD
ENDROOT
BRANCH   2  10
ATOM     10  C   UNL     1      36.321 -19.029 -20.691  0.00  0.00    -0.050 C 
BRANCH  10  13
ATOM     11  O   UNL     1      34.297 -17.380 -24.881  0.00  0.00    -0.435 OA
ATOM     12  O   UNL     1      33.988 -15.160 -23.994  0.00  0.00    -0.435 OA
ATOM     13  C   UNL     1      35.696 -17.964 -21.551  0.00  0.00    -0.040 C 
ATOM     14  C   UNL     1      35.306 -18.279 -22.849  0.00  0.00    +0.034 C 
ATOM     15  C   UNL     1      35.522 -16.678 -21.026  0.00  0.00    -0.003 C 
ATOM     16  C   UNL     1      34.738 -17.269 -23.599  0.00  0.00    +0.176 C 
ATOM     17  C   UNL     1      34.562 -16.002 -23.092  0.00  0.00    +0.176 C 
ATOM     18  C   UNL     1      34.944 -15.674 -21.808  0.00  0.00    +0.040 C 
ATOM     19  C   UNL     1      33.822 -16.041 -25.125  0.00  0.00    +0.429 C 
ENDBRANCH  10  13
ENDBRANCH   2  10
BRANCH   8  20
ATOM     20  C   UNL     1      33.638 -23.459 -17.017  0.00  0.00    +0.290 C 
BRANCH  20  21
ATOM     21  O   UNL     1      34.198 -22.786 -15.916  0.00  0.00    -0.466 OA
BRANCH  21  23
ATOM     22 CL   UNL     1      39.058 -25.065 -13.537  0.00  0.00    -0.082 Cl
ATOM     23  C   UNL     1      35.337 -23.322 -15.360  0.00  0.00    +0.139 C 
ATOM     24  C   UNL     1      35.252 -24.500 -14.635  0.00  0.00    +0.038 C 
ATOM     25  C   UNL     1      36.550 -22.672 -15.533  0.00  0.00    +0.038 C 
ATOM     26  C   UNL     1      36.407 -25.042 -14.069  0.00  0.00    +0.015 C 
ATOM     27  C   UNL     1      37.705 -23.213 -14.967  0.00  0.00    +0.015 C 
ATOM     28  C   UNL     1      37.634 -24.398 -14.236  0.00  0.00    +0.058 C 
ENDBRANCH  21  23
ENDBRANCH  20  21
ENDBRANCH   8  20
TORSDOF 5
ENDMDL
MODEL 6
REMARK VINA RESULT:     -10.8      7.673     11.533
REMARK  Name = 3351
REMARK  5 active torsions:
REMARK  status: ('A' for Active; 'I' for Inactive)
REMARK    1  A    between atoms: N_2  and  C_10
REMARK    2  A    between atoms: C_8  and  C_20
REMARK    3  A    between atoms: C_10  and  C_13
REMARK    4  A    between atoms: C_20  and  O_21
REMARK    5  A    between atoms: O_21  and  C_23
REMARK                            x       y       z     vdW  Elec       q    Type
REMARK                         _______ _______ _______ _____ _____    ______ ____
ROOT
ATOM      1  O   UNL     1      37.315 -21.319 -16.528  0.00  0.00    -0.271 OA
ATOM      2  N   UNL     1      33.428 -23.709 -14.504  0.00  0.00    +0.392 N 
ATOM      3  N   UNL     1      35.457 -22.686 -16.248  0.00  0.00    -0.281 N 
ATOM      4  C   UNL     1      34.506 -22.861 -13.976  0.00  0.00    -0.055 C 
ATOM      5  C   UNL     1      33.098 -23.324 -15.883  0.00  0.00    -0.055 C 
ATOM      6  C   UNL     1      35.758 -22.973 -14.846  0.00  0.00    +0.071 C 
ATOM      7  C   UNL     1      34.324 -23.438 -16.793  0.00  0.00    +0.071 C 
ATOM      8  C   UNL     1      36.299 -21.852 -16.982  0.00  0.00    +0.270 C 
ATOM      9  H   UNL     1      33.752 -24.677 -14.509  0.00  0.00    -0.079 HD
ENDROOT
BRANCH   2  10
ATOM     10  C   UNL     1      32.244 -23.626 -13.650  0.00  0.00    -0.050 C 
BRANCH  10  13
ATOM     11  O   UNL     1      28.562 -21.977 -16.497  0.00  0.00    -0.435 OA
ATOM     12  O   UNL     1      27.519 -24.147 -16.604  0.00  0.00    -0.435 OA
ATOM     13  C   UNL     1      30.972 -23.803 -14.436  0.00  0.00    -0.040 C 
ATOM     14  C   UNL     1      30.419 -22.707 -15.090  0.00  0.00    +0.034 C 
ATOM     15  C   UNL     1      30.374 -25.067 -14.491  0.00  0.00    -0.003 C 
ATOM     16  C   UNL     1      29.252 -22.918 -15.797  0.00  0.00    +0.176 C 
ATOM     17  C   UNL     1      28.657 -24.157 -15.857  0.00  0.00    +0.176 C 
ATOM     18  C   UNL     1      29.193 -25.253 -15.214  0.00  0.00    +0.040 C 
ATOM     19  C   UNL     1      27.465 -22.762 -17.006  0.00  0.00    +0.429 C 
ENDBRANCH  10  13
ENDBRANCH   2  10
BRANCH   8  20
ATOM     20  C   UNL     1      35.916 -21.603 -18.419  0.00  0.00    +0.290 C 
BRANCH  20  21
ATOM     21  O   UNL     1      36.642 -20.474 -18.840  0.00  0.00    -0.466 OA
BRANCH  21  23
ATOM     22 CL   UNL     1      34.781 -17.717 -23.678  0.00  0.00    -0.082 Cl
ATOM     23  C   UNL     1      36.207 -19.829 -19.975  0.00  0.00    +0.139 C 
ATOM     24  C   UNL     1      37.054 -18.943 -20.623  0.00  0.00    +0.038 C 
ATOM     25  C   UNL     1      34.927 -20.076 -20.451  0.00  0.00    +0.038 C 
ATOM     26  C   UNL     1      36.612 -18.288 -21.772  0.00  0.00    +0.015 C 
ATOM     27  C   UNL     1      34.485 -19.420 -21.600  0.00  0.00    +0.015 C 
ATOM     28  C   UNL     1      35.326 -18.526 -22.261  0.00  0.00    +0.058 C 
ENDBRANCH  21  23
ENDBRANCH  20  21
ENDBRANCH   8  20
TORSDOF 5
ENDMDL
MODEL 7
REMARK VINA RESULT:     -10.6      1.456      2.063
REMARK  Name = 3351
REMARK  5 active torsions:
REMARK  status: ('A' for Active; 'I' for Inactive)
REMARK    1  A    between atoms: N_2  and  C_10
REMARK    2  A    between atoms: C_8  and  C_20
REMARK    3  A    between atoms: C_10  and  C_13
REMARK    4  A    between atoms: C_20  and  O_21
REMARK    5  A    between atoms: O_21  and  C_23
REMARK                            x       y       z     vdW  Elec       q    Type
REMARK                         _______ _______ _______ _____ _____    ______ ____
ROOT
ATOM      1  O   UNL     1      34.176 -16.873 -25.220  0.00  0.00    -0.271 OA
ATOM      2  N   UNL     1      33.234 -12.782 -22.520  0.00  0.00    +0.392 N 
ATOM      3  N   UNL     1      34.369 -15.140 -23.684  0.00  0.00    -0.281 N 
ATOM      4  C   UNL     1      32.585 -13.433 -23.667  0.00  0.00    -0.055 C 
ATOM      5  C   UNL     1      33.906 -13.779 -21.675  0.00  0.00    -0.055 C 
ATOM      6  C   UNL     1      33.609 -14.198 -24.505  0.00  0.00    +0.071 C 
ATOM      7  C   UNL     1      34.953 -14.558 -22.474  0.00  0.00    +0.071 C 
ATOM      8  C   UNL     1      34.587 -16.440 -24.140  0.00  0.00    +0.270 C 
ATOM      9  H   UNL     1      33.937 -12.132 -22.873  0.00  0.00    -0.079 HD
ENDROOT
BRANCH   2  10
ATOM     10  C   UNL     1      32.257 -12.022 -21.741  0.00  0.00    -0.050 C 
BRANCH  10  13
ATOM     11  O   UNL     1      31.552  -7.333 -20.365  0.00  0.00    -0.435 OA
ATOM     12  O   UNL     1      32.921  -6.481 -22.156  0.00  0.00    -0.435 OA
ATOM     13  C   UNL     1      32.458 -10.537 -21.883  0.00  0.00    -0.040 C 
ATOM     14  C   UNL     1      31.848  -9.679 -20.974  0.00  0.00    +0.034 C 
ATOM     15  C   UNL     1      33.255 -10.053 -22.927  0.00  0.00    -0.003 C 
ATOM     16  C   UNL     1      32.061  -8.325 -21.145  0.00  0.00    +0.176 C 
ATOM     17  C   UNL     1      32.842  -7.839 -22.167  0.00  0.00    +0.176 C 
ATOM     18  C   UNL     1      33.454  -8.678 -23.077  0.00  0.00    +0.040 C 
ATOM     19  C   UNL     1      32.101  -6.167 -21.011  0.00  0.00    +0.429 C 
ENDBRANCH  10  13
ENDBRANCH   2  10
BRANCH   8  20
ATOM     20  C   UNL     1      35.374 -17.350 -23.232  0.00  0.00    +0.290 C 
BRANCH  20  21
ATOM     21  O   UNL     1      34.440 -18.006 -22.411  0.00  0.00    -0.466 OA
BRANCH  21  23
ATOM     22 CL   UNL     1      36.542 -21.604 -18.274  0.00  0.00    -0.082 Cl
ATOM     23  C   UNL     1      34.933 -18.848 -21.439  0.00  0.00    +0.139 C 
ATOM     24  C   UNL     1      36.269 -18.765 -21.079  0.00  0.00    +0.038 C 
ATOM     25  C   UNL     1      34.084 -19.766 -20.839  0.00  0.00    +0.038 C 
ATOM     26  C   UNL     1      36.769 -19.620 -20.097  0.00  0.00    +0.015 C 
ATOM     27  C   UNL     1      34.584 -20.622 -19.856  0.00  0.00    +0.015 C 
ATOM     28  C   UNL     1      35.926 -20.549 -19.485  0.00  0.00    +0.058 C 
ENDBRANCH  21  23
ENDBRANCH  20  21
ENDBRANCH   8  20
TORSDOF 5
ENDMDL
MODEL 8
REMARK VINA RESULT:     -10.6      4.032     10.298
REMARK  Name = 3351
REMARK  5 active torsions:
REMARK  status: ('A' for Active; 'I' for Inactive)
REMARK    1  A    between atoms: N_2  and  C_10
REMARK    2  A    between atoms: C_8  and  C_20
REMARK    3  A    between atoms: C_10  and  C_13
REMARK    4  A    between atoms: C_20  and  O_21
REMARK    5  A    between atoms: O_21  and  C_23
REMARK                            x       y       z     vdW  Elec       q    Type
REMARK                         _______ _______ _______ _____ _____    ______ ____
ROOT
ATOM      1  O   UNL     1      34.539 -16.490 -25.389  0.00  0.00    -0.271 OA
ATOM      2  N   UNL     1      35.154 -19.049 -21.148  0.00  0.00    +0.392 N 
ATOM      3  N   UNL     1      34.581 -17.072 -23.141  0.00  0.00    -0.281 N 
ATOM      4  C   UNL     1      35.248 -19.382 -22.576  0.00  0.00    -0.055 C 
ATOM      5  C   UNL     1      35.512 -17.641 -20.923  0.00  0.00    -0.055 C 
ATOM      6  C   UNL     1      34.323 -18.488 -23.402  0.00  0.00    +0.071 C 
ATOM      7  C   UNL     1      34.596 -16.709 -21.721  0.00  0.00    +0.071 C 
ATOM      8  C   UNL     1      34.668 -16.175 -24.204  0.00  0.00    +0.270 C 
ATOM      9  H   UNL     1      34.190 -19.189 -20.846  0.00  0.00    -0.079 HD
ENDROOT
BRANCH   2  10
ATOM     10  C   UNL     1      36.014 -19.928 -20.358  0.00  0.00    -0.050 C 
BRANCH  10  13
ATOM     11  O   UNL     1      35.554 -22.954 -16.483  0.00  0.00    -0.435 OA
ATOM     12  O   UNL     1      33.176 -23.187 -16.801  0.00  0.00    -0.435 OA
ATOM     13  C   UNL     1      35.219 -20.796 -19.420  0.00  0.00    -0.040 C 
ATOM     14  C   UNL     1      35.872 -21.452 -18.381  0.00  0.00    +0.034 C 
ATOM     15  C   UNL     1      33.839 -20.925 -19.614  0.00  0.00    -0.003 C 
ATOM     16  C   UNL     1      35.102 -22.237 -17.547  0.00  0.00    +0.176 C 
ATOM     17  C   UNL     1      33.744 -22.370 -17.729  0.00  0.00    +0.176 C 
ATOM     18  C   UNL     1      33.082 -21.727 -18.754  0.00  0.00    +0.040 C 
ATOM     19  C   UNL     1      34.329 -23.553 -16.014  0.00  0.00    +0.429 C 
ENDBRANCH  10  13
ENDBRANCH   2  10
BRANCH   8  20
ATOM     20  C   UNL     1      34.941 -14.735 -23.850  0.00  0.00    +0.290 C 
BRANCH  20  21
ATOM     21  O   UNL     1      33.857 -13.986 -24.341  0.00  0.00    -0.466 OA
BRANCH  21  23
ATOM     22 CL   UNL     1      32.238  -9.255 -21.262  0.00  0.00    -0.082 Cl
ATOM     23  C   UNL     1      33.476 -12.877 -23.621  0.00  0.00    +0.139 C 
ATOM     24  C   UNL     1      33.812 -11.614 -24.085  0.00  0.00    +0.038 C 
ATOM     25  C   UNL     1      32.764 -13.041 -22.441  0.00  0.00    +0.038 C 
ATOM     26  C   UNL     1      33.428 -10.490 -23.353  0.00  0.00    +0.015 C 
ATOM     27  C   UNL     1      32.380 -11.917 -21.710  0.00  0.00    +0.015 C 
ATOM     28  C   UNL     1      32.711 -10.642 -22.165  0.00  0.00    +0.058 C 
ENDBRANCH  21  23
ENDBRANCH  20  21
ENDBRANCH   8  20
TORSDOF 5
ENDMDL
MODEL 9
REMARK VINA RESULT:     -10.5      3.914     10.273
REMARK  Name = 3351
REMARK  5 active torsions:
REMARK  status: ('A' for Active; 'I' for Inactive)
REMARK    1  A    between atoms: N_2  and  C_10
REMARK    2  A    between atoms: C_8  and  C_20
REMARK    3  A    between atoms: C_10  and  C_13
REMARK    4  A    between atoms: C_20  and  O_21
REMARK    5  A    between atoms: O_21  and  C_23
REMARK                            x       y       z     vdW  Elec       q    Type
REMARK                         _______ _______ _______ _____ _____    ______ ____
ROOT
ATOM      1  O   UNL     1      32.639 -13.275 -19.700  0.00  0.00    -0.271 OA
ATOM      2  N   UNL     1      35.622 -16.504 -22.064  0.00  0.00    +0.392 N 
ATOM      3  N   UNL     1      34.095 -14.224 -21.242  0.00  0.00    -0.281 N 
ATOM      4  C   UNL     1      34.911 -16.508 -20.778  0.00  0.00    -0.055 C 
ATOM      5  C   UNL     1      34.890 -15.703 -23.055  0.00  0.00    -0.055 C 
ATOM      6  C   UNL     1      34.740 -15.084 -20.250  0.00  0.00    +0.071 C 
ATOM      7  C   UNL     1      34.711 -14.262 -22.571  0.00  0.00    +0.071 C 
ATOM      8  C   UNL     1      33.065 -13.369 -20.855  0.00  0.00    +0.270 C 
ATOM      9  H   UNL     1      36.541 -16.082 -21.924  0.00  0.00    -0.079 HD
ENDROOT
BRANCH   2  10
ATOM     10  C   UNL     1      35.815 -17.870 -22.549  0.00  0.00    -0.050 C 
BRANCH  10  13
ATOM     11  O   UNL     1      33.213 -21.034 -19.793  0.00  0.00    -0.435 OA
ATOM     12  O   UNL     1      35.135 -21.647 -18.476  0.00  0.00    -0.435 OA
ATOM     13  C   UNL     1      35.669 -18.883 -21.446  0.00  0.00    -0.040 C 
ATOM     14  C   UNL     1      34.422 -19.451 -21.204  0.00  0.00    +0.034 C 
ATOM     15  C   UNL     1      36.792 -19.232 -20.686  0.00  0.00    -0.003 C 
ATOM     16  C   UNL     1      34.337 -20.374 -20.182  0.00  0.00    +0.176 C 
ATOM     17  C   UNL     1      35.435 -20.724 -19.430  0.00  0.00    +0.176 C 
ATOM     18  C   UNL     1      36.678 -20.170 -19.657  0.00  0.00    +0.040 C 
ATOM     19  C   UNL     1      33.725 -21.839 -18.713  0.00  0.00    +0.429 C 
ENDBRANCH  10  13
ENDBRANCH   2  10
BRANCH   8  20
ATOM     20  C   UNL     1      32.450 -12.519 -21.938  0.00  0.00    +0.290 C 
BRANCH  20  21
ATOM     21  O   UNL     1      31.557 -11.639 -21.302  0.00  0.00    -0.466 OA
BRANCH  21  23
ATOM     22 CL   UNL     1      32.942  -5.933 -21.293  0.00  0.00    -0.082 Cl
ATOM     23  C   UNL     1      31.880 -10.301 -21.301  0.00  0.00    +0.139 C 
ATOM     24  C   UNL     1      32.592  -9.771 -22.367  0.00  0.00    +0.038 C 
ATOM     25  C   UNL     1      31.489  -9.506 -20.233  0.00  0.00    +0.038 C 
ATOM     26  C   UNL     1      32.922  -8.416 -22.365  0.00  0.00    +0.015 C 
ATOM     27  C   UNL     1      31.819  -8.150 -20.232  0.00  0.00    +0.015 C 
ATOM     28  C   UNL     1      32.535  -7.605 -21.296  0.00  0.00    +0.058 C 
ENDBRANCH  21  23
ENDBRANCH  20  21
ENDBRANCH   8  20
TORSDOF 5
ENDMDL
