MODEL 1
REMARK VINA RESULT:     -11.7      0.000      0.000
REMARK  Name = 10401956
REMARK  3 active torsions:
REMARK  status: ('A' for Active; 'I' for Inactive)
REMARK    1  A    between atoms: N_1  and  C_13
REMARK    2  A    between atoms: C_8  and  N_20
REMARK    3  A    between atoms: C_21  and  C_23
REMARK                            x       y       z     vdW  Elec       q    Type
REMARK                         _______ _______ _______ _____ _____    ______ ____
ROOT
ATOM      1  N   UNL     1      32.808 -22.258 -17.918  0.00  0.00    -0.301 N 
ATOM      2  N   UNL     1      33.708 -24.198 -14.374  0.00  0.00    -0.248 NA
ATOM      3  N   UNL     1      34.371 -23.325 -16.521  0.00  0.00    -0.233 NA
ATOM      4  C   UNL     1      32.083 -23.117 -15.769  0.00  0.00    +0.117 C 
ATOM      5  C   UNL     1      32.447 -23.781 -14.586  0.00  0.00    +0.067 C 
ATOM      6  C   UNL     1      33.099 -22.920 -16.700  0.00  0.00    +0.115 C 
ATOM      7  C   UNL     1      30.762 -22.684 -15.979  0.00  0.00    +0.001 C 
ATOM      8  C   UNL     1      29.793 -22.913 -15.007  0.00  0.00    +0.047 C 
ATOM      9  C   UNL     1      31.457 -23.995 -13.630  0.00  0.00    +0.016 C 
ATOM     10  C   UNL     1      30.141 -23.568 -13.831  0.00  0.00    +0.016 C 
ATOM     11  C   UNL     1      34.601 -23.947 -15.354  0.00  0.00    +0.251 C 
ATOM     12  H   UNL     1      31.866 -22.278 -18.204  0.00  0.00    +0.153 HD
ENDROOT
BRANCH   1  13
ATOM     13  C   UNL     1      33.680 -21.586 -18.756  0.00  0.00    +0.049 C 
ATOM     14  C   UNL     1      35.068 -21.821 -18.699  0.00  0.00    +0.015 C 
ATOM     15  C   UNL     1      33.204 -20.645 -19.691  0.00  0.00    +0.015 C 
ATOM     16  C   UNL     1      35.946 -21.142 -19.543  0.00  0.00    +0.001 C 
ATOM     17  C   UNL     1      34.084 -19.966 -20.535  0.00  0.00    +0.001 C 
ATOM     18  C   UNL     1      35.454 -20.215 -20.461  0.00  0.00    +0.000 C 
ENDBRANCH   1  13
BRANCH   8  20
ATOM     19  O   UNL     1      27.970 -23.284 -17.364  0.00  0.00    -0.270 OA
ATOM     20  N   UNL     1      28.481 -22.486 -15.210  0.00  0.00    -0.281 N 
ATOM     21  C   UNL     1      27.671 -22.688 -16.337  0.00  0.00    +0.250 C 
ATOM     22  H   UNL     1      28.072 -21.980 -14.470  0.00  0.00    +0.155 HD
BRANCH  21  23
ATOM     23  C   UNL     1      26.323 -22.071 -16.164  0.00  0.00    +0.058 C 
ATOM     24  C   UNL     1      25.858 -21.194 -17.058  0.00  0.00    +0.005 C 
ENDBRANCH  21  23
ENDBRANCH   8  20
TORSDOF 3
ENDMDL
MODEL 2
REMARK VINA RESULT:     -10.7      1.208      1.774
REMARK  Name = 10401956
REMARK  3 active torsions:
REMARK  status: ('A' for Active; 'I' for Inactive)
REMARK    1  A    between atoms: N_1  and  C_13
REMARK    2  A    between atoms: C_8  and  N_20
REMARK    3  A    between atoms: C_21  and  C_23
REMARK                            x       y       z     vdW  Elec       q    Type
REMARK                         _______ _______ _______ _____ _____    ______ ____
ROOT
ATOM      1  N   UNL     1      33.854 -22.425 -17.744  0.00  0.00    -0.301 N 
ATOM      2  N   UNL     1      35.358 -23.834 -14.155  0.00  0.00    -0.248 NA
ATOM      3  N   UNL     1      35.691 -22.936 -16.366  0.00  0.00    -0.233 NA
ATOM      4  C   UNL     1      33.457 -23.328 -15.528  0.00  0.00    +0.117 C 
ATOM      5  C   UNL     1      34.025 -23.796 -14.332  0.00  0.00    +0.067 C 
ATOM      6  C   UNL     1      34.352 -22.910 -16.510  0.00  0.00    +0.115 C 
ATOM      7  C   UNL     1      32.063 -23.292 -15.702  0.00  0.00    +0.001 C 
ATOM      8  C   UNL     1      31.223 -23.724 -14.680  0.00  0.00    +0.047 C 
ATOM      9  C   UNL     1      33.161 -24.222 -13.326  0.00  0.00    +0.016 C 
ATOM     10  C   UNL     1      31.773 -24.189 -13.491  0.00  0.00    +0.016 C 
ATOM     11  C   UNL     1      36.118 -23.402 -15.181  0.00  0.00    +0.251 C 
ATOM     12  H   UNL     1      32.948 -22.723 -17.989  0.00  0.00    +0.153 HD
ENDROOT
BRANCH   1  13
ATOM     13  C   UNL     1      34.480 -21.587 -18.649  0.00  0.00    +0.049 C 
ATOM     14  C   UNL     1      33.731 -20.795 -19.541  0.00  0.00    +0.015 C 
ATOM     15  C   UNL     1      35.885 -21.501 -18.705  0.00  0.00    +0.015 C 
ATOM     16  C   UNL     1      34.362 -19.951 -20.454  0.00  0.00    +0.001 C 
ATOM     17  C   UNL     1      36.515 -20.655 -19.619  0.00  0.00    +0.001 C 
ATOM     18  C   UNL     1      35.753 -19.881 -20.493  0.00  0.00    +0.000 C 
ENDBRANCH   1  13
BRANCH   8  20
ATOM     19  O   UNL     1      29.543 -22.260 -16.693  0.00  0.00    -0.270 OA
ATOM     20  N   UNL     1      29.839 -23.690 -14.847  0.00  0.00    -0.281 N 
ATOM     21  C   UNL     1      29.102 -22.985 -15.810  0.00  0.00    +0.250 C 
ATOM     22  H   UNL     1      29.314 -24.228 -14.210  0.00  0.00    +0.155 HD
BRANCH  21  23
ATOM     23  C   UNL     1      27.635 -23.211 -15.653  0.00  0.00    +0.058 C 
ATOM     24  C   UNL     1      26.823 -22.199 -15.332  0.00  0.00    +0.005 C 
ENDBRANCH  21  23
ENDBRANCH   8  20
TORSDOF 3
ENDMDL
MODEL 3
REMARK VINA RESULT:     -10.6      6.971     10.383
REMARK  Name = 10401956
REMARK  3 active torsions:
REMARK  status: ('A' for Active; 'I' for Inactive)
REMARK    1  A    between atoms: N_1  and  C_13
REMARK    2  A    between atoms: C_8  and  N_20
REMARK    3  A    between atoms: C_21  and  C_23
REMARK                            x       y       z     vdW  Elec       q    Type
REMARK                         _______ _______ _______ _____ _____    ______ ____
ROOT
ATOM      1  N   UNL     1      35.184 -16.863 -21.516  0.00  0.00    -0.301 N 
ATOM      2  N   UNL     1      34.175 -16.005 -25.437  0.00  0.00    -0.248 NA
ATOM      3  N   UNL     1      35.135 -17.475 -23.787  0.00  0.00    -0.233 NA
ATOM      4  C   UNL     1      34.205 -15.342 -23.132  0.00  0.00    +0.117 C 
ATOM      5  C   UNL     1      33.887 -15.106 -24.480  0.00  0.00    +0.067 C 
ATOM      6  C   UNL     1      34.832 -16.553 -22.853  0.00  0.00    +0.115 C 
ATOM      7  C   UNL     1      33.899 -14.395 -22.140  0.00  0.00    +0.001 C 
ATOM      8  C   UNL     1      33.271 -13.203 -22.486  0.00  0.00    +0.047 C 
ATOM      9  C   UNL     1      33.259 -13.904 -24.798  0.00  0.00    +0.016 C 
ATOM     10  C   UNL     1      32.951 -12.957 -23.816  0.00  0.00    +0.016 C 
ATOM     11  C   UNL     1      34.784 -17.141 -25.038  0.00  0.00    +0.251 C 
ATOM     12  H   UNL     1      35.293 -16.093 -20.911  0.00  0.00    +0.153 HD
ENDROOT
BRANCH   1  13
ATOM     13  C   UNL     1      35.394 -18.108 -20.953  0.00  0.00    +0.049 C 
ATOM     14  C   UNL     1      34.317 -18.981 -20.701  0.00  0.00    +0.015 C 
ATOM     15  C   UNL     1      36.691 -18.540 -20.613  0.00  0.00    +0.015 C 
ATOM     16  C   UNL     1      34.529 -20.236 -20.132  0.00  0.00    +0.001 C 
ATOM     17  C   UNL     1      36.901 -19.797 -20.043  0.00  0.00    +0.001 C 
ATOM     18  C   UNL     1      35.820 -20.644 -19.803  0.00  0.00    +0.000 C 
ENDBRANCH   1  13
BRANCH   8  20
ATOM     19  O   UNL     1      31.744 -13.495 -19.917  0.00  0.00    -0.270 OA
ATOM     20  N   UNL     1      32.965 -12.259 -21.505  0.00  0.00    -0.281 N 
ATOM     21  C   UNL     1      32.244 -12.452 -20.318  0.00  0.00    +0.250 C 
ATOM     22  H   UNL     1      33.295 -11.346 -21.667  0.00  0.00    +0.155 HD
BRANCH  21  23
ATOM     23  C   UNL     1      32.131 -11.188 -19.533  0.00  0.00    +0.058 C 
ATOM     24  C   UNL     1      31.157 -10.310 -19.795  0.00  0.00    +0.005 C 
ENDBRANCH  21  23
ENDBRANCH   8  20
TORSDOF 3
ENDMDL
MODEL 4
REMARK VINA RESULT:     -10.6      2.682      3.652
REMARK  Name = 10401956
REMARK  3 active torsions:
REMARK  status: ('A' for Active; 'I' for Inactive)
REMARK    1  A    between atoms: N_1  and  C_13
REMARK    2  A    between atoms: C_8  and  N_20
REMARK    3  A    between atoms: C_21  and  C_23
REMARK                            x       y       z     vdW  Elec       q    Type
REMARK                         _______ _______ _______ _____ _____    ______ ____
ROOT
ATOM      1  N   UNL     1      34.558 -22.396 -17.659  0.00  0.00    -0.301 N 
ATOM      2  N   UNL     1      37.462 -22.500 -14.712  0.00  0.00    -0.248 NA
ATOM      3  N   UNL     1      36.733 -21.884 -16.925  0.00  0.00    -0.233 NA
ATOM      4  C   UNL     1      35.236 -23.042 -15.421  0.00  0.00    +0.117 C 
ATOM      5  C   UNL     1      36.260 -23.048 -14.460  0.00  0.00    +0.067 C 
ATOM      6  C   UNL     1      35.541 -22.440 -16.639  0.00  0.00    +0.115 C 
ATOM      7  C   UNL     1      33.983 -23.617 -15.147  0.00  0.00    +0.001 C 
ATOM      8  C   UNL     1      33.743 -24.203 -13.908  0.00  0.00    +0.047 C 
ATOM      9  C   UNL     1      35.992 -23.641 -13.229  0.00  0.00    +0.016 C 
ATOM     10  C   UNL     1      34.748 -24.215 -12.948  0.00  0.00    +0.016 C 
ATOM     11  C   UNL     1      37.633 -21.948 -15.931  0.00  0.00    +0.251 C 
ATOM     12  H   UNL     1      33.848 -23.077 -17.602  0.00  0.00    +0.153 HD
ENDROOT
BRANCH   1  13
ATOM     13  C   UNL     1      34.468 -21.518 -18.723  0.00  0.00    +0.049 C 
ATOM     14  C   UNL     1      35.625 -21.046 -19.374  0.00  0.00    +0.015 C 
ATOM     15  C   UNL     1      33.216 -21.068 -19.187  0.00  0.00    +0.015 C 
ATOM     16  C   UNL     1      35.534 -20.159 -20.446  0.00  0.00    +0.001 C 
ATOM     17  C   UNL     1      33.126 -20.180 -20.260  0.00  0.00    +0.001 C 
ATOM     18  C   UNL     1      34.285 -19.726 -20.889  0.00  0.00    +0.000 C 
ENDBRANCH   1  13
BRANCH   8  20
ATOM     19  O   UNL     1      31.028 -22.939 -13.677  0.00  0.00    -0.270 OA
ATOM     20  N   UNL     1      32.501 -24.775 -13.630  0.00  0.00    -0.281 N 
ATOM     21  C   UNL     1      31.257 -24.134 -13.534  0.00  0.00    +0.250 C 
ATOM     22  H   UNL     1      32.497 -25.748 -13.483  0.00  0.00    +0.155 HD
BRANCH  21  23
ATOM     23  C   UNL     1      30.164 -25.099 -13.219  0.00  0.00    +0.058 C 
ATOM     24  C   UNL     1      29.210 -25.362 -14.117  0.00  0.00    +0.005 C 
ENDBRANCH  21  23
ENDBRANCH   8  20
TORSDOF 3
ENDMDL
MODEL 5
REMARK VINA RESULT:     -10.4      3.277      7.515
REMARK  Name = 10401956
REMARK  3 active torsions:
REMARK  status: ('A' for Active; 'I' for Inactive)
REMARK    1  A    between atoms: N_1  and  C_13
REMARK    2  A    between atoms: C_8  and  N_20
REMARK    3  A    between atoms: C_21  and  C_23
REMARK                            x       y       z     vdW  Elec       q    Type
REMARK                         _______ _______ _______ _____ _____    ______ ____
ROOT
ATOM      1  N   UNL     1      32.516 -23.682 -15.769  0.00  0.00    -0.301 N 
ATOM      2  N   UNL     1      34.715 -21.666 -18.638  0.00  0.00    -0.248 NA
ATOM      3  N   UNL     1      32.642 -22.620 -17.865  0.00  0.00    -0.233 NA
ATOM      4  C   UNL     1      34.630 -22.741 -16.494  0.00  0.00    +0.117 C 
ATOM      5  C   UNL     1      35.325 -22.054 -17.504  0.00  0.00    +0.067 C 
ATOM      6  C   UNL     1      33.283 -22.993 -16.741  0.00  0.00    +0.115 C 
ATOM      7  C   UNL     1      35.278 -23.140 -15.313  0.00  0.00    +0.001 C 
ATOM      8  C   UNL     1      36.627 -22.856 -15.129  0.00  0.00    +0.047 C 
ATOM      9  C   UNL     1      36.675 -21.782 -17.293  0.00  0.00    +0.016 C 
ATOM     10  C   UNL     1      37.327 -22.176 -16.120  0.00  0.00    +0.016 C 
ATOM     11  C   UNL     1      33.407 -21.971 -18.756  0.00  0.00    +0.251 C 
ATOM     12  H   UNL     1      33.023 -24.247 -15.141  0.00  0.00    +0.153 HD
ENDROOT
BRANCH   1  13
ATOM     13  C   UNL     1      31.145 -23.662 -15.590  0.00  0.00    +0.049 C 
ATOM     14  C   UNL     1      30.367 -22.588 -16.066  0.00  0.00    +0.015 C 
ATOM     15  C   UNL     1      30.486 -24.714 -14.924  0.00  0.00    +0.015 C 
ATOM     16  C   UNL     1      28.984 -22.568 -15.884  0.00  0.00    +0.001 C 
ATOM     17  C   UNL     1      29.103 -24.692 -14.742  0.00  0.00    +0.001 C 
ATOM     18  C   UNL     1      28.352 -23.619 -15.222  0.00  0.00    +0.000 C 
ENDBRANCH   1  13
BRANCH   8  20
ATOM     19  O   UNL     1      37.802 -25.509 -14.355  0.00  0.00    -0.270 OA
ATOM     20  N   UNL     1      37.275 -23.250 -13.958  0.00  0.00    -0.281 N 
ATOM     21  C   UNL     1      37.808 -24.509 -13.648  0.00  0.00    +0.250 C 
ATOM     22  H   UNL     1      37.370 -22.558 -13.264  0.00  0.00    +0.155 HD
BRANCH  21  23
ATOM     23  C   UNL     1      38.422 -24.526 -12.288  0.00  0.00    +0.058 C 
ATOM     24  C   UNL     1      38.042 -23.642 -11.360  0.00  0.00    +0.005 C 
ENDBRANCH  21  23
ENDBRANCH   8  20
TORSDOF 3
ENDMDL
MODEL 6
REMARK VINA RESULT:      -9.9      6.261      9.888
REMARK  Name = 10401956
REMARK  3 active torsions:
REMARK  status: ('A' for Active; 'I' for Inactive)
REMARK    1  A    between atoms: N_1  and  C_13
REMARK    2  A    between atoms: C_8  and  N_20
REMARK    3  A    between atoms: C_21  and  C_23
REMARK                            x       y       z     vdW  Elec       q    Type
REMARK                         _______ _______ _______ _____ _____    ______ ____
ROOT
ATOM      1  N   UNL     1      35.152 -17.879 -21.211  0.00  0.00    -0.301 N 
ATOM      2  N   UNL     1      34.202 -17.283 -25.195  0.00  0.00    -0.248 NA
ATOM      3  N   UNL     1      34.972 -18.703 -23.407  0.00  0.00    -0.233 NA
ATOM      4  C   UNL     1      34.372 -16.402 -22.970  0.00  0.00    +0.117 C 
ATOM      5  C   UNL     1      34.065 -16.259 -24.333  0.00  0.00    +0.067 C 
ATOM      6  C   UNL     1      34.822 -17.658 -22.571  0.00  0.00    +0.115 C 
ATOM      7  C   UNL     1      34.224 -15.326 -22.078  0.00  0.00    +0.001 C 
ATOM      8  C   UNL     1      33.768 -14.096 -22.542  0.00  0.00    +0.047 C 
ATOM      9  C   UNL     1      33.611 -15.017 -24.770  0.00  0.00    +0.016 C 
ATOM     10  C   UNL     1      33.461 -13.942 -23.890  0.00  0.00    +0.016 C 
ATOM     11  C   UNL     1      34.648 -18.449 -24.684  0.00  0.00    +0.251 C 
ATOM     12  H   UNL     1      35.382 -17.076 -20.688  0.00  0.00    +0.153 HD
ENDROOT
BRANCH   1  13
ATOM     13  C   UNL     1      35.190 -19.078 -20.524  0.00  0.00    +0.049 C 
ATOM     14  C   UNL     1      34.008 -19.791 -20.241  0.00  0.00    +0.015 C 
ATOM     15  C   UNL     1      36.414 -19.622 -20.085  0.00  0.00    +0.015 C 
ATOM     16  C   UNL     1      34.048 -21.000 -19.547  0.00  0.00    +0.001 C 
ATOM     17  C   UNL     1      36.452 -20.832 -19.391  0.00  0.00    +0.001 C 
ATOM     18  C   UNL     1      35.269 -21.520 -19.122  0.00  0.00    +0.000 C 
ENDBRANCH   1  13
BRANCH   8  20
ATOM     19  O   UNL     1      31.701 -13.594 -20.422  0.00  0.00    -0.270 OA
ATOM     20  N   UNL     1      33.619 -13.024 -21.662  0.00  0.00    -0.281 N 
ATOM     21  C   UNL     1      32.629 -12.840 -20.685  0.00  0.00    +0.250 C 
ATOM     22  H   UNL     1      34.292 -12.309 -21.735  0.00  0.00    +0.155 HD
BRANCH  21  23
ATOM     23  C   UNL     1      32.818 -11.557 -19.947  0.00  0.00    +0.058 C 
ATOM     24  C   UNL     1      31.767 -10.904 -19.440  0.00  0.00    +0.005 C 
ENDBRANCH  21  23
ENDBRANCH   8  20
TORSDOF 3
ENDMDL
MODEL 7
REMARK VINA RESULT:      -9.8     11.348     14.243
REMARK  Name = 10401956
REMARK  3 active torsions:
REMARK  status: ('A' for Active; 'I' for Inactive)
REMARK    1  A    between atoms: N_1  and  C_13
REMARK    2  A    between atoms: C_8  and  N_20
REMARK    3  A    between atoms: C_21  and  C_23
REMARK                            x       y       z     vdW  Elec       q    Type
REMARK                         _______ _______ _______ _____ _____    ______ ____
ROOT
ATOM      1  N   UNL     1      32.865  -8.628 -22.696  0.00  0.00    -0.301 N 
ATOM      2  N   UNL     1      31.688 -10.259 -19.079  0.00  0.00    -0.248 NA
ATOM      3  N   UNL     1      32.160  -8.349 -20.469  0.00  0.00    -0.233 NA
ATOM      4  C   UNL     1      32.405 -10.589 -21.344  0.00  0.00    +0.117 C 
ATOM      5  C   UNL     1      32.000 -11.084 -20.094  0.00  0.00    +0.067 C 
ATOM      6  C   UNL     1      32.464  -9.203 -21.464  0.00  0.00    +0.115 C 
ATOM      7  C   UNL     1      32.728 -11.461 -22.398  0.00  0.00    +0.001 C 
ATOM      8  C   UNL     1      32.648 -12.837 -22.211  0.00  0.00    +0.047 C 
ATOM      9  C   UNL     1      31.929 -12.466 -19.935  0.00  0.00    +0.016 C 
ATOM     10  C   UNL     1      32.248 -13.341 -20.979  0.00  0.00    +0.016 C 
ATOM     11  C   UNL     1      31.786  -8.936 -19.322  0.00  0.00    +0.251 C 
ATOM     12  H   UNL     1      33.407  -9.204 -23.283  0.00  0.00    +0.153 HD
ENDROOT
BRANCH   1  13
ATOM     13  C   UNL     1      32.591  -7.361 -23.178  0.00  0.00    +0.049 C 
ATOM     14  C   UNL     1      31.282  -6.993 -23.547  0.00  0.00    +0.015 C 
ATOM     15  C   UNL     1      33.614  -6.402 -23.316  0.00  0.00    +0.015 C 
ATOM     16  C   UNL     1      31.007  -5.716 -24.034  0.00  0.00    +0.001 C 
ATOM     17  C   UNL     1      33.337  -5.125 -23.805  0.00  0.00    +0.001 C 
ATOM     18  C   UNL     1      32.033  -4.782 -24.164  0.00  0.00    +0.000 C 
ENDBRANCH   1  13
BRANCH   8  20
ATOM     19  O   UNL     1      35.088 -14.532 -22.653  0.00  0.00    -0.270 OA
ATOM     20  N   UNL     1      32.967 -13.707 -23.254  0.00  0.00    -0.281 N 
ATOM     21  C   UNL     1      34.127 -14.479 -23.411  0.00  0.00    +0.250 C 
ATOM     22  H   UNL     1      32.294 -13.790 -23.968  0.00  0.00    +0.155 HD
BRANCH  21  23
ATOM     23  C   UNL     1      34.087 -15.282 -24.668  0.00  0.00    +0.058 C 
ATOM     24  C   UNL     1      34.489 -16.558 -24.672  0.00  0.00    +0.005 C 
ENDBRANCH  21  23
ENDBRANCH   8  20
TORSDOF 3
ENDMDL
MODEL 8
REMARK VINA RESULT:      -9.6      2.790      6.036
REMARK  Name = 10401956
REMARK  3 active torsions:
REMARK  status: ('A' for Active; 'I' for Inactive)
REMARK    1  A    between atoms: N_1  and  C_13
REMARK    2  A    between atoms: C_8  and  N_20
REMARK    3  A    between atoms: C_21  and  C_23
REMARK                            x       y       z     vdW  Elec       q    Type
REMARK                         _______ _______ _______ _____ _____    ______ ____
ROOT
ATOM      1  N   UNL     1      34.746 -24.234 -14.084  0.00  0.00    -0.301 N 
ATOM      2  N   UNL     1      30.688 -24.493 -13.313  0.00  0.00    -0.248 NA
ATOM      3  N   UNL     1      32.977 -24.936 -12.702  0.00  0.00    -0.233 NA
ATOM      4  C   UNL     1      32.463 -23.761 -14.751  0.00  0.00    +0.117 C 
ATOM      5  C   UNL     1      31.099 -23.880 -14.437  0.00  0.00    +0.067 C 
ATOM      6  C   UNL     1      33.354 -24.314 -13.836  0.00  0.00    +0.115 C 
ATOM      7  C   UNL     1      32.881 -23.116 -15.928  0.00  0.00    +0.001 C 
ATOM      8  C   UNL     1      31.938 -22.584 -16.802  0.00  0.00    +0.047 C 
ATOM      9  C   UNL     1      30.178 -23.337 -15.330  0.00  0.00    +0.016 C 
ATOM     10  C   UNL     1      30.585 -22.695 -16.503  0.00  0.00    +0.016 C 
ATOM     11  C   UNL     1      31.650 -24.988 -12.507  0.00  0.00    +0.251 C 
ATOM     12  H   UNL     1      35.009 -24.113 -15.026  0.00  0.00    +0.153 HD
ENDROOT
BRANCH   1  13
ATOM     13  C   UNL     1      35.784 -24.303 -13.172  0.00  0.00    +0.049 C 
ATOM     14  C   UNL     1      36.068 -23.223 -12.314  0.00  0.00    +0.015 C 
ATOM     15  C   UNL     1      36.588 -25.456 -13.076  0.00  0.00    +0.015 C 
ATOM     16  C   UNL     1      37.115 -23.293 -11.395  0.00  0.00    +0.001 C 
ATOM     17  C   UNL     1      37.636 -25.524 -12.157  0.00  0.00    +0.001 C 
ATOM     18  C   UNL     1      37.899 -24.443 -11.316  0.00  0.00    +0.000 C 
ENDBRANCH   1  13
BRANCH   8  20
ATOM     19  O   UNL     1      34.621 -22.524 -18.150  0.00  0.00    -0.270 OA
ATOM     20  N   UNL     1      32.347 -21.944 -17.972  0.00  0.00    -0.281 N 
ATOM     21  C   UNL     1      33.621 -21.949 -18.560  0.00  0.00    +0.250 C 
ATOM     22  H   UNL     1      31.657 -21.423 -18.443  0.00  0.00    +0.155 HD
BRANCH  21  23
ATOM     23  C   UNL     1      33.652 -21.137 -19.811  0.00  0.00    +0.058 C 
ATOM     24  C   UNL     1      32.705 -20.224 -20.052  0.00  0.00    +0.005 C 
ENDBRANCH  21  23
ENDBRANCH   8  20
TORSDOF 3
ENDMDL
MODEL 9
REMARK VINA RESULT:      -9.4      3.509      7.306
REMARK  Name = 10401956
REMARK  3 active torsions:
REMARK  status: ('A' for Active; 'I' for Inactive)
REMARK    1  A    between atoms: N_1  and  C_13
REMARK    2  A    between atoms: C_8  and  N_20
REMARK    3  A    between atoms: C_21  and  C_23
REMARK                            x       y       z     vdW  Elec       q    Type
REMARK                         _______ _______ _______ _____ _____    ______ ____
ROOT
ATOM      1  N   UNL     1      36.360 -23.528 -15.001  0.00  0.00    -0.301 N 
ATOM      2  N   UNL     1      32.388 -23.483 -16.164  0.00  0.00    -0.248 NA
ATOM      3  N   UNL     1      34.125 -24.169 -14.641  0.00  0.00    -0.233 NA
ATOM      4  C   UNL     1      34.655 -22.809 -16.568  0.00  0.00    +0.117 C 
ATOM      5  C   UNL     1      33.294 -22.829 -16.914  0.00  0.00    +0.067 C 
ATOM      6  C   UNL     1      35.005 -23.503 -15.413  0.00  0.00    +0.115 C 
ATOM      7  C   UNL     1      35.592 -22.121 -17.358  0.00  0.00    +0.001 C 
ATOM      8  C   UNL     1      35.176 -21.447 -18.502  0.00  0.00    +0.047 C 
ATOM      9  C   UNL     1      32.905 -22.145 -18.063  0.00  0.00    +0.016 C 
ATOM     10  C   UNL     1      33.831 -21.458 -18.855  0.00  0.00    +0.016 C 
ATOM     11  C   UNL     1      32.854 -24.117 -15.069  0.00  0.00    +0.251 C 
ATOM     12  H   UNL     1      37.027 -23.364 -15.706  0.00  0.00    +0.153 HD
ENDROOT
BRANCH   1  13
ATOM     13  C   UNL     1      36.864 -23.754 -13.732  0.00  0.00    +0.049 C 
ATOM     14  C   UNL     1      37.360 -25.020 -13.363  0.00  0.00    +0.015 C 
ATOM     15  C   UNL     1      36.895 -22.723 -12.772  0.00  0.00    +0.015 C 
ATOM     16  C   UNL     1      37.867 -25.247 -12.084  0.00  0.00    +0.001 C 
ATOM     17  C   UNL     1      37.403 -22.952 -11.492  0.00  0.00    +0.001 C 
ATOM     18  C   UNL     1      37.889 -24.213 -11.149  0.00  0.00    +0.000 C 
ENDBRANCH   1  13
BRANCH   8  20
ATOM     19  O   UNL     1      34.821 -19.056 -20.284  0.00  0.00    -0.270 OA
ATOM     20  N   UNL     1      36.101 -20.762 -19.290  0.00  0.00    -0.281 N 
ATOM     21  C   UNL     1      35.880 -19.644 -20.108  0.00  0.00    +0.250 C 
ATOM     22  H   UNL     1      37.024 -21.106 -19.269  0.00  0.00    +0.155 HD
BRANCH  21  23
ATOM     23  C   UNL     1      37.132 -19.207 -20.791  0.00  0.00    +0.058 C 
ATOM     24  C   UNL     1      37.081 -18.371 -21.833  0.00  0.00    +0.005 C 
ENDBRANCH  21  23
ENDBRANCH   8  20
TORSDOF 3
ENDMDL
