MODEL 1
REMARK VINA RESULT:     -12.7      0.000      0.000
REMARK  Name = 25023705
REMARK  6 active torsions:
REMARK  status: ('A' for Active; 'I' for Inactive)
REMARK    1  A    between atoms: C_1  and  C_8
REMARK    2  A    between atoms: C_1  and  C_20
REMARK    3  A    between atoms: C_20  and  N_22
REMARK    4  A    between atoms: C_23  and  C_25
REMARK    5  A    between atoms: C_30  and  O_31
REMARK    6  A    between atoms: O_31  and  C_32
REMARK                            x       y       z     vdW  Elec       q    Type
REMARK                         _______ _______ _______ _____ _____    ______ ____
ROOT
ATOM      1  C   UNL     1      32.702 -23.764 -14.639  0.00  0.00    +0.066 C 
ATOM      2  C   UNL     1      32.181 -22.311 -14.517  0.00  0.00    +0.009 C 
ATOM      3  C   UNL     1      31.601 -24.676 -14.044  0.00  0.00    +0.009 C 
ENDROOT
BRANCH   1   8
ATOM      4  N   UNL     1      35.124 -24.212 -14.672  0.00  0.00    -0.347 NA
ATOM      5  N   UNL     1      37.391 -24.655 -14.834  0.00  0.00    -0.266 NA
ATOM      6  N   UNL     1      38.836 -24.538 -12.912  0.00  0.00    -0.316 NA
ATOM      7  N   UNL     1      39.686 -25.108 -15.018  0.00  0.00    -0.283 N 
ATOM      8  C   UNL     1      34.057 -23.866 -13.912  0.00  0.00    +0.122 C 
ATOM      9  C   UNL     1      34.120 -23.610 -12.559  0.00  0.00    +0.026 C 
ATOM     10  C   UNL     1      35.360 -23.715 -11.955  0.00  0.00    +0.001 C 
ATOM     11  C   UNL     1      36.328 -24.315 -14.095  0.00  0.00    +0.137 C 
ATOM     12  C   UNL     1      36.476 -24.071 -12.725  0.00  0.00    +0.199 C 
ATOM     13  C   UNL     1      37.756 -24.198 -12.189  0.00  0.00    +0.187 C 
ATOM     14  C   UNL     1      38.584 -24.749 -14.212  0.00  0.00    +0.207 C 
ATOM     15  H   UNL     1      39.558 -25.276 -15.980  0.00  0.00    +0.156 HD
ATOM     16  H   UNL     1      40.582 -25.192 -14.618  0.00  0.00    +0.156 HD
ATOM     17  N   UNL     1      37.959 -23.961 -10.807  0.00  0.00    -0.334 N 
ATOM     18  H   UNL     1      38.860 -24.048 -10.420  0.00  0.00    +0.144 HD
ATOM     19  H   UNL     1      37.199 -23.709 -10.233  0.00  0.00    +0.144 HD
ENDBRANCH   1   8
BRANCH   1  20
ATOM     20  C   UNL     1      32.856 -24.098 -16.150  0.00  0.00    +0.096 C 
BRANCH  20  22
ATOM     21  O   UNL     1      33.760 -24.227 -18.871  0.00  0.00    -0.270 OA
ATOM     22  N   UNL     1      33.366 -23.007 -16.938  0.00  0.00    -0.300 N 
ATOM     23  C   UNL     1      33.782 -23.165 -18.254  0.00  0.00    +0.246 C 
ATOM     24  H   UNL     1      33.423 -22.113 -16.529  0.00  0.00    +0.150 HD
BRANCH  23  25
ATOM     25  C   UNL     1      34.309 -21.947 -18.922  0.00  0.00    +0.054 C 
ATOM     26  C   UNL     1      33.427 -21.005 -19.450  0.00  0.00    +0.008 C 
ATOM     27  C   UNL     1      35.686 -21.748 -19.022  0.00  0.00    +0.008 C 
ATOM     28  C   UNL     1      33.922 -19.862 -20.078  0.00  0.00    +0.038 C 
ATOM     29  C   UNL     1      36.181 -20.604 -19.649  0.00  0.00    +0.038 C 
ATOM     30  C   UNL     1      35.299 -19.662 -20.178  0.00  0.00    +0.145 C 
BRANCH  30  31
ATOM     31  O   UNL     1      35.782 -18.548 -20.793  0.00  0.00    -0.453 OA
BRANCH  31  32
ATOM     32  C   UNL     1      35.256 -18.217 -22.030  0.00  0.00    +0.145 C 
ATOM     33  C   UNL     1      35.241 -16.886 -22.446  0.00  0.00    +0.037 C 
ATOM     34  C   UNL     1      34.741 -19.213 -22.859  0.00  0.00    +0.037 C 
ATOM     35  C   UNL     1      34.711 -16.550 -23.692  0.00  0.00    +0.003 C 
ATOM     36  C   UNL     1      34.210 -18.878 -24.105  0.00  0.00    +0.003 C 
ATOM     37  C   UNL     1      34.195 -17.547 -24.521  0.00  0.00    +0.000 C 
ENDBRANCH  31  32
ENDBRANCH  30  31
ENDBRANCH  23  25
ENDBRANCH  20  22
ENDBRANCH   1  20
TORSDOF 6
ENDMDL
MODEL 2
REMARK VINA RESULT:     -12.0      2.379      4.799
REMARK  Name = 25023705
REMARK  6 active torsions:
REMARK  status: ('A' for Active; 'I' for Inactive)
REMARK    1  A    between atoms: C_1  and  C_8
REMARK    2  A    between atoms: C_1  and  C_20
REMARK    3  A    between atoms: C_20  and  N_22
REMARK    4  A    between atoms: C_23  and  C_25
REMARK    5  A    between atoms: C_30  and  O_31
REMARK    6  A    between atoms: O_31  and  C_32
REMARK                            x       y       z     vdW  Elec       q    Type
REMARK                         _______ _______ _______ _____ _____    ______ ____
ROOT
ATOM      1  C   UNL     1      34.188 -22.253 -18.529  0.00  0.00    +0.066 C 
ATOM      2  C   UNL     1      32.848 -21.519 -18.779  0.00  0.00    +0.009 C 
ATOM      3  C   UNL     1      34.203 -23.473 -19.483  0.00  0.00    +0.009 C 
ENDROOT
BRANCH   1   8
ATOM      4  N   UNL     1      33.166 -23.178 -16.487  0.00  0.00    -0.347 NA
ATOM      5  N   UNL     1      32.095 -24.070 -14.638  0.00  0.00    -0.266 NA
ATOM      6  N   UNL     1      33.201 -24.245 -12.506  0.00  0.00    -0.316 NA
ATOM      7  N   UNL     1      30.993 -24.977 -12.774  0.00  0.00    -0.283 N 
ATOM      8  C   UNL     1      34.275 -22.627 -17.036  0.00  0.00    +0.122 C 
ATOM      9  C   UNL     1      35.445 -22.389 -16.347  0.00  0.00    +0.026 C 
ATOM     10  C   UNL     1      35.471 -22.742 -15.009  0.00  0.00    +0.001 C 
ATOM     11  C   UNL     1      33.184 -23.524 -15.192  0.00  0.00    +0.137 C 
ATOM     12  C   UNL     1      34.333 -23.314 -14.422  0.00  0.00    +0.199 C 
ATOM     13  C   UNL     1      34.283 -23.696 -13.083  0.00  0.00    +0.187 C 
ATOM     14  C   UNL     1      32.156 -24.402 -13.331  0.00  0.00    +0.207 C 
ATOM     15  H   UNL     1      30.196 -25.115 -13.335  0.00  0.00    +0.156 HD
ATOM     16  H   UNL     1      30.980 -25.239 -11.825  0.00  0.00    +0.156 HD
ATOM     17  N   UNL     1      35.421 -23.505 -12.262  0.00  0.00    -0.334 N 
ATOM     18  H   UNL     1      35.394 -23.771 -11.314  0.00  0.00    +0.144 HD
ATOM     19  H   UNL     1      36.238 -23.105 -12.637  0.00  0.00    +0.144 HD
ENDBRANCH   1   8
BRANCH   1  20
ATOM     20  C   UNL     1      35.347 -21.298 -18.930  0.00  0.00    +0.096 C 
BRANCH  20  22
ATOM     21  O   UNL     1      36.884 -19.068 -19.882  0.00  0.00    -0.270 OA
ATOM     22  N   UNL     1      35.059 -20.486 -20.084  0.00  0.00    -0.300 N 
ATOM     23  C   UNL     1      35.865 -19.422 -20.469  0.00  0.00    +0.246 C 
ATOM     24  H   UNL     1      34.260 -20.693 -20.621  0.00  0.00    +0.150 HD
BRANCH  23  25
ATOM     25  C   UNL     1      35.416 -18.666 -21.667  0.00  0.00    +0.054 C 
ATOM     26  C   UNL     1      34.574 -19.271 -22.599  0.00  0.00    +0.008 C 
ATOM     27  C   UNL     1      35.840 -17.350 -21.859  0.00  0.00    +0.008 C 
ATOM     28  C   UNL     1      34.155 -18.560 -23.724  0.00  0.00    +0.038 C 
ATOM     29  C   UNL     1      35.420 -16.640 -22.984  0.00  0.00    +0.038 C 
ATOM     30  C   UNL     1      34.578 -17.245 -23.916  0.00  0.00    +0.145 C 
BRANCH  30  31
ATOM     31  O   UNL     1      34.170 -16.553 -25.015  0.00  0.00    -0.453 OA
BRANCH  31  32
ATOM     32  C   UNL     1      33.868 -15.211 -24.854  0.00  0.00    +0.145 C 
ATOM     33  C   UNL     1      33.853 -14.364 -25.962  0.00  0.00    +0.037 C 
ATOM     34  C   UNL     1      33.580 -14.707 -23.585  0.00  0.00    +0.037 C 
ATOM     35  C   UNL     1      33.549 -13.011 -25.801  0.00  0.00    +0.003 C 
ATOM     36  C   UNL     1      33.277 -13.355 -23.425  0.00  0.00    +0.003 C 
ATOM     37  C   UNL     1      33.262 -12.507 -24.532  0.00  0.00    +0.000 C 
ENDBRANCH  31  32
ENDBRANCH  30  31
ENDBRANCH  23  25
ENDBRANCH  20  22
ENDBRANCH   1  20
TORSDOF 6
ENDMDL
MODEL 3
REMARK VINA RESULT:     -11.8      5.158      8.476
REMARK  Name = 25023705
REMARK  6 active torsions:
REMARK  status: ('A' for Active; 'I' for Inactive)
REMARK    1  A    between atoms: C_1  and  C_8
REMARK    2  A    between atoms: C_1  and  C_20
REMARK    3  A    between atoms: C_20  and  N_22
REMARK    4  A    between atoms: C_23  and  C_25
REMARK    5  A    between atoms: C_30  and  O_31
REMARK    6  A    between atoms: O_31  and  C_32
REMARK                            x       y       z     vdW  Elec       q    Type
REMARK                         _______ _______ _______ _____ _____    ______ ____
ROOT
ATOM      1  C   UNL     1      35.379 -18.516 -21.672  0.00  0.00    +0.066 C 
ATOM      2  C   UNL     1      34.114 -18.153 -22.488  0.00  0.00    +0.009 C 
ATOM      3  C   UNL     1      36.435 -19.002 -22.695  0.00  0.00    +0.009 C 
ENDROOT
BRANCH   1   8
ATOM      4  N   UNL     1      35.980 -19.949 -19.761  0.00  0.00    -0.347 NA
ATOM      5  N   UNL     1      36.668 -21.245 -17.969  0.00  0.00    -0.266 NA
ATOM      6  N   UNL     1      35.163 -22.766 -16.865  0.00  0.00    -0.316 NA
ATOM      7  N   UNL     1      37.384 -22.550 -16.155  0.00  0.00    -0.283 N 
ATOM      8  C   UNL     1      34.999 -19.573 -20.617  0.00  0.00    +0.122 C 
ATOM      9  C   UNL     1      33.716 -20.074 -20.592  0.00  0.00    +0.026 C 
ATOM     10  C   UNL     1      33.427 -21.021 -19.625  0.00  0.00    +0.001 C 
ATOM     11  C   UNL     1      35.708 -20.865 -18.821  0.00  0.00    +0.137 C 
ATOM     12  C   UNL     1      34.428 -21.423 -18.730  0.00  0.00    +0.199 C 
ATOM     13  C   UNL     1      34.215 -22.369 -17.731  0.00  0.00    +0.187 C 
ATOM     14  C   UNL     1      36.351 -22.170 -17.039  0.00  0.00    +0.207 C 
ATOM     15  H   UNL     1      38.277 -22.145 -16.238  0.00  0.00    +0.156 HD
ATOM     16  H   UNL     1      37.210 -23.222 -15.455  0.00  0.00    +0.156 HD
ATOM     17  N   UNL     1      32.936 -22.964 -17.596  0.00  0.00    -0.334 N 
ATOM     18  H   UNL     1      32.776 -23.634 -16.893  0.00  0.00    +0.144 HD
ATOM     19  H   UNL     1      32.207 -22.707 -18.207  0.00  0.00    +0.144 HD
ENDBRANCH   1   8
BRANCH   1  20
ATOM     20  C   UNL     1      35.907 -17.220 -20.995  0.00  0.00    +0.096 C 
BRANCH  20  22
ATOM     21  O   UNL     1      35.625 -15.049 -22.851  0.00  0.00    -0.270 OA
ATOM     22  N   UNL     1      34.937 -16.158 -20.934  0.00  0.00    -0.300 N 
ATOM     23  C   UNL     1      34.877 -15.145 -21.883  0.00  0.00    +0.246 C 
ATOM     24  H   UNL     1      34.292 -16.149 -20.190  0.00  0.00    +0.150 HD
BRANCH  23  25
ATOM     25  C   UNL     1      33.835 -14.108 -21.662  0.00  0.00    +0.054 C 
ATOM     26  C   UNL     1      33.572 -13.163 -22.653  0.00  0.00    +0.008 C 
ATOM     27  C   UNL     1      33.123 -14.080 -20.463  0.00  0.00    +0.008 C 
ATOM     28  C   UNL     1      32.595 -12.189 -22.445  0.00  0.00    +0.038 C 
ATOM     29  C   UNL     1      32.146 -13.107 -20.255  0.00  0.00    +0.038 C 
ATOM     30  C   UNL     1      31.883 -12.161 -21.246  0.00  0.00    +0.145 C 
BRANCH  30  31
ATOM     31  O   UNL     1      30.931 -11.209 -21.042  0.00  0.00    -0.453 OA
BRANCH  31  32
ATOM     32  C   UNL     1      31.355  -9.905 -20.853  0.00  0.00    +0.145 C 
ATOM     33  C   UNL     1      31.770  -9.484 -19.590  0.00  0.00    +0.037 C 
ATOM     34  C   UNL     1      31.366  -9.012 -21.924  0.00  0.00    +0.037 C 
ATOM     35  C   UNL     1      32.197  -8.169 -19.397  0.00  0.00    +0.003 C 
ATOM     36  C   UNL     1      31.792  -7.697 -21.732  0.00  0.00    +0.003 C 
ATOM     37  C   UNL     1      32.207  -7.276 -20.469  0.00  0.00    +0.000 C 
ENDBRANCH  31  32
ENDBRANCH  30  31
ENDBRANCH  23  25
ENDBRANCH  20  22
ENDBRANCH   1  20
TORSDOF 6
ENDMDL
MODEL 4
REMARK VINA RESULT:     -11.8      2.753      5.127
REMARK  Name = 25023705
REMARK  6 active torsions:
REMARK  status: ('A' for Active; 'I' for Inactive)
REMARK    1  A    between atoms: C_1  and  C_8
REMARK    2  A    between atoms: C_1  and  C_20
REMARK    3  A    between atoms: C_20  and  N_22
REMARK    4  A    between atoms: C_23  and  C_25
REMARK    5  A    between atoms: C_30  and  O_31
REMARK    6  A    between atoms: O_31  and  C_32
REMARK                            x       y       z     vdW  Elec       q    Type
REMARK                         _______ _______ _______ _____ _____    ______ ____
ROOT
ATOM      1  C   UNL     1      35.063 -21.660 -19.124  0.00  0.00    +0.066 C 
ATOM      2  C   UNL     1      33.695 -20.935 -19.151  0.00  0.00    +0.009 C 
ATOM      3  C   UNL     1      34.943 -22.859 -20.096  0.00  0.00    +0.009 C 
ENDROOT
BRANCH   1   8
ATOM      4  N   UNL     1      34.408 -22.737 -17.008  0.00  0.00    -0.347 NA
ATOM      5  N   UNL     1      33.677 -23.782 -15.075  0.00  0.00    -0.266 NA
ATOM      6  N   UNL     1      35.062 -23.905 -13.110  0.00  0.00    -0.316 NA
ATOM      7  N   UNL     1      32.918 -24.845 -13.125  0.00  0.00    -0.283 N 
ATOM      8  C   UNL     1      35.379 -22.064 -17.671  0.00  0.00    +0.122 C 
ATOM      9  C   UNL     1      36.600 -21.730 -17.126  0.00  0.00    +0.026 C 
ATOM     10  C   UNL     1      36.834 -22.115 -15.818  0.00  0.00    +0.001 C 
ATOM     11  C   UNL     1      34.627 -23.115 -15.741  0.00  0.00    +0.137 C 
ATOM     12  C   UNL     1      35.842 -22.814 -15.115  0.00  0.00    +0.199 C 
ATOM     13  C   UNL     1      36.003 -23.235 -13.797  0.00  0.00    +0.187 C 
ATOM     14  C   UNL     1      33.939 -24.142 -13.801  0.00  0.00    +0.207 C 
ATOM     15  H   UNL     1      32.071 -25.045 -13.585  0.00  0.00    +0.156 HD
ATOM     16  H   UNL     1      33.053 -25.133 -12.193  0.00  0.00    +0.156 HD
ATOM     17  N   UNL     1      37.215 -22.955 -13.119  0.00  0.00    -0.334 N 
ATOM     18  H   UNL     1      37.337 -23.249 -12.188  0.00  0.00    +0.144 HD
ATOM     19  H   UNL     1      37.935 -22.466 -13.580  0.00  0.00    +0.144 HD
ENDBRANCH   1   8
BRANCH   1  20
ATOM     20  C   UNL     1      36.140 -20.683 -19.675  0.00  0.00    +0.096 C 
BRANCH  20  22
ATOM     21  O   UNL     1      37.545 -18.613 -21.083  0.00  0.00    -0.270 OA
ATOM     22  N   UNL     1      35.619 -19.395 -20.053  0.00  0.00    -0.300 N 
ATOM     23  C   UNL     1      36.378 -18.453 -20.736  0.00  0.00    +0.246 C 
ATOM     24  H   UNL     1      34.689 -19.173 -19.818  0.00  0.00    +0.150 HD
BRANCH  23  25
ATOM     25  C   UNL     1      35.703 -17.162 -21.029  0.00  0.00    +0.054 C 
ATOM     26  C   UNL     1      35.599 -16.712 -22.345  0.00  0.00    +0.008 C 
ATOM     27  C   UNL     1      35.176 -16.399 -19.986  0.00  0.00    +0.008 C 
ATOM     28  C   UNL     1      34.967 -15.499 -22.619  0.00  0.00    +0.038 C 
ATOM     29  C   UNL     1      34.543 -15.187 -20.261  0.00  0.00    +0.038 C 
ATOM     30  C   UNL     1      34.439 -14.737 -21.577  0.00  0.00    +0.145 C 
BRANCH  30  31
ATOM     31  O   UNL     1      33.824 -13.552 -21.844  0.00  0.00    -0.453 OA
BRANCH  31  32
ATOM     32  C   UNL     1      33.689 -13.182 -23.171  0.00  0.00    +0.145 C 
ATOM     33  C   UNL     1      34.104 -11.917 -23.588  0.00  0.00    +0.037 C 
ATOM     34  C   UNL     1      33.136 -14.073 -24.092  0.00  0.00    +0.037 C 
ATOM     35  C   UNL     1      33.967 -11.543 -24.925  0.00  0.00    +0.003 C 
ATOM     36  C   UNL     1      32.999 -13.699 -25.428  0.00  0.00    +0.003 C 
ATOM     37  C   UNL     1      33.414 -12.434 -25.845  0.00  0.00    +0.000 C 
ENDBRANCH  31  32
ENDBRANCH  30  31
ENDBRANCH  23  25
ENDBRANCH  20  22
ENDBRANCH   1  20
TORSDOF 6
ENDMDL
MODEL 5
REMARK VINA RESULT:     -11.7      2.119      4.129
REMARK  Name = 25023705
REMARK  6 active torsions:
REMARK  status: ('A' for Active; 'I' for Inactive)
REMARK    1  A    between atoms: C_1  and  C_8
REMARK    2  A    between atoms: C_1  and  C_20
REMARK    3  A    between atoms: C_20  and  N_22
REMARK    4  A    between atoms: C_23  and  C_25
REMARK    5  A    between atoms: C_30  and  O_31
REMARK    6  A    between atoms: O_31  and  C_32
REMARK                            x       y       z     vdW  Elec       q    Type
REMARK                         _______ _______ _______ _____ _____    ______ ____
ROOT
ATOM      1  C   UNL     1      34.145 -22.340 -18.463  0.00  0.00    +0.066 C 
ATOM      2  C   UNL     1      32.813 -21.567 -18.613  0.00  0.00    +0.009 C 
ATOM      3  C   UNL     1      34.114 -23.475 -19.516  0.00  0.00    +0.009 C 
ENDROOT
BRANCH   1   8
ATOM      4  N   UNL     1      35.521 -22.979 -16.522  0.00  0.00    -0.347 NA
ATOM      5  N   UNL     1      36.923 -23.550 -14.769  0.00  0.00    -0.266 NA
ATOM      6  N   UNL     1      36.050 -24.306 -12.656  0.00  0.00    -0.316 NA
ATOM      7  N   UNL     1      38.359 -24.126 -13.004  0.00  0.00    -0.283 N 
ATOM      8  C   UNL     1      34.265 -22.841 -17.010  0.00  0.00    +0.122 C 
ATOM      9  C   UNL     1      33.120 -23.118 -16.294  0.00  0.00    +0.026 C 
ATOM     10  C   UNL     1      33.283 -23.565 -14.994  0.00  0.00    +0.001 C 
ATOM     11  C   UNL     1      35.687 -23.410 -15.264  0.00  0.00    +0.137 C 
ATOM     12  C   UNL     1      34.575 -23.714 -14.470  0.00  0.00    +0.199 C 
ATOM     13  C   UNL     1      34.819 -24.158 -13.173  0.00  0.00    +0.187 C 
ATOM     14  C   UNL     1      37.043 -23.988 -13.498  0.00  0.00    +0.207 C 
ATOM     15  H   UNL     1      39.126 -23.907 -13.581  0.00  0.00    +0.156 HD
ATOM     16  H   UNL     1      38.508 -24.442 -12.083  0.00  0.00    +0.156 HD
ATOM     17  N   UNL     1      33.727 -24.478 -12.329  0.00  0.00    -0.334 N 
ATOM     18  H   UNL     1      33.890 -24.793 -11.411  0.00  0.00    +0.144 HD
ATOM     19  H   UNL     1      32.805 -24.386 -12.661  0.00  0.00    +0.144 HD
ENDBRANCH   1   8
BRANCH   1  20
ATOM     20  C   UNL     1      35.310 -21.373 -18.814  0.00  0.00    +0.096 C 
BRANCH  20  22
ATOM     21  O   UNL     1      36.944 -19.216 -19.774  0.00  0.00    -0.270 OA
ATOM     22  N   UNL     1      35.056 -20.549 -19.968  0.00  0.00    -0.300 N 
ATOM     23  C   UNL     1      35.908 -19.523 -20.357  0.00  0.00    +0.246 C 
ATOM     24  H   UNL     1      34.246 -20.720 -20.502  0.00  0.00    +0.150 HD
BRANCH  23  25
ATOM     25  C   UNL     1      35.490 -18.749 -21.554  0.00  0.00    +0.054 C 
ATOM     26  C   UNL     1      34.591 -19.303 -22.464  0.00  0.00    +0.008 C 
ATOM     27  C   UNL     1      36.000 -17.467 -21.767  0.00  0.00    +0.008 C 
ATOM     28  C   UNL     1      34.200 -18.575 -23.588  0.00  0.00    +0.038 C 
ATOM     29  C   UNL     1      35.608 -16.740 -22.891  0.00  0.00    +0.038 C 
ATOM     30  C   UNL     1      34.709 -17.294 -23.802  0.00  0.00    +0.145 C 
BRANCH  30  31
ATOM     31  O   UNL     1      34.330 -16.586 -24.900  0.00  0.00    -0.453 OA
BRANCH  31  32
ATOM     32  C   UNL     1      33.966 -15.262 -24.718  0.00  0.00    +0.145 C 
ATOM     33  C   UNL     1      33.800 -14.756 -23.429  0.00  0.00    +0.037 C 
ATOM     34  C   UNL     1      33.764 -14.435 -25.823  0.00  0.00    +0.037 C 
ATOM     35  C   UNL     1      33.432 -13.423 -23.244  0.00  0.00    +0.003 C 
ATOM     36  C   UNL     1      33.396 -13.102 -25.639  0.00  0.00    +0.003 C 
ATOM     37  C   UNL     1      33.230 -12.596 -24.350  0.00  0.00    +0.000 C 
ENDBRANCH  31  32
ENDBRANCH  30  31
ENDBRANCH  23  25
ENDBRANCH  20  22
ENDBRANCH   1  20
TORSDOF 6
ENDMDL
MODEL 6
REMARK VINA RESULT:     -11.5      9.004     14.203
REMARK  Name = 25023705
REMARK  6 active torsions:
REMARK  status: ('A' for Active; 'I' for Inactive)
REMARK    1  A    between atoms: C_1  and  C_8
REMARK    2  A    between atoms: C_1  and  C_20
REMARK    3  A    between atoms: C_20  and  N_22
REMARK    4  A    between atoms: C_23  and  C_25
REMARK    5  A    between atoms: C_30  and  O_31
REMARK    6  A    between atoms: O_31  and  C_32
REMARK                            x       y       z     vdW  Elec       q    Type
REMARK                         _______ _______ _______ _____ _____    ______ ____
ROOT
ATOM      1  C   UNL     1      31.892 -11.172 -21.312  0.00  0.00    +0.066 C 
ATOM      2  C   UNL     1      30.449 -11.138 -20.752  0.00  0.00    +0.009 C 
ATOM      3  C   UNL     1      32.799 -11.662 -20.157  0.00  0.00    +0.009 C 
ENDROOT
BRANCH   1   8
ATOM      4  N   UNL     1      31.403  -8.765 -21.503  0.00  0.00    -0.347 NA
ATOM      5  N   UNL     1      30.836  -6.522 -21.607  0.00  0.00    -0.266 NA
ATOM      6  N   UNL     1      32.191  -4.936 -22.810  0.00  0.00    -0.316 NA
ATOM      7  N   UNL     1      30.245  -4.253 -21.702  0.00  0.00    -0.283 N 
ATOM      8  C   UNL     1      32.251  -9.768 -21.836  0.00  0.00    +0.122 C 
ATOM      9  C   UNL     1      33.386  -9.601 -22.600  0.00  0.00    +0.026 C 
ATOM     10  C   UNL     1      33.664  -8.321 -23.046  0.00  0.00    +0.001 C 
ATOM     11  C   UNL     1      31.665  -7.522 -21.930  0.00  0.00    +0.137 C 
ATOM     12  C   UNL     1      32.798  -7.269 -22.711  0.00  0.00    +0.199 C 
ATOM     13  C   UNL     1      33.010  -5.955 -23.122  0.00  0.00    +0.187 C 
ATOM     14  C   UNL     1      31.137  -5.287 -22.059  0.00  0.00    +0.207 C 
ATOM     15  H   UNL     1      29.453  -4.454 -21.152  0.00  0.00    +0.156 HD
ATOM     16  H   UNL     1      30.414  -3.331 -22.004  0.00  0.00    +0.156 HD
ATOM     17  N   UNL     1      34.143  -5.647 -23.914  0.00  0.00    -0.334 N 
ATOM     18  H   UNL     1      34.300  -4.721 -24.209  0.00  0.00    +0.144 HD
ATOM     19  H   UNL     1      34.774  -6.359 -24.170  0.00  0.00    +0.144 HD
ENDBRANCH   1   8
BRANCH   1  20
ATOM     20  C   UNL     1      31.942 -12.221 -22.458  0.00  0.00    +0.096 C 
BRANCH  20  22
ATOM     21  O   UNL     1      34.522 -13.021 -23.432  0.00  0.00    -0.270 OA
ATOM     22  N   UNL     1      32.655 -13.424 -22.115  0.00  0.00    -0.300 N 
ATOM     23  C   UNL     1      33.905 -13.728 -22.640  0.00  0.00    +0.246 C 
ATOM     24  H   UNL     1      32.241 -14.057 -21.485  0.00  0.00    +0.150 HD
BRANCH  23  25
ATOM     25  C   UNL     1      34.497 -15.021 -22.207  0.00  0.00    +0.054 C 
ATOM     26  C   UNL     1      34.841 -15.982 -23.156  0.00  0.00    +0.008 C 
ATOM     27  C   UNL     1      34.706 -15.272 -20.850  0.00  0.00    +0.008 C 
ATOM     28  C   UNL     1      35.395 -17.196 -22.749  0.00  0.00    +0.038 C 
ATOM     29  C   UNL     1      35.260 -16.486 -20.444  0.00  0.00    +0.038 C 
ATOM     30  C   UNL     1      35.604 -17.448 -21.394  0.00  0.00    +0.145 C 
BRANCH  30  31
ATOM     31  O   UNL     1      36.142 -18.633 -20.996  0.00  0.00    -0.453 OA
BRANCH  31  32
ATOM     32  C   UNL     1      35.299 -19.555 -20.398  0.00  0.00    +0.145 C 
ATOM     33  C   UNL     1      35.827 -20.554 -19.581  0.00  0.00    +0.037 C 
ATOM     34  C   UNL     1      33.923 -19.485 -20.615  0.00  0.00    +0.037 C 
ATOM     35  C   UNL     1      34.979 -21.483 -18.978  0.00  0.00    +0.003 C 
ATOM     36  C   UNL     1      33.075 -20.415 -20.013  0.00  0.00    +0.003 C 
ATOM     37  C   UNL     1      33.603 -21.414 -19.195  0.00  0.00    +0.000 C 
ENDBRANCH  31  32
ENDBRANCH  30  31
ENDBRANCH  23  25
ENDBRANCH  20  22
ENDBRANCH   1  20
TORSDOF 6
ENDMDL
MODEL 7
REMARK VINA RESULT:     -11.4      4.759      8.611
REMARK  Name = 25023705
REMARK  6 active torsions:
REMARK  status: ('A' for Active; 'I' for Inactive)
REMARK    1  A    between atoms: C_1  and  C_8
REMARK    2  A    between atoms: C_1  and  C_20
REMARK    3  A    between atoms: C_20  and  N_22
REMARK    4  A    between atoms: C_23  and  C_25
REMARK    5  A    between atoms: C_30  and  O_31
REMARK    6  A    between atoms: O_31  and  C_32
REMARK                            x       y       z     vdW  Elec       q    Type
REMARK                         _______ _______ _______ _____ _____    ______ ____
ROOT
ATOM      1  C   UNL     1      35.665 -18.177 -21.546  0.00  0.00    +0.066 C 
ATOM      2  C   UNL     1      37.014 -18.595 -22.181  0.00  0.00    +0.009 C 
ATOM      3  C   UNL     1      35.922 -16.836 -20.815  0.00  0.00    +0.009 C 
ENDROOT
BRANCH   1   8
ATOM      4  N   UNL     1      36.073 -19.757 -19.701  0.00  0.00    -0.347 NA
ATOM      5  N   UNL     1      36.579 -21.191 -17.954  0.00  0.00    -0.266 NA
ATOM      6  N   UNL     1      34.973 -22.786 -17.131  0.00  0.00    -0.316 NA
ATOM      7  N   UNL     1      37.110 -22.638 -16.183  0.00  0.00    -0.283 N 
ATOM      8  C   UNL     1      35.184 -19.310 -20.619  0.00  0.00    +0.122 C 
ATOM      9  C   UNL     1      33.905 -19.805 -20.765  0.00  0.00    +0.026 C 
ATOM     10  C   UNL     1      33.522 -20.823 -19.908  0.00  0.00    +0.001 C 
ATOM     11  C   UNL     1      35.710 -20.741 -18.867  0.00  0.00    +0.137 C 
ATOM     12  C   UNL     1      34.429 -21.298 -18.950  0.00  0.00    +0.199 C 
ATOM     13  C   UNL     1      34.117 -22.319 -18.054  0.00  0.00    +0.187 C 
ATOM     14  C   UNL     1      36.171 -22.184 -17.136  0.00  0.00    +0.207 C 
ATOM     15  H   UNL     1      38.006 -22.232 -16.144  0.00  0.00    +0.156 HD
ATOM     16  H   UNL     1      36.868 -23.361 -15.560  0.00  0.00    +0.156 HD
ATOM     17  N   UNL     1      32.832 -22.915 -18.098  0.00  0.00    -0.334 N 
ATOM     18  H   UNL     1      32.604 -23.637 -17.468  0.00  0.00    +0.144 HD
ATOM     19  H   UNL     1      32.169 -22.608 -18.757  0.00  0.00    +0.144 HD
ENDBRANCH   1   8
BRANCH   1  20
ATOM     20  C   UNL     1      34.646 -17.927 -22.693  0.00  0.00    +0.096 C 
BRANCH  20  22
ATOM     21  O   UNL     1      34.664 -16.571 -25.223  0.00  0.00    -0.270 OA
ATOM     22  N   UNL     1      34.359 -16.534 -22.924  0.00  0.00    -0.300 N 
ATOM     23  C   UNL     1      34.393 -15.965 -24.190  0.00  0.00    +0.246 C 
ATOM     24  H   UNL     1      34.131 -15.964 -22.154  0.00  0.00    +0.150 HD
BRANCH  23  25
ATOM     25  C   UNL     1      34.100 -14.509 -24.257  0.00  0.00    +0.054 C 
ATOM     26  C   UNL     1      34.438 -13.680 -23.189  0.00  0.00    +0.008 C 
ATOM     27  C   UNL     1      33.485 -13.974 -25.390  0.00  0.00    +0.008 C 
ATOM     28  C   UNL     1      34.161 -12.314 -23.252  0.00  0.00    +0.038 C 
ATOM     29  C   UNL     1      33.209 -12.609 -25.453  0.00  0.00    +0.038 C 
ATOM     30  C   UNL     1      33.546 -11.779 -24.384  0.00  0.00    +0.145 C 
BRANCH  30  31
ATOM     31  O   UNL     1      33.274 -10.447 -24.445  0.00  0.00    -0.453 OA
BRANCH  31  32
ATOM     32  C   UNL     1      33.035  -9.783 -23.253  0.00  0.00    +0.145 C 
ATOM     33  C   UNL     1      32.157 -10.328 -22.316  0.00  0.00    +0.037 C 
ATOM     34  C   UNL     1      33.670  -8.569 -22.991  0.00  0.00    +0.037 C 
ATOM     35  C   UNL     1      31.914  -9.660 -21.116  0.00  0.00    +0.003 C 
ATOM     36  C   UNL     1      33.428  -7.901 -21.790  0.00  0.00    +0.003 C 
ATOM     37  C   UNL     1      32.550  -8.446 -20.854  0.00  0.00    +0.000 C 
ENDBRANCH  31  32
ENDBRANCH  30  31
ENDBRANCH  23  25
ENDBRANCH  20  22
ENDBRANCH   1  20
TORSDOF 6
ENDMDL
MODEL 8
REMARK VINA RESULT:     -11.4      9.019     13.937
REMARK  Name = 25023705
REMARK  6 active torsions:
REMARK  status: ('A' for Active; 'I' for Inactive)
REMARK    1  A    between atoms: C_1  and  C_8
REMARK    2  A    between atoms: C_1  and  C_20
REMARK    3  A    between atoms: C_20  and  N_22
REMARK    4  A    between atoms: C_23  and  C_25
REMARK    5  A    between atoms: C_30  and  O_31
REMARK    6  A    between atoms: O_31  and  C_32
REMARK                            x       y       z     vdW  Elec       q    Type
REMARK                         _______ _______ _______ _____ _____    ______ ____
ROOT
ATOM      1  C   UNL     1      32.011 -11.127 -21.051  0.00  0.00    +0.066 C 
ATOM      2  C   UNL     1      30.499 -11.458 -21.016  0.00  0.00    +0.009 C 
ATOM      3  C   UNL     1      32.618 -11.712 -19.753  0.00  0.00    +0.009 C 
ENDROOT
BRANCH   1   8
ATOM      4  N   UNL     1      32.746  -9.156 -22.334  0.00  0.00    -0.347 NA
ATOM      5  N   UNL     1      33.476  -7.386 -23.636  0.00  0.00    -0.266 NA
ATOM      6  N   UNL     1      33.283  -5.107 -22.884  0.00  0.00    -0.316 NA
ATOM      7  N   UNL     1      34.222  -5.605 -24.970  0.00  0.00    -0.283 N 
ATOM      8  C   UNL     1      32.179  -9.601 -21.186  0.00  0.00    +0.122 C 
ATOM      9  C   UNL     1      31.757  -8.781 -20.162  0.00  0.00    +0.026 C 
ATOM     10  C   UNL     1      31.931  -7.418 -20.333  0.00  0.00    +0.001 C 
ATOM     11  C   UNL     1      32.917  -7.839 -22.507  0.00  0.00    +0.137 C 
ATOM     12  C   UNL     1      32.516  -6.939 -21.513  0.00  0.00    +0.199 C 
ATOM     13  C   UNL     1      32.725  -5.583 -21.758  0.00  0.00    +0.187 C 
ATOM     14  C   UNL     1      33.630  -6.052 -23.769  0.00  0.00    +0.207 C 
ATOM     15  H   UNL     1      34.497  -6.256 -25.655  0.00  0.00    +0.156 HD
ATOM     16  H   UNL     1      34.359  -4.642 -25.122  0.00  0.00    +0.156 HD
ATOM     17  N   UNL     1      32.335  -4.632 -20.783  0.00  0.00    -0.334 N 
ATOM     18  H   UNL     1      32.479  -3.671 -20.948  0.00  0.00    +0.144 HD
ATOM     19  H   UNL     1      31.922  -4.930 -19.941  0.00  0.00    +0.144 HD
ENDBRANCH   1   8
BRANCH   1  20
ATOM     20  C   UNL     1      32.641 -11.864 -22.267  0.00  0.00    +0.096 C 
BRANCH  20  22
ATOM     21  O   UNL     1      33.932 -13.680 -24.076  0.00  0.00    -0.270 OA
ATOM     22  N   UNL     1      33.288 -13.104 -21.924  0.00  0.00    -0.300 N 
ATOM     23  C   UNL     1      33.889 -13.921 -22.873  0.00  0.00    +0.246 C 
ATOM     24  H   UNL     1      33.306 -13.383 -20.980  0.00  0.00    +0.150 HD
BRANCH  23  25
ATOM     25  C   UNL     1      34.490 -15.180 -22.362  0.00  0.00    +0.054 C 
ATOM     26  C   UNL     1      34.844 -16.194 -23.250  0.00  0.00    +0.008 C 
ATOM     27  C   UNL     1      34.699 -15.346 -20.992  0.00  0.00    +0.008 C 
ATOM     28  C   UNL     1      35.408 -17.376 -22.769  0.00  0.00    +0.038 C 
ATOM     29  C   UNL     1      35.263 -16.528 -20.512  0.00  0.00    +0.038 C 
ATOM     30  C   UNL     1      35.616 -17.543 -21.400  0.00  0.00    +0.145 C 
BRANCH  30  31
ATOM     31  O   UNL     1      36.164 -18.697 -20.931  0.00  0.00    -0.453 OA
BRANCH  31  32
ATOM     32  C   UNL     1      35.316 -19.618 -20.339  0.00  0.00    +0.145 C 
ATOM     33  C   UNL     1      35.839 -20.632 -19.536  0.00  0.00    +0.037 C 
ATOM     34  C   UNL     1      33.939 -19.533 -20.546  0.00  0.00    +0.037 C 
ATOM     35  C   UNL     1      34.985 -21.561 -18.940  0.00  0.00    +0.003 C 
ATOM     36  C   UNL     1      33.085 -20.462 -19.951  0.00  0.00    +0.003 C 
ATOM     37  C   UNL     1      33.608 -21.475 -19.148  0.00  0.00    +0.000 C 
ENDBRANCH  31  32
ENDBRANCH  30  31
ENDBRANCH  23  25
ENDBRANCH  20  22
ENDBRANCH   1  20
TORSDOF 6
ENDMDL
MODEL 9
REMARK VINA RESULT:     -11.4      2.919      5.188
REMARK  Name = 25023705
REMARK  6 active torsions:
REMARK  status: ('A' for Active; 'I' for Inactive)
REMARK    1  A    between atoms: C_1  and  C_8
REMARK    2  A    between atoms: C_1  and  C_20
REMARK    3  A    between atoms: C_20  and  N_22
REMARK    4  A    between atoms: C_23  and  C_25
REMARK    5  A    between atoms: C_30  and  O_31
REMARK    6  A    between atoms: O_31  and  C_32
REMARK                            x       y       z     vdW  Elec       q    Type
REMARK                         _______ _______ _______ _____ _____    ______ ____
ROOT
ATOM      1  C   UNL     1      34.530 -22.035 -18.784  0.00  0.00    +0.066 C 
ATOM      2  C   UNL     1      33.247 -21.192 -18.984  0.00  0.00    +0.009 C 
ATOM      3  C   UNL     1      34.403 -23.257 -19.727  0.00  0.00    +0.009 C 
ENDROOT
BRANCH   1   8
ATOM      4  N   UNL     1      33.564 -22.987 -16.728  0.00  0.00    -0.347 NA
ATOM      5  N   UNL     1      32.546 -23.908 -14.863  0.00  0.00    -0.266 NA
ATOM      6  N   UNL     1      33.688 -24.054 -12.749  0.00  0.00    -0.316 NA
ATOM      7  N   UNL     1      31.496 -24.844 -12.984  0.00  0.00    -0.283 N 
ATOM      8  C   UNL     1      34.650 -22.406 -17.293  0.00  0.00    +0.122 C 
ATOM      9  C   UNL     1      35.823 -22.137 -16.622  0.00  0.00    +0.026 C 
ATOM     10  C   UNL     1      35.879 -22.490 -15.284  0.00  0.00    +0.001 C 
ATOM     11  C   UNL     1      33.611 -23.333 -15.434  0.00  0.00    +0.137 C 
ATOM     12  C   UNL     1      34.766 -23.093 -14.681  0.00  0.00    +0.199 C 
ATOM     13  C   UNL     1      34.746 -23.475 -13.342  0.00  0.00    +0.187 C 
ATOM     14  C   UNL     1      32.635 -24.238 -13.558  0.00  0.00    +0.207 C 
ATOM     15  H   UNL     1      30.694 -25.002 -13.533  0.00  0.00    +0.156 HD
ATOM     16  H   UNL     1      31.504 -25.106 -12.035  0.00  0.00    +0.156 HD
ATOM     17  N   UNL     1      35.891 -23.255 -12.537  0.00  0.00    -0.334 N 
ATOM     18  H   UNL     1      35.885 -23.522 -11.589  0.00  0.00    +0.144 HD
ATOM     19  H   UNL     1      36.691 -22.833 -12.925  0.00  0.00    +0.144 HD
ENDBRANCH   1   8
BRANCH   1  20
ATOM     20  C   UNL     1      35.747 -21.182 -19.243  0.00  0.00    +0.096 C 
BRANCH  20  22
ATOM     21  O   UNL     1      37.541 -19.205 -20.298  0.00  0.00    -0.270 OA
ATOM     22  N   UNL     1      35.382 -19.965 -19.921  0.00  0.00    -0.300 N 
ATOM     23  C   UNL     1      36.325 -19.064 -20.400  0.00  0.00    +0.246 C 
ATOM     24  H   UNL     1      34.427 -19.764 -20.051  0.00  0.00    +0.150 HD
BRANCH  23  25
ATOM     25  C   UNL     1      35.787 -17.843 -21.053  0.00  0.00    +0.054 C 
ATOM     26  C   UNL     1      35.436 -16.737 -20.281  0.00  0.00    +0.008 C 
ATOM     27  C   UNL     1      35.632 -17.806 -22.439  0.00  0.00    +0.008 C 
ATOM     28  C   UNL     1      34.929 -15.591 -20.895  0.00  0.00    +0.038 C 
ATOM     29  C   UNL     1      35.126 -16.659 -23.053  0.00  0.00    +0.038 C 
ATOM     30  C   UNL     1      34.774 -15.553 -22.280  0.00  0.00    +0.145 C 
BRANCH  30  31
ATOM     31  O   UNL     1      34.278 -14.436 -22.879  0.00  0.00    -0.453 OA
BRANCH  31  32
ATOM     32  C   UNL     1      33.480 -13.598 -22.118  0.00  0.00    +0.145 C 
ATOM     33  C   UNL     1      32.976 -14.038 -20.894  0.00  0.00    +0.037 C 
ATOM     34  C   UNL     1      33.179 -12.315 -22.576  0.00  0.00    +0.037 C 
ATOM     35  C   UNL     1      32.171 -13.195 -20.128  0.00  0.00    +0.003 C 
ATOM     36  C   UNL     1      32.374 -11.472 -21.809  0.00  0.00    +0.003 C 
ATOM     37  C   UNL     1      31.870 -11.912 -20.586  0.00  0.00    +0.000 C 
ENDBRANCH  31  32
ENDBRANCH  30  31
ENDBRANCH  23  25
ENDBRANCH  20  22
ENDBRANCH   1  20
TORSDOF 6
ENDMDL
