MODEL 1
REMARK VINA RESULT:     -11.4      0.000      0.000
REMARK  Name = 24180720
REMARK  6 active torsions:
REMARK  status: ('A' for Active; 'I' for Inactive)
REMARK    1  A    between atoms: C_2  and  C_6
REMARK    2  A    between atoms: C_2  and  C_21
REMARK    3  A    between atoms: C_10  and  C_14
REMARK    4  A    between atoms: C_22  and  N_27
REMARK    5  A    between atoms: N_27  and  S_29
REMARK    6  A    between atoms: S_29  and  C_32
REMARK                            x       y       z     vdW  Elec       q    Type
REMARK                         _______ _______ _______ _____ _____    ______ ____
ROOT
ATOM      1  O   UNL     1      33.830 -24.036 -19.101  0.00  0.00    -0.286 OA
ATOM      2  C   UNL     1      33.872 -23.053 -18.338  0.00  0.00    +0.201 C 
ENDROOT
BRANCH   2   6
ATOM      3  N   UNL     1      31.554 -22.629 -15.606  0.00  0.00    -0.297 N 
ATOM      4  N   UNL     1      32.621 -23.361 -13.574  0.00  0.00    -0.229 NA
ATOM      5  C   UNL     1      33.647 -23.383 -15.800  0.00  0.00    +0.036 C 
ATOM      6  C   UNL     1      33.177 -22.997 -17.083  0.00  0.00    +0.056 C 
ATOM      7  C   UNL     1      32.612 -23.140 -14.902  0.00  0.00    +0.132 C 
ATOM      8  C   UNL     1      34.840 -23.916 -15.285  0.00  0.00    +0.005 C 
ATOM      9  C   UNL     1      31.886 -22.536 -16.933  0.00  0.00    +0.066 C 
ATOM     10  C   UNL     1      34.902 -24.163 -13.915  0.00  0.00    +0.021 C 
ATOM     11  C   UNL     1      33.793 -23.873 -13.132  0.00  0.00    +0.100 C 
ATOM     12  H   UNL     1      30.689 -22.366 -15.218  0.00  0.00    +0.154 HD
BRANCH  10  14
ATOM     13  N   UNL     1      37.237 -25.540 -11.355  0.00  0.00    -0.242 NA
ATOM     14  C   UNL     1      36.100 -24.710 -13.320  0.00  0.00    +0.021 C 
ATOM     15  C   UNL     1      37.242 -24.931 -14.084  0.00  0.00    +0.003 C 
ATOM     16  C   UNL     1      36.150 -25.028 -11.973  0.00  0.00    +0.099 C 
ATOM     17  C   UNL     1      38.381 -25.457 -13.483  0.00  0.00    +0.021 C 
ATOM     18  C   UNL     1      38.328 -25.742 -12.129  0.00  0.00    +0.099 C 
ENDBRANCH  10  14
ENDBRANCH   2   6
BRANCH   2  21
ATOM     19  F   UNL     1      32.933 -21.203 -20.244  0.00  0.00    -0.203 F 
ATOM     20  F   UNL     1      36.495 -22.547 -17.410  0.00  0.00    -0.204 F 
ATOM     21  C   UNL     1      34.693 -21.899 -18.817  0.00  0.00    +0.095 C 
ATOM     22  C   UNL     1      34.939 -19.941 -20.211  0.00  0.00    +0.092 C 
ATOM     23  C   UNL     1      34.172 -21.017 -19.764  0.00  0.00    +0.160 C 
ATOM     24  C   UNL     1      35.982 -21.706 -18.319  0.00  0.00    +0.145 C 
ATOM     25  C   UNL     1      36.227 -19.748 -19.712  0.00  0.00    +0.020 C 
ATOM     26  C   UNL     1      36.749 -20.630 -18.766  0.00  0.00    +0.031 C 
BRANCH  22  27
ATOM     27  N   UNL     1      34.408 -19.037 -21.180  0.00  0.00    -0.217 N 
ATOM     28  H   UNL     1      33.471 -19.107 -21.477  0.00  0.00    +0.173 HD
BRANCH  27  29
ATOM     29  S   UNL     1      35.449 -17.822 -21.815  0.00  0.00    +0.054 S 
ATOM     30  O   UNL     1      35.337 -16.640 -20.980  0.00  0.00    -0.154 OA
ATOM     31  O   UNL     1      36.750 -18.373 -22.141  0.00  0.00    -0.154 OA
BRANCH  29  32
ATOM     32  C   UNL     1      34.611 -17.457 -23.342  0.00  0.00    +0.172 C 
ATOM     33  C   UNL     1      34.075 -18.712 -23.993  0.00  0.00    +0.029 C 
ENDBRANCH  29  32
ENDBRANCH  27  29
ENDBRANCH  22  27
ENDBRANCH   2  21
TORSDOF 6
ENDMDL
MODEL 2
REMARK VINA RESULT:     -11.4      6.596     10.960
REMARK  Name = 24180720
REMARK  6 active torsions:
REMARK  status: ('A' for Active; 'I' for Inactive)
REMARK    1  A    between atoms: C_2  and  C_6
REMARK    2  A    between atoms: C_2  and  C_21
REMARK    3  A    between atoms: C_10  and  C_14
REMARK    4  A    between atoms: C_22  and  N_27
REMARK    5  A    between atoms: N_27  and  S_29
REMARK    6  A    between atoms: S_29  and  C_32
REMARK                            x       y       z     vdW  Elec       q    Type
REMARK                         _______ _______ _______ _____ _____    ______ ____
ROOT
ATOM      1  O   UNL     1      35.182 -13.087 -21.562  0.00  0.00    -0.286 OA
ATOM      2  C   UNL     1      34.169 -13.181 -22.280  0.00  0.00    +0.201 C 
ENDROOT
BRANCH   2   6
ATOM      3  N   UNL     1      33.462 -15.186 -25.193  0.00  0.00    -0.297 N 
ATOM      4  N   UNL     1      34.050 -17.472 -24.714  0.00  0.00    -0.229 NA
ATOM      5  C   UNL     1      34.283 -15.593 -23.157  0.00  0.00    +0.036 C 
ATOM      6  C   UNL     1      33.991 -14.207 -23.267  0.00  0.00    +0.056 C 
ATOM      7  C   UNL     1      33.940 -16.174 -24.374  0.00  0.00    +0.132 C 
ATOM      8  C   UNL     1      34.801 -16.435 -22.161  0.00  0.00    +0.005 C 
ATOM      9  C   UNL     1      33.488 -13.986 -24.531  0.00  0.00    +0.066 C 
ATOM     10  C   UNL     1      34.936 -17.789 -22.460  0.00  0.00    +0.021 C 
ATOM     11  C   UNL     1      34.555 -18.237 -23.718  0.00  0.00    +0.100 C 
ATOM     12  H   UNL     1      33.146 -15.318 -26.116  0.00  0.00    +0.154 HD
BRANCH  10  14
ATOM     13  N   UNL     1      37.292 -19.379 -20.048  0.00  0.00    -0.242 NA
ATOM     14  C   UNL     1      35.462 -18.710 -21.479  0.00  0.00    +0.021 C 
ATOM     15  C   UNL     1      34.703 -19.783 -21.022  0.00  0.00    +0.003 C 
ATOM     16  C   UNL     1      36.740 -18.555 -20.965  0.00  0.00    +0.099 C 
ATOM     17  C   UNL     1      35.239 -20.654 -20.079  0.00  0.00    +0.021 C 
ATOM     18  C   UNL     1      36.525 -20.411 -19.628  0.00  0.00    +0.099 C 
ENDBRANCH  10  14
ENDBRANCH   2   6
BRANCH   2  21
ATOM     19  F   UNL     1      34.228 -10.682 -23.578  0.00  0.00    -0.203 F 
ATOM     20  F   UNL     1      31.976 -13.538 -20.530  0.00  0.00    -0.204 F 
ATOM     21  C   UNL     1      33.126 -12.132 -22.061  0.00  0.00    +0.095 C 
ATOM     22  C   UNL     1      32.238  -9.934 -22.530  0.00  0.00    +0.092 C 
ATOM     23  C   UNL     1      33.211 -10.913 -22.734  0.00  0.00    +0.160 C 
ATOM     24  C   UNL     1      32.069 -12.372 -21.184  0.00  0.00    +0.145 C 
ATOM     25  C   UNL     1      31.181 -10.175 -21.652  0.00  0.00    +0.020 C 
ATOM     26  C   UNL     1      31.096 -11.393 -20.979  0.00  0.00    +0.031 C 
BRANCH  22  27
ATOM     27  N   UNL     1      32.323  -8.686 -23.217  0.00  0.00    -0.217 N 
ATOM     28  H   UNL     1      32.074  -8.614 -24.168  0.00  0.00    +0.173 HD
BRANCH  27  29
ATOM     29  S   UNL     1      32.872  -7.310 -22.340  0.00  0.00    +0.054 S 
ATOM     30  O   UNL     1      33.364  -7.756 -21.049  0.00  0.00    -0.154 OA
ATOM     31  O   UNL     1      33.681  -6.449 -23.179  0.00  0.00    -0.154 OA
BRANCH  29  32
ATOM     32  C   UNL     1      31.323  -6.487 -22.045  0.00  0.00    +0.172 C 
ATOM     33  C   UNL     1      31.526  -5.148 -21.371  0.00  0.00    +0.029 C 
ENDBRANCH  29  32
ENDBRANCH  27  29
ENDBRANCH  22  27
ENDBRANCH   2  21
TORSDOF 6
ENDMDL
MODEL 3
REMARK VINA RESULT:     -11.3      7.259     13.391
REMARK  Name = 24180720
REMARK  6 active torsions:
REMARK  status: ('A' for Active; 'I' for Inactive)
REMARK    1  A    between atoms: C_2  and  C_6
REMARK    2  A    between atoms: C_2  and  C_21
REMARK    3  A    between atoms: C_10  and  C_14
REMARK    4  A    between atoms: C_22  and  N_27
REMARK    5  A    between atoms: N_27  and  S_29
REMARK    6  A    between atoms: S_29  and  C_32
REMARK                            x       y       z     vdW  Elec       q    Type
REMARK                         _______ _______ _______ _____ _____    ______ ____
ROOT
ATOM      1  O   UNL     1      34.296 -11.912 -23.988  0.00  0.00    -0.286 OA
ATOM      2  C   UNL     1      33.732 -12.772 -23.285  0.00  0.00    +0.201 C 
ENDROOT
BRANCH   2   6
ATOM      3  N   UNL     1      31.633 -12.727 -20.353  0.00  0.00    -0.297 N 
ATOM      4  N   UNL     1      31.072 -10.439 -19.845  0.00  0.00    -0.229 NA
ATOM      5  C   UNL     1      32.474 -11.172 -21.718  0.00  0.00    +0.036 C 
ATOM      6  C   UNL     1      32.900 -12.453 -22.161  0.00  0.00    +0.056 C 
ATOM      7  C   UNL     1      31.685 -11.378 -20.590  0.00  0.00    +0.132 C 
ATOM      8  C   UNL     1      32.663  -9.847 -22.142  0.00  0.00    +0.005 C 
ATOM      9  C   UNL     1      32.367 -13.390 -21.301  0.00  0.00    +0.066 C 
ATOM     10  C   UNL     1      32.049  -8.836 -21.406  0.00  0.00    +0.021 C 
ATOM     11  C   UNL     1      31.288  -9.183 -20.298  0.00  0.00    +0.100 C 
ATOM     12  H   UNL     1      31.141 -13.154 -19.615  0.00  0.00    +0.154 HD
BRANCH  10  14
ATOM     13  N   UNL     1      31.415  -5.170 -21.653  0.00  0.00    -0.242 NA
ATOM     14  C   UNL     1      32.204  -7.451 -21.789  0.00  0.00    +0.021 C 
ATOM     15  C   UNL     1      33.236  -7.051 -22.632  0.00  0.00    +0.003 C 
ATOM     16  C   UNL     1      31.328  -6.480 -21.332  0.00  0.00    +0.099 C 
ATOM     17  C   UNL     1      33.357  -5.712 -22.986  0.00  0.00    +0.021 C 
ATOM     18  C   UNL     1      32.430  -4.819 -22.474  0.00  0.00    +0.099 C 
ENDBRANCH  10  14
ENDBRANCH   2   6
BRANCH   2  21
ATOM     19  F   UNL     1      35.489 -14.453 -21.863  0.00  0.00    -0.203 F 
ATOM     20  F   UNL     1      32.493 -13.993 -25.516  0.00  0.00    -0.204 F 
ATOM     21  C   UNL     1      33.987 -14.192 -23.678  0.00  0.00    +0.095 C 
ATOM     22  C   UNL     1      35.106 -16.299 -23.300  0.00  0.00    +0.092 C 
ATOM     23  C   UNL     1      34.869 -14.975 -22.933  0.00  0.00    +0.160 C 
ATOM     24  C   UNL     1      33.342 -14.734 -24.790  0.00  0.00    +0.145 C 
ATOM     25  C   UNL     1      34.462 -16.841 -24.412  0.00  0.00    +0.020 C 
ATOM     26  C   UNL     1      33.580 -16.059 -25.157  0.00  0.00    +0.031 C 
BRANCH  22  27
ATOM     27  N   UNL     1      36.009 -17.102 -22.539  0.00  0.00    -0.217 N 
ATOM     28  H   UNL     1      36.957 -17.180 -22.797  0.00  0.00    +0.173 HD
BRANCH  27  29
ATOM     29  S   UNL     1      35.397 -17.930 -21.159  0.00  0.00    +0.054 S 
ATOM     30  O   UNL     1      35.135 -16.953 -20.117  0.00  0.00    -0.154 OA
ATOM     31  O   UNL     1      34.381 -18.891 -21.540  0.00  0.00    -0.154 OA
BRANCH  29  32
ATOM     32  C   UNL     1      36.848 -18.833 -20.665  0.00  0.00    +0.172 C 
ATOM     33  C   UNL     1      36.487 -20.076 -19.883  0.00  0.00    +0.029 C 
ENDBRANCH  29  32
ENDBRANCH  27  29
ENDBRANCH  22  27
ENDBRANCH   2  21
TORSDOF 6
ENDMDL
MODEL 4
REMARK VINA RESULT:     -10.8      3.755      8.641
REMARK  Name = 24180720
REMARK  6 active torsions:
REMARK  status: ('A' for Active; 'I' for Inactive)
REMARK    1  A    between atoms: C_2  and  C_6
REMARK    2  A    between atoms: C_2  and  C_21
REMARK    3  A    between atoms: C_10  and  C_14
REMARK    4  A    between atoms: C_22  and  N_27
REMARK    5  A    between atoms: N_27  and  S_29
REMARK    6  A    between atoms: S_29  and  C_32
REMARK                            x       y       z     vdW  Elec       q    Type
REMARK                         _______ _______ _______ _____ _____    ______ ____
ROOT
ATOM      1  O   UNL     1      33.717 -23.499 -19.081  0.00  0.00    -0.286 OA
ATOM      2  C   UNL     1      34.085 -22.845 -18.088  0.00  0.00    +0.201 C 
ENDROOT
BRANCH   2   6
ATOM      3  N   UNL     1      37.120 -21.000 -17.460  0.00  0.00    -0.297 N 
ATOM      4  N   UNL     1      37.414 -19.384 -19.223  0.00  0.00    -0.229 NA
ATOM      5  C   UNL     1      35.547 -20.963 -19.046  0.00  0.00    +0.036 C 
ATOM      6  C   UNL     1      35.218 -21.965 -18.094  0.00  0.00    +0.056 C 
ATOM      7  C   UNL     1      36.738 -20.380 -18.621  0.00  0.00    +0.132 C 
ATOM      8  C   UNL     1      34.974 -20.474 -20.230  0.00  0.00    +0.005 C 
ATOM      9  C   UNL     1      36.204 -21.965 -17.130  0.00  0.00    +0.066 C 
ATOM     10  C   UNL     1      35.635 -19.442 -20.894  0.00  0.00    +0.021 C 
ATOM     11  C   UNL     1      36.817 -18.952 -20.358  0.00  0.00    +0.100 C 
ATOM     12  H   UNL     1      37.928 -20.784 -16.942  0.00  0.00    +0.154 HD
BRANCH  10  14
ATOM     13  N   UNL     1      34.594 -16.949 -23.463  0.00  0.00    -0.242 NA
ATOM     14  C   UNL     1      35.097 -18.893 -22.118  0.00  0.00    +0.021 C 
ATOM     15  C   UNL     1      34.575 -19.722 -23.106  0.00  0.00    +0.003 C 
ATOM     16  C   UNL     1      35.083 -17.527 -22.343  0.00  0.00    +0.099 C 
ATOM     17  C   UNL     1      34.062 -19.164 -24.273  0.00  0.00    +0.021 C 
ATOM     18  C   UNL     1      34.095 -17.785 -24.401  0.00  0.00    +0.099 C 
ENDBRANCH  10  14
ENDBRANCH   2   6
BRANCH   2  21
ATOM     19  F   UNL     1      31.439 -21.907 -17.843  0.00  0.00    -0.203 F 
ATOM     20  F   UNL     1      35.065 -24.186 -15.799  0.00  0.00    -0.204 F 
ATOM     21  C   UNL     1      33.268 -23.041 -16.850  0.00  0.00    +0.095 C 
ATOM     22  C   UNL     1      31.202 -22.735 -15.636  0.00  0.00    +0.092 C 
ATOM     23  C   UNL     1      31.963 -22.553 -16.790  0.00  0.00    +0.160 C 
ATOM     24  C   UNL     1      33.812 -23.713 -15.755  0.00  0.00    +0.145 C 
ATOM     25  C   UNL     1      31.746 -23.407 -14.541  0.00  0.00    +0.020 C 
ATOM     26  C   UNL     1      33.051 -23.895 -14.601  0.00  0.00    +0.031 C 
BRANCH  22  27
ATOM     27  N   UNL     1      29.866 -22.236 -15.572  0.00  0.00    -0.217 N 
ATOM     28  H   UNL     1      29.689 -21.294 -15.342  0.00  0.00    +0.173 HD
BRANCH  27  29
ATOM     29  S   UNL     1      28.574 -23.322 -15.909  0.00  0.00    +0.054 S 
ATOM     30  O   UNL     1      28.422 -23.422 -17.349  0.00  0.00    -0.154 OA
ATOM     31  O   UNL     1      28.677 -24.517 -15.095  0.00  0.00    -0.154 OA
BRANCH  29  32
ATOM     32  C   UNL     1      27.197 -22.369 -15.309  0.00  0.00    +0.172 C 
ATOM     33  C   UNL     1      26.393 -21.780 -16.446  0.00  0.00    +0.029 C 
ENDBRANCH  29  32
ENDBRANCH  27  29
ENDBRANCH  22  27
ENDBRANCH   2  21
TORSDOF 6
ENDMDL
MODEL 5
REMARK VINA RESULT:     -10.8      3.172      9.046
REMARK  Name = 24180720
REMARK  6 active torsions:
REMARK  status: ('A' for Active; 'I' for Inactive)
REMARK    1  A    between atoms: C_2  and  C_6
REMARK    2  A    between atoms: C_2  and  C_21
REMARK    3  A    between atoms: C_10  and  C_14
REMARK    4  A    between atoms: C_22  and  N_27
REMARK    5  A    between atoms: N_27  and  S_29
REMARK    6  A    between atoms: S_29  and  C_32
REMARK                            x       y       z     vdW  Elec       q    Type
REMARK                         _______ _______ _______ _____ _____    ______ ____
ROOT
ATOM      1  O   UNL     1      33.800 -23.443 -19.117  0.00  0.00    -0.286 OA
ATOM      2  C   UNL     1      34.192 -22.813 -18.117  0.00  0.00    +0.201 C 
ENDROOT
BRANCH   2   6
ATOM      3  N   UNL     1      37.195 -20.903 -17.526  0.00  0.00    -0.297 N 
ATOM      4  N   UNL     1      37.442 -19.292 -19.300  0.00  0.00    -0.229 NA
ATOM      5  C   UNL     1      35.608 -20.908 -19.098  0.00  0.00    +0.036 C 
ATOM      6  C   UNL     1      35.307 -21.910 -18.139  0.00  0.00    +0.056 C 
ATOM      7  C   UNL     1      36.790 -20.298 -18.687  0.00  0.00    +0.132 C 
ATOM      8  C   UNL     1      35.015 -20.437 -20.280  0.00  0.00    +0.005 C 
ATOM      9  C   UNL     1      36.301 -21.885 -17.183  0.00  0.00    +0.066 C 
ATOM     10  C   UNL     1      35.649 -19.395 -20.955  0.00  0.00    +0.021 C 
ATOM     11  C   UNL     1      36.827 -18.879 -20.432  0.00  0.00    +0.100 C 
ATOM     12  H   UNL     1      38.003 -20.668 -17.016  0.00  0.00    +0.154 HD
BRANCH  10  14
ATOM     13  N   UNL     1      34.537 -16.938 -23.529  0.00  0.00    -0.242 NA
ATOM     14  C   UNL     1      35.091 -18.864 -22.178  0.00  0.00    +0.021 C 
ATOM     15  C   UNL     1      34.577 -19.708 -23.157  0.00  0.00    +0.003 C 
ATOM     16  C   UNL     1      35.046 -17.499 -22.410  0.00  0.00    +0.099 C 
ATOM     17  C   UNL     1      34.043 -19.168 -24.322  0.00  0.00    +0.021 C 
ATOM     18  C   UNL     1      34.047 -17.789 -24.458  0.00  0.00    +0.099 C 
ENDBRANCH  10  14
ENDBRANCH   2   6
BRANCH   2  21
ATOM     19  F   UNL     1      35.227 -24.334 -15.984  0.00  0.00    -0.203 F 
ATOM     20  F   UNL     1      31.587 -21.802 -17.677  0.00  0.00    -0.204 F 
ATOM     21  C   UNL     1      33.427 -23.063 -16.857  0.00  0.00    +0.095 C 
ATOM     22  C   UNL     1      33.280 -24.060 -14.661  0.00  0.00    +0.092 C 
ATOM     23  C   UNL     1      33.994 -23.826 -15.836  0.00  0.00    +0.160 C 
ATOM     24  C   UNL     1      32.145 -22.536 -16.703  0.00  0.00    +0.145 C 
ATOM     25  C   UNL     1      31.998 -23.532 -14.507  0.00  0.00    +0.020 C 
ATOM     26  C   UNL     1      31.431 -22.770 -15.528  0.00  0.00    +0.031 C 
BRANCH  22  27
ATOM     27  N   UNL     1      33.859 -24.840 -13.615  0.00  0.00    -0.217 N 
ATOM     28  H   UNL     1      33.534 -25.751 -13.424  0.00  0.00    +0.173 HD
BRANCH  27  29
ATOM     29  S   UNL     1      35.140 -24.148 -12.697  0.00  0.00    +0.054 S 
ATOM     30  O   UNL     1      35.491 -22.870 -13.290  0.00  0.00    -0.154 OA
ATOM     31  O   UNL     1      34.874 -24.252 -11.275  0.00  0.00    -0.154 OA
BRANCH  29  32
ATOM     32  C   UNL     1      36.456 -25.278 -13.091  0.00  0.00    +0.172 C 
ATOM     33  C   UNL     1      37.164 -25.761 -11.844  0.00  0.00    +0.029 C 
ENDBRANCH  29  32
ENDBRANCH  27  29
ENDBRANCH  22  27
ENDBRANCH   2  21
TORSDOF 6
ENDMDL
MODEL 6
REMARK VINA RESULT:     -10.6      2.372      5.055
REMARK  Name = 24180720
REMARK  6 active torsions:
REMARK  status: ('A' for Active; 'I' for Inactive)
REMARK    1  A    between atoms: C_2  and  C_6
REMARK    2  A    between atoms: C_2  and  C_21
REMARK    3  A    between atoms: C_10  and  C_14
REMARK    4  A    between atoms: C_22  and  N_27
REMARK    5  A    between atoms: N_27  and  S_29
REMARK    6  A    between atoms: S_29  and  C_32
REMARK                            x       y       z     vdW  Elec       q    Type
REMARK                         _______ _______ _______ _____ _____    ______ ____
ROOT
ATOM      1  O   UNL     1      33.872 -23.674 -19.188  0.00  0.00    -0.286 OA
ATOM      2  C   UNL     1      34.275 -22.801 -18.396  0.00  0.00    +0.201 C 
ENDROOT
BRANCH   2   6
ATOM      3  N   UNL     1      34.630 -23.056 -14.816  0.00  0.00    -0.297 N 
ATOM      4  N   UNL     1      32.436 -23.015 -13.822  0.00  0.00    -0.229 NA
ATOM      5  C   UNL     1      32.906 -22.878 -16.224  0.00  0.00    +0.036 C 
ATOM      6  C   UNL     1      34.113 -22.888 -16.974  0.00  0.00    +0.056 C 
ATOM      7  C   UNL     1      33.264 -22.985 -14.883  0.00  0.00    +0.132 C 
ATOM      8  C   UNL     1      31.537 -22.790 -16.524  0.00  0.00    +0.005 C 
ATOM      9  C   UNL     1      35.157 -22.999 -16.080  0.00  0.00    +0.066 C 
ATOM     10  C   UNL     1      30.637 -22.817 -15.461  0.00  0.00    +0.021 C 
ATOM     11  C   UNL     1      31.131 -22.927 -14.169  0.00  0.00    +0.100 C 
ATOM     12  H   UNL     1      35.153 -23.138 -13.987  0.00  0.00    +0.154 HD
BRANCH  10  14
ATOM     13  N   UNL     1      27.342 -23.124 -17.179  0.00  0.00    -0.242 NA
ATOM     14  C   UNL     1      29.214 -22.731 -15.701  0.00  0.00    +0.021 C 
ATOM     15  C   UNL     1      28.357 -22.194 -14.746  0.00  0.00    +0.003 C 
ATOM     16  C   UNL     1      28.661 -23.177 -16.890  0.00  0.00    +0.099 C 
ATOM     17  C   UNL     1      26.993 -22.122 -15.007  0.00  0.00    +0.021 C 
ATOM     18  C   UNL     1      26.540 -22.596 -16.227  0.00  0.00    +0.099 C 
ENDBRANCH  10  14
ENDBRANCH   2   6
BRANCH   2  21
ATOM     19  F   UNL     1      32.906 -20.988 -20.063  0.00  0.00    -0.203 F 
ATOM     20  F   UNL     1      37.013 -22.201 -18.015  0.00  0.00    -0.204 F 
ATOM     21  C   UNL     1      34.942 -21.619 -19.026  0.00  0.00    +0.095 C 
ATOM     22  C   UNL     1      34.832 -19.656 -20.429  0.00  0.00    +0.092 C 
ATOM     23  C   UNL     1      34.210 -20.757 -19.842  0.00  0.00    +0.160 C 
ATOM     24  C   UNL     1      36.297 -21.380 -18.797  0.00  0.00    +0.145 C 
ATOM     25  C   UNL     1      36.187 -19.416 -20.200  0.00  0.00    +0.020 C 
ATOM     26  C   UNL     1      36.919 -20.278 -19.384  0.00  0.00    +0.031 C 
BRANCH  22  27
ATOM     27  N   UNL     1      34.085 -18.772 -21.265  0.00  0.00    -0.217 N 
ATOM     28  H   UNL     1      33.418 -18.156 -20.882  0.00  0.00    +0.173 HD
BRANCH  27  29
ATOM     29  S   UNL     1      34.381 -18.813 -22.961  0.00  0.00    +0.054 S 
ATOM     30  O   UNL     1      35.407 -19.805 -23.224  0.00  0.00    -0.154 OA
ATOM     31  O   UNL     1      33.136 -18.825 -23.704  0.00  0.00    -0.154 OA
BRANCH  29  32
ATOM     32  C   UNL     1      35.136 -17.217 -23.186  0.00  0.00    +0.172 C 
ATOM     33  C   UNL     1      35.210 -16.451 -21.884  0.00  0.00    +0.029 C 
ENDBRANCH  29  32
ENDBRANCH  27  29
ENDBRANCH  22  27
ENDBRANCH   2  21
TORSDOF 6
ENDMDL
MODEL 7
REMARK VINA RESULT:      -9.9      1.449      2.215
REMARK  Name = 24180720
REMARK  6 active torsions:
REMARK  status: ('A' for Active; 'I' for Inactive)
REMARK    1  A    between atoms: C_2  and  C_6
REMARK    2  A    between atoms: C_2  and  C_21
REMARK    3  A    between atoms: C_10  and  C_14
REMARK    4  A    between atoms: C_22  and  N_27
REMARK    5  A    between atoms: N_27  and  S_29
REMARK    6  A    between atoms: S_29  and  C_32
REMARK                            x       y       z     vdW  Elec       q    Type
REMARK                         _______ _______ _______ _____ _____    ______ ____
ROOT
ATOM      1  O   UNL     1      33.644 -24.397 -18.292  0.00  0.00    -0.286 OA
ATOM      2  C   UNL     1      33.662 -23.321 -17.666  0.00  0.00    +0.201 C 
ENDROOT
BRANCH   2   6
ATOM      3  N   UNL     1      32.651 -22.840 -14.237  0.00  0.00    -0.297 N 
ATOM      4  N   UNL     1      34.472 -23.490 -12.801  0.00  0.00    -0.229 NA
ATOM      5  C   UNL     1      34.501 -23.571 -15.251  0.00  0.00    +0.036 C 
ATOM      6  C   UNL     1      33.539 -23.233 -16.239  0.00  0.00    +0.056 C 
ATOM      7  C   UNL     1      33.917 -23.314 -14.015  0.00  0.00    +0.132 C 
ATOM      8  C   UNL     1      35.814 -24.070 -15.255  0.00  0.00    +0.005 C 
ATOM      9  C   UNL     1      32.410 -22.786 -15.586  0.00  0.00    +0.066 C 
ATOM     10  C   UNL     1      36.436 -24.271 -14.025  0.00  0.00    +0.021 C 
ATOM     11  C   UNL     1      35.735 -23.972 -12.865  0.00  0.00    +0.100 C 
ATOM     12  H   UNL     1      32.012 -22.577 -13.536  0.00  0.00    +0.154 HD
BRANCH  10  14
ATOM     13  N   UNL     1      39.392 -26.244 -12.896  0.00  0.00    -0.242 NA
ATOM     14  C   UNL     1      37.786 -24.782 -13.959  0.00  0.00    +0.021 C 
ATOM     15  C   UNL     1      38.764 -24.338 -14.843  0.00  0.00    +0.003 C 
ATOM     16  C   UNL     1      38.148 -25.727 -13.013  0.00  0.00    +0.099 C 
ATOM     17  C   UNL     1      40.056 -24.846 -14.753  0.00  0.00    +0.021 C 
ATOM     18  C   UNL     1      40.316 -25.789 -13.772  0.00  0.00    +0.099 C 
ENDBRANCH  10  14
ENDBRANCH   2   6
BRANCH   2  21
ATOM     19  F   UNL     1      36.149 -22.438 -18.653  0.00  0.00    -0.203 F 
ATOM     20  F   UNL     1      31.470 -21.689 -18.392  0.00  0.00    -0.204 F 
ATOM     21  C   UNL     1      33.809 -22.091 -18.505  0.00  0.00    +0.095 C 
ATOM     22  C   UNL     1      35.204 -20.559 -19.746  0.00  0.00    +0.092 C 
ATOM     23  C   UNL     1      35.068 -21.706 -18.964  0.00  0.00    +0.160 C 
ATOM     24  C   UNL     1      32.685 -21.330 -18.827  0.00  0.00    +0.145 C 
ATOM     25  C   UNL     1      34.081 -19.797 -20.068  0.00  0.00    +0.020 C 
ATOM     26  C   UNL     1      32.822 -20.183 -19.609  0.00  0.00    +0.031 C 
BRANCH  22  27
ATOM     27  N   UNL     1      36.492 -20.161 -20.216  0.00  0.00    -0.217 N 
ATOM     28  H   UNL     1      37.268 -20.764 -20.137  0.00  0.00    +0.173 HD
BRANCH  27  29
ATOM     29  S   UNL     1      36.654 -18.601 -20.925  0.00  0.00    +0.054 S 
ATOM     30  O   UNL     1      35.978 -17.638 -20.074  0.00  0.00    -0.154 OA
ATOM     31  O   UNL     1      38.016 -18.369 -21.363  0.00  0.00    -0.154 OA
BRANCH  29  32
ATOM     32  C   UNL     1      35.642 -18.808 -22.374  0.00  0.00    +0.172 C 
ATOM     33  C   UNL     1      35.082 -17.487 -22.852  0.00  0.00    +0.029 C 
ENDBRANCH  29  32
ENDBRANCH  27  29
ENDBRANCH  22  27
ENDBRANCH   2  21
TORSDOF 6
ENDMDL
MODEL 8
REMARK VINA RESULT:      -9.7      3.860      8.820
REMARK  Name = 24180720
REMARK  6 active torsions:
REMARK  status: ('A' for Active; 'I' for Inactive)
REMARK    1  A    between atoms: C_2  and  C_6
REMARK    2  A    between atoms: C_2  and  C_21
REMARK    3  A    between atoms: C_10  and  C_14
REMARK    4  A    between atoms: C_22  and  N_27
REMARK    5  A    between atoms: N_27  and  S_29
REMARK    6  A    between atoms: S_29  and  C_32
REMARK                            x       y       z     vdW  Elec       q    Type
REMARK                         _______ _______ _______ _____ _____    ______ ____
ROOT
ATOM      1  O   UNL     1      37.385 -21.510 -15.914  0.00  0.00    -0.286 OA
ATOM      2  C   UNL     1      36.653 -22.508 -15.782  0.00  0.00    +0.201 C 
ENDROOT
BRANCH   2   6
ATOM      3  N   UNL     1      33.334 -23.373 -16.898  0.00  0.00    -0.297 N 
ATOM      4  N   UNL     1      32.871 -22.169 -18.933  0.00  0.00    -0.229 NA
ATOM      5  C   UNL     1      34.956 -22.035 -17.651  0.00  0.00    +0.036 C 
ATOM      6  C   UNL     1      35.395 -22.661 -16.454  0.00  0.00    +0.056 C 
ATOM      7  C   UNL     1      33.668 -22.501 -17.900  0.00  0.00    +0.132 C 
ATOM      8  C   UNL     1      35.501 -21.119 -18.565  0.00  0.00    +0.005 C 
ATOM      9  C   UNL     1      34.375 -23.478 -16.013  0.00  0.00    +0.066 C 
ATOM     10  C   UNL     1      34.717 -20.742 -19.653  0.00  0.00    +0.021 C 
ATOM     11  C   UNL     1      33.446 -21.285 -19.781  0.00  0.00    +0.100 C 
ATOM     12  H   UNL     1      32.477 -23.851 -16.825  0.00  0.00    +0.154 HD
BRANCH  10  14
ATOM     13  N   UNL     1      34.865 -18.565 -22.676  0.00  0.00    -0.242 NA
ATOM     14  C   UNL     1      35.219 -19.804 -20.631  0.00  0.00    +0.021 C 
ATOM     15  C   UNL     1      36.486 -19.244 -20.502  0.00  0.00    +0.003 C 
ATOM     16  C   UNL     1      34.455 -19.435 -21.726  0.00  0.00    +0.099 C 
ATOM     17  C   UNL     1      36.942 -18.345 -21.460  0.00  0.00    +0.021 C 
ATOM     18  C   UNL     1      36.101 -18.041 -22.518  0.00  0.00    +0.099 C 
ENDBRANCH  10  14
ENDBRANCH   2   6
BRANCH   2  21
ATOM     19  F   UNL     1      35.091 -23.580 -13.696  0.00  0.00    -0.203 F 
ATOM     20  F   UNL     1      39.261 -23.588 -15.962  0.00  0.00    -0.204 F 
ATOM     21  C   UNL     1      37.162 -23.561 -14.849  0.00  0.00    +0.095 C 
ATOM     22  C   UNL     1      36.814 -25.033 -12.965  0.00  0.00    +0.092 C 
ATOM     23  C   UNL     1      36.339 -24.052 -13.835  0.00  0.00    +0.160 C 
ATOM     24  C   UNL     1      38.460 -24.051 -14.993  0.00  0.00    +0.145 C 
ATOM     25  C   UNL     1      38.112 -25.523 -13.109  0.00  0.00    +0.020 C 
ATOM     26  C   UNL     1      38.935 -25.032 -14.123  0.00  0.00    +0.031 C 
BRANCH  22  27
ATOM     27  N   UNL     1      35.975 -25.536 -11.926  0.00  0.00    -0.217 N 
ATOM     28  H   UNL     1      35.609 -26.450 -11.969  0.00  0.00    +0.173 HD
BRANCH  27  29
ATOM     29  S   UNL     1      35.620 -24.504 -10.595  0.00  0.00    +0.054 S 
ATOM     30  O   UNL     1      34.743 -23.443 -11.058  0.00  0.00    -0.154 OA
ATOM     31  O   UNL     1      35.283 -25.276  -9.415  0.00  0.00    -0.154 OA
BRANCH  29  32
ATOM     32  C   UNL     1      37.219 -23.771 -10.330  0.00  0.00    +0.172 C 
ATOM     33  C   UNL     1      37.352 -22.452 -11.056  0.00  0.00    +0.029 C 
ENDBRANCH  29  32
ENDBRANCH  27  29
ENDBRANCH  22  27
ENDBRANCH   2  21
TORSDOF 6
ENDMDL
MODEL 9
REMARK VINA RESULT:      -9.6      4.321      7.628
REMARK  Name = 24180720
REMARK  6 active torsions:
REMARK  status: ('A' for Active; 'I' for Inactive)
REMARK    1  A    between atoms: C_2  and  C_6
REMARK    2  A    between atoms: C_2  and  C_21
REMARK    3  A    between atoms: C_10  and  C_14
REMARK    4  A    between atoms: C_22  and  N_27
REMARK    5  A    between atoms: N_27  and  S_29
REMARK    6  A    between atoms: S_29  and  C_32
REMARK                            x       y       z     vdW  Elec       q    Type
REMARK                         _______ _______ _______ _____ _____    ______ ____
ROOT
ATOM      1  O   UNL     1      32.245 -22.501 -11.734  0.00  0.00    -0.286 OA
ATOM      2  C   UNL     1      32.657 -23.271 -12.622  0.00  0.00    +0.201 C 
ENDROOT
BRANCH   2   6
ATOM      3  N   UNL     1      36.087 -24.367 -12.412  0.00  0.00    -0.297 N 
ATOM      4  N   UNL     1      37.213 -23.761 -14.454  0.00  0.00    -0.229 NA
ATOM      5  C   UNL     1      34.857 -23.307 -13.946  0.00  0.00    +0.036 C 
ATOM      6  C   UNL     1      34.043 -23.585 -12.816  0.00  0.00    +0.056 C 
ATOM      7  C   UNL     1      36.125 -23.806 -13.661  0.00  0.00    +0.132 C 
ATOM      8  C   UNL     1      34.672 -22.685 -15.190  0.00  0.00    +0.005 C 
ATOM      9  C   UNL     1      34.826 -24.238 -11.888  0.00  0.00    +0.066 C 
ATOM     10  C   UNL     1      35.766 -22.611 -16.050  0.00  0.00    +0.021 C 
ATOM     11  C   UNL     1      36.976 -23.152 -15.638  0.00  0.00    +0.100 C 
ATOM     12  H   UNL     1      36.848 -24.795 -11.959  0.00  0.00    +0.154 HD
BRANCH  10  14
ATOM     13  N   UNL     1      36.641 -20.653 -19.100  0.00  0.00    -0.242 NA
ATOM     14  C   UNL     1      35.642 -21.983 -17.345  0.00  0.00    +0.021 C 
ATOM     15  C   UNL     1      34.463 -22.078 -18.078  0.00  0.00    +0.003 C 
ATOM     16  C   UNL     1      36.691 -21.265 -17.896  0.00  0.00    +0.099 C 
ATOM     17  C   UNL     1      34.373 -21.460 -19.321  0.00  0.00    +0.021 C 
ATOM     18  C   UNL     1      35.479 -20.767 -19.783  0.00  0.00    +0.099 C 
ENDBRANCH  10  14
ENDBRANCH   2   6
BRANCH   2  21
ATOM     19  F   UNL     1      31.449 -21.819 -14.713  0.00  0.00    -0.203 F 
ATOM     20  F   UNL     1      31.707 -25.920 -12.338  0.00  0.00    -0.204 F 
ATOM     21  C   UNL     1      31.602 -23.854 -13.507  0.00  0.00    +0.095 C 
ATOM     22  C   UNL     1      30.058 -23.628 -15.352  0.00  0.00    +0.092 C 
ATOM     23  C   UNL     1      31.042 -23.084 -14.526  0.00  0.00    +0.160 C 
ATOM     24  C   UNL     1      31.178 -25.169 -13.314  0.00  0.00    +0.145 C 
ATOM     25  C   UNL     1      29.634 -24.943 -15.158  0.00  0.00    +0.020 C 
ATOM     26  C   UNL     1      30.194 -25.714 -14.139  0.00  0.00    +0.031 C 
BRANCH  22  27
ATOM     27  N   UNL     1      29.482 -22.842 -16.395  0.00  0.00    -0.217 N 
ATOM     28  H   UNL     1      30.031 -22.208 -16.912  0.00  0.00    +0.173 HD
BRANCH  27  29
ATOM     29  S   UNL     1      27.803 -23.032 -16.725  0.00  0.00    +0.054 S 
ATOM     30  O   UNL     1      27.413 -22.037 -17.708  0.00  0.00    -0.154 OA
ATOM     31  O   UNL     1      27.468 -24.429 -16.918  0.00  0.00    -0.154 OA
BRANCH  29  32
ATOM     32  C   UNL     1      27.116 -22.514 -15.168  0.00  0.00    +0.172 C 
ATOM     33  C   UNL     1      25.801 -21.791 -15.355  0.00  0.00    +0.029 C 
ENDBRANCH  29  32
ENDBRANCH  27  29
ENDBRANCH  22  27
ENDBRANCH   2  21
TORSDOF 6
ENDMDL
