MODEL 1
REMARK VINA RESULT:     -12.0      0.000      0.000
REMARK  Name = 445841
REMARK  2 active torsions:
REMARK  status: ('A' for Active; 'I' for Inactive)
REMARK    1  A    between atoms: N_2  and  C_22
REMARK    2  A    between atoms: C_6  and  C_27
REMARK                            x       y       z     vdW  Elec       q    Type
REMARK                         _______ _______ _______ _____ _____    ______ ____
ROOT
ATOM      1  O   UNL     1      34.315 -20.878 -20.186  0.00  0.00    -0.252 OA
ATOM      2  N   UNL     1      35.867 -19.311 -20.974  0.00  0.00    -0.268 N 
ATOM      3  N   UNL     1      35.415 -22.714 -16.576  0.00  0.00    -0.241 N 
ATOM      4  N   UNL     1      36.281 -20.435 -18.999  0.00  0.00    -0.252 N 
ATOM      5  N   UNL     1      35.120 -22.091 -17.729  0.00  0.00    -0.166 NA
ATOM      6  C   UNL     1      36.602 -22.326 -16.027  0.00  0.00    +0.026 C 
ATOM      7  C   UNL     1      37.119 -21.383 -16.882  0.00  0.00    +0.046 C 
ATOM      8  C   UNL     1      36.163 -21.290 -17.897  0.00  0.00    +0.154 C 
ATOM      9  C   UNL     1      35.376 -20.276 -20.059  0.00  0.00    +0.309 C 
ATOM     10  H   UNL     1      36.736 -18.909 -20.743  0.00  0.00    +0.156 HD
ATOM     11  H   UNL     1      34.829 -23.389 -16.164  0.00  0.00    +0.174 HD
ATOM     12  H   UNL     1      37.094 -19.880 -19.033  0.00  0.00    +0.158 HD
ENDROOT
BRANCH   2  22
ATOM     13  O   UNL     1      33.851 -14.941 -24.412  0.00  0.00    -0.270 OA
ATOM     14  N   UNL     1      34.974 -15.228 -22.360  0.00  0.00    -0.274 N 
ATOM     15  C   UNL     1      35.491 -16.335 -21.573  0.00  0.00    +0.100 C 
ATOM     16  C   UNL     1      34.825 -16.103 -20.224  0.00  0.00    +0.026 C 
ATOM     17  C   UNL     1      34.852 -14.569 -20.119  0.00  0.00    +0.024 C 
ATOM     18  C   UNL     1      34.596 -14.087 -21.550  0.00  0.00    +0.094 C 
ATOM     19  C   UNL     1      35.111 -17.508 -22.403  0.00  0.00    +0.014 C 
ATOM     20  C   UNL     1      34.542 -17.077 -23.608  0.00  0.00    +0.052 C 
ATOM     21  C   UNL     1      34.419 -15.611 -23.569  0.00  0.00    +0.249 C 
ATOM     22  C   UNL     1      35.286 -18.856 -22.156  0.00  0.00    +0.049 C 
ATOM     23  C   UNL     1      34.121 -17.954 -24.588  0.00  0.00    +0.004 C 
ATOM     24  C   UNL     1      34.872 -19.764 -23.137  0.00  0.00    +0.014 C 
ATOM     25  C   UNL     1      34.296 -19.316 -24.342  0.00  0.00    +0.001 C 
ENDBRANCH   2  22
BRANCH   6  27
ATOM     26  N   UNL     1      36.057 -23.590 -13.975  0.00  0.00    +0.388 N 
ATOM     27  C   UNL     1      37.118 -22.904 -14.730  0.00  0.00    -0.023 C 
ATOM     28  C   UNL     1      38.222 -23.951 -14.929  0.00  0.00    -0.018 C 
ATOM     29  C   UNL     1      37.719 -25.193 -14.209  0.00  0.00    -0.025 C 
ATOM     30  C   UNL     1      36.713 -24.648 -13.216  0.00  0.00    -0.081 C 
ATOM     31  H   UNL     1      35.370 -23.989 -14.615  0.00  0.00    -0.084 HD
ATOM     32  H   UNL     1      35.561 -22.944 -13.361  0.00  0.00    -0.084 HD
ENDBRANCH   6  27
TORSDOF 2
ENDMDL
MODEL 2
REMARK VINA RESULT:     -11.3      2.755      5.078
REMARK  Name = 445841
REMARK  2 active torsions:
REMARK  status: ('A' for Active; 'I' for Inactive)
REMARK    1  A    between atoms: N_2  and  C_22
REMARK    2  A    between atoms: C_6  and  C_27
REMARK                            x       y       z     vdW  Elec       q    Type
REMARK                         _______ _______ _______ _____ _____    ______ ____
ROOT
ATOM      1  O   UNL     1      35.999 -15.660 -22.759  0.00  0.00    -0.252 OA
ATOM      2  N   UNL     1      33.766 -15.612 -23.463  0.00  0.00    -0.268 N 
ATOM      3  N   UNL     1      36.999 -19.023 -20.456  0.00  0.00    -0.241 N 
ATOM      4  N   UNL     1      34.523 -17.381 -22.185  0.00  0.00    -0.252 N 
ATOM      5  N   UNL     1      36.617 -17.970 -21.198  0.00  0.00    -0.166 NA
ATOM      6  C   UNL     1      36.003 -19.925 -20.225  0.00  0.00    +0.026 C 
ATOM      7  C   UNL     1      34.891 -19.428 -20.859  0.00  0.00    +0.046 C 
ATOM      8  C   UNL     1      35.338 -18.234 -21.432  0.00  0.00    +0.154 C 
ATOM      9  C   UNL     1      34.885 -16.170 -22.794  0.00  0.00    +0.309 C 
ATOM     10  H   UNL     1      32.932 -16.133 -23.406  0.00  0.00    +0.156 HD
ATOM     11  H   UNL     1      37.914 -19.133 -20.111  0.00  0.00    +0.174 HD
ATOM     12  H   UNL     1      33.587 -17.665 -22.301  0.00  0.00    +0.158 HD
ENDROOT
BRANCH   2  22
ATOM     13  O   UNL     1      32.944  -9.763 -23.767  0.00  0.00    -0.270 OA
ATOM     14  N   UNL     1      33.134 -11.460 -22.142  0.00  0.00    -0.274 N 
ATOM     15  C   UNL     1      33.383 -12.891 -22.119  0.00  0.00    +0.100 C 
ATOM     16  C   UNL     1      32.197 -13.405 -21.316  0.00  0.00    +0.026 C 
ATOM     17  C   UNL     1      32.026 -12.300 -20.261  0.00  0.00    +0.024 C 
ATOM     18  C   UNL     1      32.343 -11.005 -21.015  0.00  0.00    +0.094 C 
ATOM     19  C   UNL     1      33.499 -13.207 -23.566  0.00  0.00    +0.014 C 
ATOM     20  C   UNL     1      33.445 -12.027 -24.320  0.00  0.00    +0.052 C 
ATOM     21  C   UNL     1      33.173 -10.904 -23.409  0.00  0.00    +0.249 C 
ATOM     22  C   UNL     1      33.688 -14.426 -24.190  0.00  0.00    +0.049 C 
ATOM     23  C   UNL     1      33.558 -12.017 -25.696  0.00  0.00    +0.004 C 
ATOM     24  C   UNL     1      33.811 -14.440 -25.583  0.00  0.00    +0.014 C 
ATOM     25  C   UNL     1      33.748 -13.246 -26.329  0.00  0.00    +0.001 C 
ENDBRANCH   2  22
BRANCH   6  27
ATOM     26  N   UNL     1      36.716 -20.878 -18.060  0.00  0.00    +0.388 N 
ATOM     27  C   UNL     1      36.226 -21.181 -19.413  0.00  0.00    -0.023 C 
ATOM     28  C   UNL     1      34.948 -22.007 -19.212  0.00  0.00    -0.018 C 
ATOM     29  C   UNL     1      34.818 -22.166 -17.704  0.00  0.00    -0.025 C 
ATOM     30  C   UNL     1      36.229 -21.951 -17.199  0.00  0.00    -0.081 C 
ATOM     31  H   UNL     1      36.351 -19.979 -17.744  0.00  0.00    -0.084 HD
ATOM     32  H   UNL     1      37.735 -20.817 -18.038  0.00  0.00    -0.084 HD
ENDBRANCH   6  27
TORSDOF 2
ENDMDL
MODEL 3
REMARK VINA RESULT:     -10.7      3.138     10.063
REMARK  Name = 445841
REMARK  2 active torsions:
REMARK  status: ('A' for Active; 'I' for Inactive)
REMARK    1  A    between atoms: N_2  and  C_22
REMARK    2  A    between atoms: C_6  and  C_27
REMARK                            x       y       z     vdW  Elec       q    Type
REMARK                         _______ _______ _______ _____ _____    ______ ____
ROOT
ATOM      1  O   UNL     1      32.208 -21.836 -17.723  0.00  0.00    -0.252 OA
ATOM      2  N   UNL     1      34.090 -22.697 -16.626  0.00  0.00    -0.268 N 
ATOM      3  N   UNL     1      33.085 -19.780 -21.275  0.00  0.00    -0.241 N 
ATOM      4  N   UNL     1      34.354 -21.532 -18.604  0.00  0.00    -0.252 N 
ATOM      5  N   UNL     1      32.869 -20.450 -20.130  0.00  0.00    -0.166 NA
ATOM      6  C   UNL     1      34.399 -19.706 -21.632  0.00  0.00    +0.026 C 
ATOM      7  C   UNL     1      35.092 -20.374 -20.652  0.00  0.00    +0.046 C 
ATOM      8  C   UNL     1      34.096 -20.801 -19.770  0.00  0.00    +0.154 C 
ATOM      9  C   UNL     1      33.422 -22.000 -17.665  0.00  0.00    +0.309 C 
ATOM     10  H   UNL     1      35.070 -22.749 -16.711  0.00  0.00    +0.156 HD
ATOM     11  H   UNL     1      32.360 -19.380 -21.808  0.00  0.00    +0.174 HD
ATOM     12  H   UNL     1      35.299 -21.743 -18.423  0.00  0.00    +0.158 HD
ENDROOT
BRANCH   2  22
ATOM     13  O   UNL     1      34.617 -24.933 -11.177  0.00  0.00    -0.270 OA
ATOM     14  N   UNL     1      35.910 -23.760 -12.760  0.00  0.00    -0.274 N 
ATOM     15  C   UNL     1      35.716 -23.189 -14.082  0.00  0.00    +0.100 C 
ATOM     16  C   UNL     1      36.843 -23.835 -14.874  0.00  0.00    +0.026 C 
ATOM     17  C   UNL     1      37.981 -23.861 -13.841  0.00  0.00    +0.024 C 
ATOM     18  C   UNL     1      37.280 -24.162 -12.513  0.00  0.00    +0.094 C 
ATOM     19  C   UNL     1      34.301 -23.544 -14.367  0.00  0.00    +0.014 C 
ATOM     20  C   UNL     1      33.724 -24.152 -13.245  0.00  0.00    +0.052 C 
ATOM     21  C   UNL     1      34.767 -24.325 -12.220  0.00  0.00    +0.249 C 
ATOM     22  C   UNL     1      33.547 -23.317 -15.503  0.00  0.00    +0.049 C 
ATOM     23  C   UNL     1      32.406 -24.561 -13.215  0.00  0.00    +0.004 C 
ATOM     24  C   UNL     1      32.207 -23.718 -15.494  0.00  0.00    +0.014 C 
ATOM     25  C   UNL     1      31.642 -24.333 -14.360  0.00  0.00    +0.001 C 
ENDBRANCH   2  22
BRANCH   6  27
ATOM     26  N   UNL     1      33.719 -18.588 -23.728  0.00  0.00    +0.388 N 
ATOM     27  C   UNL     1      34.855 -18.998 -22.887  0.00  0.00    -0.023 C 
ATOM     28  C   UNL     1      35.642 -17.711 -22.606  0.00  0.00    -0.018 C 
ATOM     29  C   UNL     1      34.903 -16.624 -23.371  0.00  0.00    -0.025 C 
ATOM     30  C   UNL     1      34.147 -17.388 -24.438  0.00  0.00    -0.081 C 
ATOM     31  H   UNL     1      32.905 -18.382 -23.147  0.00  0.00    -0.084 HD
ATOM     32  H   UNL     1      33.450 -19.328 -24.377  0.00  0.00    -0.084 HD
ENDBRANCH   6  27
TORSDOF 2
ENDMDL
MODEL 4
REMARK VINA RESULT:     -10.6      3.673      9.849
REMARK  Name = 445841
REMARK  2 active torsions:
REMARK  status: ('A' for Active; 'I' for Inactive)
REMARK    1  A    between atoms: N_2  and  C_22
REMARK    2  A    between atoms: C_6  and  C_27
REMARK                            x       y       z     vdW  Elec       q    Type
REMARK                         _______ _______ _______ _____ _____    ______ ____
ROOT
ATOM      1  O   UNL     1      36.209 -21.337 -17.296  0.00  0.00    -0.252 OA
ATOM      2  N   UNL     1      34.199 -22.525 -17.113  0.00  0.00    -0.268 N 
ATOM      3  N   UNL     1      36.570 -19.114 -20.837  0.00  0.00    -0.241 N 
ATOM      4  N   UNL     1      34.596 -21.234 -18.987  0.00  0.00    -0.252 N 
ATOM      5  N   UNL     1      36.395 -19.846 -19.724  0.00  0.00    -0.166 NA
ATOM      6  C   UNL     1      35.523 -19.174 -21.708  0.00  0.00    +0.026 C 
ATOM      7  C   UNL     1      34.597 -20.005 -21.125  0.00  0.00    +0.046 C 
ATOM      8  C   UNL     1      35.195 -20.377 -19.918  0.00  0.00    +0.154 C 
ATOM      9  C   UNL     1      35.119 -21.659 -17.756  0.00  0.00    +0.309 C 
ATOM     10  H   UNL     1      33.361 -22.695 -17.602  0.00  0.00    +0.156 HD
ATOM     11  H   UNL     1      37.381 -18.582 -21.008  0.00  0.00    +0.174 HD
ATOM     12  H   UNL     1      33.704 -21.577 -19.223  0.00  0.00    +0.158 HD
ENDROOT
BRANCH   2  22
ATOM     13  O   UNL     1      31.832 -25.293 -12.453  0.00  0.00    -0.270 OA
ATOM     14  N   UNL     1      31.172 -24.430 -14.545  0.00  0.00    -0.274 N 
ATOM     15  C   UNL     1      31.810 -23.792 -15.685  0.00  0.00    +0.100 C 
ATOM     16  C   UNL     1      30.989 -22.520 -15.834  0.00  0.00    +0.026 C 
ATOM     17  C   UNL     1      29.573 -23.015 -15.499  0.00  0.00    +0.024 C 
ATOM     18  C   UNL     1      29.785 -24.042 -14.382  0.00  0.00    +0.094 C 
ATOM     19  C   UNL     1      33.227 -23.720 -15.244  0.00  0.00    +0.014 C 
ATOM     20  C   UNL     1      33.381 -24.378 -14.017  0.00  0.00    +0.052 C 
ATOM     21  C   UNL     1      32.054 -24.805 -13.546  0.00  0.00    +0.249 C 
ATOM     22  C   UNL     1      34.321 -23.167 -15.882  0.00  0.00    +0.049 C 
ATOM     23  C   UNL     1      34.602 -24.494 -13.383  0.00  0.00    +0.004 C 
ATOM     24  C   UNL     1      35.570 -23.277 -15.261  0.00  0.00    +0.014 C 
ATOM     25  C   UNL     1      35.709 -23.935 -14.024  0.00  0.00    +0.001 C 
ENDBRANCH   2  22
BRANCH   6  27
ATOM     26  N   UNL     1      34.280 -18.649 -23.778  0.00  0.00    +0.388 N 
ATOM     27  C   UNL     1      35.520 -18.422 -23.019  0.00  0.00    -0.023 C 
ATOM     28  C   UNL     1      35.622 -16.901 -22.846  0.00  0.00    -0.018 C 
ATOM     29  C   UNL     1      34.416 -16.341 -23.585  0.00  0.00    -0.025 C 
ATOM     30  C   UNL     1      34.052 -17.440 -24.561  0.00  0.00    -0.081 C 
ATOM     31  H   UNL     1      33.500 -18.810 -23.141  0.00  0.00    -0.084 HD
ATOM     32  H   UNL     1      34.357 -19.471 -24.378  0.00  0.00    -0.084 HD
ENDBRANCH   6  27
TORSDOF 2
ENDMDL
MODEL 5
REMARK VINA RESULT:      -9.8      1.398      1.800
REMARK  Name = 445841
REMARK  2 active torsions:
REMARK  status: ('A' for Active; 'I' for Inactive)
REMARK    1  A    between atoms: N_2  and  C_22
REMARK    2  A    between atoms: C_6  and  C_27
REMARK                            x       y       z     vdW  Elec       q    Type
REMARK                         _______ _______ _______ _____ _____    ______ ____
ROOT
ATOM      1  O   UNL     1      33.535 -19.943 -21.386  0.00  0.00    -0.252 OA
ATOM      2  N   UNL     1      35.197 -18.401 -21.975  0.00  0.00    -0.268 N 
ATOM      3  N   UNL     1      34.525 -22.361 -18.102  0.00  0.00    -0.241 N 
ATOM      4  N   UNL     1      35.542 -19.827 -20.191  0.00  0.00    -0.252 N 
ATOM      5  N   UNL     1      34.267 -21.556 -19.147  0.00  0.00    -0.166 NA
ATOM      6  C   UNL     1      35.744 -22.147 -17.529  0.00  0.00    +0.026 C 
ATOM      7  C   UNL     1      36.325 -21.133 -18.250  0.00  0.00    +0.046 C 
ATOM      8  C   UNL     1      35.368 -20.821 -19.220  0.00  0.00    +0.154 C 
ATOM      9  C   UNL     1      34.641 -19.448 -21.197  0.00  0.00    +0.309 C 
ATOM     10  H   UNL     1      36.097 -18.104 -21.708  0.00  0.00    +0.156 HD
ATOM     11  H   UNL     1      33.892 -23.042 -17.779  0.00  0.00    +0.174 HD
ATOM     12  H   UNL     1      36.396 -19.337 -20.163  0.00  0.00    +0.158 HD
ENDROOT
BRANCH   2  22
ATOM     13  O   UNL     1      33.544 -13.435 -24.729  0.00  0.00    -0.270 OA
ATOM     14  N   UNL     1      34.671 -14.103 -22.769  0.00  0.00    -0.274 N 
ATOM     15  C   UNL     1      35.094 -15.350 -22.155  0.00  0.00    +0.100 C 
ATOM     16  C   UNL     1      34.478 -15.244 -20.768  0.00  0.00    +0.026 C 
ATOM     17  C   UNL     1      34.651 -13.749 -20.457  0.00  0.00    +0.024 C 
ATOM     18  C   UNL     1      34.417 -13.053 -21.802  0.00  0.00    +0.094 C 
ATOM     19  C   UNL     1      34.590 -16.357 -23.124  0.00  0.00    +0.014 C 
ATOM     20  C   UNL     1      34.043 -15.715 -24.242  0.00  0.00    +0.052 C 
ATOM     21  C   UNL     1      34.061 -14.263 -24.001  0.00  0.00    +0.249 C 
ATOM     22  C   UNL     1      34.641 -17.737 -23.067  0.00  0.00    +0.049 C 
ATOM     23  C   UNL     1      33.524 -16.407 -25.318  0.00  0.00    +0.004 C 
ATOM     24  C   UNL     1      34.125 -18.460 -24.148  0.00  0.00    +0.014 C 
ATOM     25  C   UNL     1      33.573 -17.800 -25.264  0.00  0.00    +0.001 C 
ENDBRANCH   2  22
BRANCH   6  27
ATOM     26  N   UNL     1      37.197 -22.190 -15.531  0.00  0.00    +0.388 N 
ATOM     27  C   UNL     1      36.227 -22.945 -16.340  0.00  0.00    -0.023 C 
ATOM     28  C   UNL     1      35.101 -23.333 -15.372  0.00  0.00    -0.018 C 
ATOM     29  C   UNL     1      35.543 -22.796 -14.020  0.00  0.00    -0.025 C 
ATOM     30  C   UNL     1      37.045 -22.665 -14.160  0.00  0.00    -0.081 C 
ATOM     31  H   UNL     1      36.997 -21.190 -15.582  0.00  0.00    -0.084 HD
ATOM     32  H   UNL     1      38.150 -22.327 -15.869  0.00  0.00    -0.084 HD
ENDBRANCH   6  27
TORSDOF 2
ENDMDL
MODEL 6
REMARK VINA RESULT:      -9.8      4.395      9.829
REMARK  Name = 445841
REMARK  2 active torsions:
REMARK  status: ('A' for Active; 'I' for Inactive)
REMARK    1  A    between atoms: N_2  and  C_22
REMARK    2  A    between atoms: C_6  and  C_27
REMARK                            x       y       z     vdW  Elec       q    Type
REMARK                         _______ _______ _______ _____ _____    ______ ____
ROOT
ATOM      1  O   UNL     1      33.156 -23.259 -17.735  0.00  0.00    -0.252 OA
ATOM      2  N   UNL     1      31.186 -22.232 -16.993  0.00  0.00    -0.268 N 
ATOM      3  N   UNL     1      35.316 -21.000 -20.537  0.00  0.00    -0.241 N 
ATOM      4  N   UNL     1      32.525 -21.154 -18.536  0.00  0.00    -0.252 N 
ATOM      5  N   UNL     1      34.579 -21.674 -19.637  0.00  0.00    -0.166 NA
ATOM      6  C   UNL     1      34.792 -19.790 -20.883  0.00  0.00    +0.026 C 
ATOM      7  C   UNL     1      33.630 -19.664 -20.161  0.00  0.00    +0.046 C 
ATOM      8  C   UNL     1      33.564 -20.849 -19.423  0.00  0.00    +0.154 C 
ATOM      9  C   UNL     1      32.377 -22.312 -17.758  0.00  0.00    +0.309 C 
ATOM     10  H   UNL     1      30.657 -21.410 -17.113  0.00  0.00    +0.156 HD
ATOM     11  H   UNL     1      36.158 -21.347 -20.910  0.00  0.00    +0.174 HD
ATOM     12  H   UNL     1      31.816 -20.476 -18.448  0.00  0.00    +0.158 HD
ENDROOT
BRANCH   2  22
ATOM     13  O   UNL     1      31.610 -25.493 -12.077  0.00  0.00    -0.270 OA
ATOM     14  N   UNL     1      32.808 -23.814 -13.217  0.00  0.00    -0.274 N 
ATOM     15  C   UNL     1      32.635 -23.006 -14.412  0.00  0.00    +0.100 C 
ATOM     16  C   UNL     1      33.928 -23.277 -15.167  0.00  0.00    +0.026 C 
ATOM     17  C   UNL     1      34.953 -23.348 -14.024  0.00  0.00    +0.024 C 
ATOM     18  C   UNL     1      34.200 -24.038 -12.882  0.00  0.00    +0.094 C 
ATOM     19  C   UNL     1      31.341 -23.509 -14.940  0.00  0.00    +0.014 C 
ATOM     20  C   UNL     1      30.783 -24.430 -14.044  0.00  0.00    +0.052 C 
ATOM     21  C   UNL     1      31.742 -24.656 -12.951  0.00  0.00    +0.249 C 
ATOM     22  C   UNL     1      30.664 -23.161 -16.094  0.00  0.00    +0.049 C 
ATOM     23  C   UNL     1      29.564 -25.038 -14.264  0.00  0.00    +0.004 C 
ATOM     24  C   UNL     1      29.424 -23.760 -16.336  0.00  0.00    +0.014 C 
ATOM     25  C   UNL     1      28.878 -24.690 -15.429  0.00  0.00    +0.001 C 
ENDBRANCH   2  22
BRANCH   6  27
ATOM     26  N   UNL     1      34.560 -18.492 -22.973  0.00  0.00    +0.388 N 
ATOM     27  C   UNL     1      35.466 -18.874 -21.879  0.00  0.00    -0.023 C 
ATOM     28  C   UNL     1      35.943 -17.553 -21.261  0.00  0.00    -0.018 C 
ATOM     29  C   UNL     1      35.291 -16.468 -22.105  0.00  0.00    -0.025 C 
ATOM     30  C   UNL     1      34.984 -17.167 -23.412  0.00  0.00    -0.081 C 
ATOM     31  H   UNL     1      33.596 -18.461 -22.639  0.00  0.00    -0.084 HD
ATOM     32  H   UNL     1      34.595 -19.167 -23.738  0.00  0.00    -0.084 HD
ENDBRANCH   6  27
TORSDOF 2
ENDMDL
MODEL 7
REMARK VINA RESULT:      -9.5      7.551     12.250
REMARK  Name = 445841
REMARK  2 active torsions:
REMARK  status: ('A' for Active; 'I' for Inactive)
REMARK    1  A    between atoms: N_2  and  C_22
REMARK    2  A    between atoms: C_6  and  C_27
REMARK                            x       y       z     vdW  Elec       q    Type
REMARK                         _______ _______ _______ _____ _____    ______ ____
ROOT
ATOM      1  O   UNL     1      31.831  -9.695 -21.654  0.00  0.00    -0.252 OA
ATOM      2  N   UNL     1      32.596  -8.080 -23.166  0.00  0.00    -0.268 N 
ATOM      3  N   UNL     1      33.360 -13.544 -22.337  0.00  0.00    -0.241 N 
ATOM      4  N   UNL     1      33.320 -10.264 -23.366  0.00  0.00    -0.252 N 
ATOM      5  N   UNL     1      32.906 -12.290 -22.171  0.00  0.00    -0.166 NA
ATOM      6  C   UNL     1      34.220 -13.684 -23.386  0.00  0.00    +0.026 C 
ATOM      7  C   UNL     1      34.337 -12.435 -23.945  0.00  0.00    +0.046 C 
ATOM      8  C   UNL     1      33.509 -11.635 -23.153  0.00  0.00    +0.154 C 
ATOM      9  C   UNL     1      32.513  -9.387 -22.625  0.00  0.00    +0.309 C 
ATOM     10  H   UNL     1      33.184  -7.980 -23.950  0.00  0.00    +0.156 HD
ATOM     11  H   UNL     1      33.096 -14.293 -21.756  0.00  0.00    +0.174 HD
ATOM     12  H   UNL     1      33.812  -9.870 -24.123  0.00  0.00    +0.158 HD
ENDROOT
BRANCH   2  22
ATOM     13  O   UNL     1      31.448  -2.302 -23.694  0.00  0.00    -0.270 OA
ATOM     14  N   UNL     1      32.589  -4.010 -24.849  0.00  0.00    -0.274 N 
ATOM     15  C   UNL     1      32.806  -5.440 -24.697  0.00  0.00    +0.100 C 
ATOM     16  C   UNL     1      34.323  -5.536 -24.744  0.00  0.00    +0.026 C 
ATOM     17  C   UNL     1      34.675  -4.475 -25.799  0.00  0.00    +0.024 C 
ATOM     18  C   UNL     1      33.669  -3.346 -25.551  0.00  0.00    +0.094 C 
ATOM     19  C   UNL     1      32.077  -5.729 -23.435  0.00  0.00    +0.014 C 
ATOM     20  C   UNL     1      31.408  -4.580 -22.993  0.00  0.00    +0.052 C 
ATOM     21  C   UNL     1      31.765  -3.462 -23.881  0.00  0.00    +0.249 C 
ATOM     22  C   UNL     1      31.958  -6.917 -22.738  0.00  0.00    +0.049 C 
ATOM     23  C   UNL     1      30.625  -4.566 -21.856  0.00  0.00    +0.004 C 
ATOM     24  C   UNL     1      31.165  -6.928 -21.586  0.00  0.00    +0.014 C 
ATOM     25  C   UNL     1      30.503  -5.763 -21.150  0.00  0.00    +0.001 C 
ENDBRANCH   2  22
BRANCH   6  27
ATOM     26  N   UNL     1      34.671 -16.006 -22.672  0.00  0.00    +0.388 N 
ATOM     27  C   UNL     1      34.846 -15.013 -23.743  0.00  0.00    -0.023 C 
ATOM     28  C   UNL     1      34.237 -15.652 -24.998  0.00  0.00    -0.018 C 
ATOM     29  C   UNL     1      33.784 -17.034 -24.554  0.00  0.00    -0.025 C 
ATOM     30  C   UNL     1      34.626 -17.310 -23.326  0.00  0.00    -0.081 C 
ATOM     31  H   UNL     1      33.800 -15.834 -22.168  0.00  0.00    -0.084 HD
ATOM     32  H   UNL     1      35.430 -15.958 -21.992  0.00  0.00    -0.084 HD
ENDBRANCH   6  27
TORSDOF 2
ENDMDL
MODEL 8
REMARK VINA RESULT:      -9.2      5.724     12.245
REMARK  Name = 445841
REMARK  2 active torsions:
REMARK  status: ('A' for Active; 'I' for Inactive)
REMARK    1  A    between atoms: N_2  and  C_22
REMARK    2  A    between atoms: C_6  and  C_27
REMARK                            x       y       z     vdW  Elec       q    Type
REMARK                         _______ _______ _______ _____ _____    ______ ____
ROOT
ATOM      1  O   UNL     1      34.422 -10.917 -23.799  0.00  0.00    -0.252 OA
ATOM      2  N   UNL     1      32.886 -12.627 -23.347  0.00  0.00    -0.268 N 
ATOM      3  N   UNL     1      33.317  -7.170 -22.263  0.00  0.00    -0.241 N 
ATOM      4  N   UNL     1      32.468 -10.486 -22.586  0.00  0.00    -0.252 N 
ATOM      5  N   UNL     1      33.615  -8.395 -22.729  0.00  0.00    -0.166 NA
ATOM      6  C   UNL     1      32.139  -7.112 -21.579  0.00  0.00    +0.026 C 
ATOM      7  C   UNL     1      31.629  -8.387 -21.599  0.00  0.00    +0.046 C 
ATOM      8  C   UNL     1      32.581  -9.117 -22.316  0.00  0.00    +0.154 C 
ATOM      9  C   UNL     1      33.370 -11.295 -23.294  0.00  0.00    +0.309 C 
ATOM     10  H   UNL     1      32.024 -12.785 -22.897  0.00  0.00    +0.156 HD
ATOM     11  H   UNL     1      33.896  -6.387 -22.402  0.00  0.00    +0.174 HD
ATOM     12  H   UNL     1      31.662 -10.933 -22.238  0.00  0.00    +0.158 HD
ENDROOT
BRANCH   2  22
ATOM     13  O   UNL     1      35.591 -17.876 -23.016  0.00  0.00    -0.270 OA
ATOM     14  N   UNL     1      34.587 -16.289 -21.591  0.00  0.00    -0.274 N 
ATOM     15  C   UNL     1      33.890 -15.021 -21.730  0.00  0.00    +0.100 C 
ATOM     16  C   UNL     1      34.690 -14.117 -20.804  0.00  0.00    +0.026 C 
ATOM     17  C   UNL     1      35.024 -15.069 -19.644  0.00  0.00    +0.024 C 
ATOM     18  C   UNL     1      35.277 -16.419 -20.323  0.00  0.00    +0.094 C 
ATOM     19  C   UNL     1      33.928 -14.808 -23.200  0.00  0.00    +0.014 C 
ATOM     20  C   UNL     1      34.490 -15.925 -23.832  0.00  0.00    +0.052 C 
ATOM     21  C   UNL     1      34.948 -16.865 -22.797  0.00  0.00    +0.249 C 
ATOM     22  C   UNL     1      33.467 -13.742 -23.948  0.00  0.00    +0.049 C 
ATOM     23  C   UNL     1      34.624 -16.016 -25.203  0.00  0.00    +0.004 C 
ATOM     24  C   UNL     1      33.587 -13.813 -25.340  0.00  0.00    +0.014 C 
ATOM     25  C   UNL     1      34.159 -14.941 -25.962  0.00  0.00    +0.001 C 
ENDBRANCH   2  22
BRANCH   6  27
ATOM     26  N   UNL     1      32.614  -4.744 -21.057  0.00  0.00    +0.388 N 
ATOM     27  C   UNL     1      31.622  -5.828 -20.972  0.00  0.00    -0.023 C 
ATOM     28  C   UNL     1      30.366  -5.290 -21.669  0.00  0.00    -0.018 C 
ATOM     29  C   UNL     1      30.722  -3.868 -22.077  0.00  0.00    -0.025 C 
ATOM     30  C   UNL     1      31.855  -3.501 -21.141  0.00  0.00    -0.081 C 
ATOM     31  H   UNL     1      33.195  -4.860 -21.888  0.00  0.00    -0.084 HD
ATOM     32  H   UNL     1      33.237  -4.745 -20.248  0.00  0.00    -0.084 HD
ENDBRANCH   6  27
TORSDOF 2
ENDMDL
MODEL 9
REMARK VINA RESULT:      -9.0      5.915     12.188
REMARK  Name = 445841
REMARK  2 active torsions:
REMARK  status: ('A' for Active; 'I' for Inactive)
REMARK    1  A    between atoms: N_2  and  C_22
REMARK    2  A    between atoms: C_6  and  C_27
REMARK                            x       y       z     vdW  Elec       q    Type
REMARK                         _______ _______ _______ _____ _____    ______ ____
ROOT
ATOM      1  O   UNL     1      32.327 -12.304 -21.006  0.00  0.00    -0.252 OA
ATOM      2  N   UNL     1      34.355 -12.891 -22.018  0.00  0.00    -0.268 N 
ATOM      3  N   UNL     1      30.877  -8.529 -22.131  0.00  0.00    -0.241 N 
ATOM      4  N   UNL     1      33.383 -10.852 -22.505  0.00  0.00    -0.252 N 
ATOM      5  N   UNL     1      31.393  -9.728 -21.811  0.00  0.00    -0.166 NA
ATOM      6  C   UNL     1      31.631  -7.823 -23.021  0.00  0.00    +0.026 C 
ATOM      7  C   UNL     1      32.718  -8.615 -23.303  0.00  0.00    +0.046 C 
ATOM      8  C   UNL     1      32.507  -9.761 -22.530  0.00  0.00    +0.154 C 
ATOM      9  C   UNL     1      33.252 -12.037 -21.764  0.00  0.00    +0.309 C 
ATOM     10  H   UNL     1      35.025 -12.544 -22.652  0.00  0.00    +0.156 HD
ATOM     11  H   UNL     1      30.031  -8.191 -21.757  0.00  0.00    +0.174 HD
ATOM     12  H   UNL     1      34.184 -10.780 -23.074  0.00  0.00    +0.158 HD
ENDROOT
BRANCH   2  22
ATOM     13  O   UNL     1      35.130 -18.717 -22.671  0.00  0.00    -0.270 OA
ATOM     14  N   UNL     1      34.810 -16.797 -23.999  0.00  0.00    -0.274 N 
ATOM     15  C   UNL     1      34.668 -15.366 -23.788  0.00  0.00    +0.100 C 
ATOM     16  C   UNL     1      33.364 -15.067 -24.513  0.00  0.00    +0.026 C 
ATOM     17  C   UNL     1      33.461 -15.996 -25.734  0.00  0.00    +0.024 C 
ATOM     18  C   UNL     1      34.134 -17.262 -25.194  0.00  0.00    +0.094 C 
ATOM     19  C   UNL     1      34.741 -15.264 -22.307  0.00  0.00    +0.014 C 
ATOM     20  C   UNL     1      35.026 -16.519 -21.754  0.00  0.00    +0.052 C 
ATOM     21  C   UNL     1      35.035 -17.515 -22.837  0.00  0.00    +0.249 C 
ATOM     22  C   UNL     1      34.618 -14.154 -21.493  0.00  0.00    +0.049 C 
ATOM     23  C   UNL     1      35.181 -16.717 -20.396  0.00  0.00    +0.004 C 
ATOM     24  C   UNL     1      34.776 -14.329 -20.114  0.00  0.00    +0.014 C 
ATOM     25  C   UNL     1      35.057 -15.598 -19.571  0.00  0.00    +0.001 C 
ENDBRANCH   2  22
BRANCH   6  27
ATOM     26  N   UNL     1      30.695  -5.616 -22.425  0.00  0.00    +0.388 N 
ATOM     27  C   UNL     1      31.226  -6.453 -23.513  0.00  0.00    -0.023 C 
ATOM     28  C   UNL     1      32.392  -5.655 -24.112  0.00  0.00    -0.018 C 
ATOM     29  C   UNL     1      32.417  -4.350 -23.330  0.00  0.00    -0.025 C 
ATOM     30  C   UNL     1      31.011  -4.236 -22.779  0.00  0.00    -0.081 C 
ATOM     31  H   UNL     1      31.138  -5.864 -21.540  0.00  0.00    -0.084 HD
ATOM     32  H   UNL     1      29.690  -5.750 -22.310  0.00  0.00    -0.084 HD
ENDBRANCH   6  27
TORSDOF 2
ENDMDL
