MODEL 1
REMARK VINA RESULT:     -12.5      0.000      0.000
REMARK  Name = 54671008
REMARK  7 active torsions:
REMARK  status: ('A' for Active; 'I' for Inactive)
REMARK    1  A    between atoms: C_4  and  C_21
REMARK    2  A    between atoms: C_6  and  C_11
REMARK    3  A    between atoms: C_8  and  O_34
REMARK    4  A    between atoms: N_10  and  C_13
REMARK    5  A    between atoms: C_13  and  C_15
REMARK    6  A    between atoms: C_21  and  N_25
REMARK    7  A    between atoms: C_26  and  C_31
REMARK                            x       y       z     vdW  Elec       q    Type
REMARK                         _______ _______ _______ _____ _____    ______ ____
ROOT
ATOM      1  O   UNL     1      36.268 -23.095 -14.240  0.00  0.00    -0.271 OA
ATOM      2  N   UNL     1      33.955 -23.447 -14.138  0.00  0.00    -0.232 N 
ATOM      3  N   UNL     1      32.663 -23.229 -16.122  0.00  0.00    -0.386 NA
ATOM      4  C   UNL     1      32.759 -23.473 -14.851  0.00  0.00    +0.182 C 
ATOM      5  C   UNL     1      35.162 -23.146 -14.776  0.00  0.00    +0.265 C 
ATOM      6  C   UNL     1      33.821 -22.932 -16.786  0.00  0.00    +0.199 C 
ATOM      7  C   UNL     1      33.948 -23.740 -12.706  0.00  0.00    +0.122 C 
ATOM      8  C   UNL     1      35.041 -22.870 -16.233  0.00  0.00    +0.245 C 
ENDROOT
BRANCH   6  11
ATOM      9  O   UNL     1      33.829 -23.560 -19.049  0.00  0.00    -0.268 OA
ATOM     10  N   UNL     1      33.399 -21.337 -18.496  0.00  0.00    -0.295 N 
ATOM     11  C   UNL     1      33.687 -22.661 -18.225  0.00  0.00    +0.275 C 
ATOM     12  H   UNL     1      33.310 -20.712 -17.740  0.00  0.00    +0.150 HD
BRANCH  10  13
ATOM     13  C   UNL     1      33.221 -20.824 -19.836  0.00  0.00    +0.117 C 
BRANCH  13  15
ATOM     14  F   UNL     1      37.844 -18.231 -21.733  0.00  0.00    -0.204 F 
ATOM     15  C   UNL     1      34.454 -20.132 -20.342  0.00  0.00    -0.002 C 
ATOM     16  C   UNL     1      35.676 -20.328 -19.699  0.00  0.00    -0.000 C 
ATOM     17  C   UNL     1      34.377 -19.295 -21.455  0.00  0.00    -0.000 C 
ATOM     18  C   UNL     1      36.821 -19.685 -20.168  0.00  0.00    +0.029 C 
ATOM     19  C   UNL     1      35.522 -18.652 -21.925  0.00  0.00    +0.029 C 
ATOM     20  C   UNL     1      36.744 -18.848 -21.281  0.00  0.00    +0.140 C 
ENDBRANCH  13  15
ENDBRANCH  10  13
ENDBRANCH   6  11
BRANCH   4  21
ATOM     21  C   UNL     1      31.491 -23.805 -14.101  0.00  0.00    +0.117 C 
ATOM     22  C   UNL     1      31.436 -25.300 -13.822  0.00  0.00    +0.028 C 
ATOM     23  C   UNL     1      31.426 -22.995 -12.814  0.00  0.00    +0.028 C 
BRANCH  21  25
ATOM     24  O   UNL     1      28.736 -24.609 -14.022  0.00  0.00    -0.265 OA
ATOM     25  N   UNL     1      30.453 -23.409 -15.018  0.00  0.00    -0.293 N 
ATOM     26  C   UNL     1      29.143 -23.851 -14.899  0.00  0.00    +0.302 C 
ATOM     27  H   UNL     1      30.683 -22.800 -15.758  0.00  0.00    +0.150 HD
BRANCH  26  31
ATOM     28  O   UNL     1      27.532 -22.196 -15.766  0.00  0.00    -0.416 OA
ATOM     29  N   UNL     1      27.907 -23.976 -17.068  0.00  0.00    -0.102 NA
ATOM     30  N   UNL     1      26.988 -23.166 -17.707  0.00  0.00    -0.111 NA
ATOM     31  C   UNL     1      28.197 -23.371 -15.940  0.00  0.00    +0.304 A 
ATOM     32  C   UNL     1      26.799 -22.139 -16.911  0.00  0.00    +0.227 A 
ATOM     33  C   UNL     1      25.929 -20.969 -17.082  0.00  0.00    +0.097 C 
ENDBRANCH  26  31
ENDBRANCH  21  25
ENDBRANCH   4  21
BRANCH   8  34
ATOM     34  O   UNL     1      36.183 -22.566 -16.938  0.00  0.00    -0.370 OA
ATOM     35  H   UNL     1      36.315 -21.698 -17.265  0.00  0.00    +0.211 HD
ENDBRANCH   8  34
TORSDOF 7
ENDMDL
MODEL 2
REMARK VINA RESULT:     -11.0      2.419      6.048
REMARK  Name = 54671008
REMARK  7 active torsions:
REMARK  status: ('A' for Active; 'I' for Inactive)
REMARK    1  A    between atoms: C_4  and  C_21
REMARK    2  A    between atoms: C_6  and  C_11
REMARK    3  A    between atoms: C_8  and  O_34
REMARK    4  A    between atoms: N_10  and  C_13
REMARK    5  A    between atoms: C_13  and  C_15
REMARK    6  A    between atoms: C_21  and  N_25
REMARK    7  A    between atoms: C_26  and  C_31
REMARK                            x       y       z     vdW  Elec       q    Type
REMARK                         _______ _______ _______ _____ _____    ______ ____
ROOT
ATOM      1  O   UNL     1      30.064 -22.166 -16.502  0.00  0.00    -0.271 OA
ATOM      2  N   UNL     1      31.660 -23.144 -15.096  0.00  0.00    -0.232 N 
ATOM      3  N   UNL     1      33.883 -23.428 -15.890  0.00  0.00    -0.386 NA
ATOM      4  C   UNL     1      32.985 -23.552 -14.962  0.00  0.00    +0.182 C 
ATOM      5  C   UNL     1      31.209 -22.557 -16.281  0.00  0.00    +0.265 C 
ATOM      6  C   UNL     1      33.485 -22.856 -17.067  0.00  0.00    +0.199 C 
ATOM      7  C   UNL     1      30.731 -23.331 -13.983  0.00  0.00    +0.122 C 
ATOM      8  C   UNL     1      32.247 -22.418 -17.339  0.00  0.00    +0.245 C 
ENDROOT
BRANCH   6  11
ATOM      9  O   UNL     1      34.538 -23.478 -19.072  0.00  0.00    -0.268 OA
ATOM     10  N   UNL     1      35.411 -21.701 -17.842  0.00  0.00    -0.295 N 
ATOM     11  C   UNL     1      34.520 -22.725 -18.102  0.00  0.00    +0.275 C 
ATOM     12  H   UNL     1      35.285 -21.167 -17.024  0.00  0.00    +0.150 HD
BRANCH  10  13
ATOM     13  C   UNL     1      36.518 -21.374 -18.712  0.00  0.00    +0.117 C 
BRANCH  13  15
ATOM     14  F   UNL     1      35.121 -17.476 -22.527  0.00  0.00    -0.204 F 
ATOM     15  C   UNL     1      36.146 -20.334 -19.729  0.00  0.00    -0.002 C 
ATOM     16  C   UNL     1      34.834 -20.256 -20.198  0.00  0.00    -0.000 C 
ATOM     17  C   UNL     1      37.110 -19.447 -20.206  0.00  0.00    -0.000 C 
ATOM     18  C   UNL     1      34.488 -19.291 -21.143  0.00  0.00    +0.029 C 
ATOM     19  C   UNL     1      36.765 -18.482 -21.152  0.00  0.00    +0.029 C 
ATOM     20  C   UNL     1      35.453 -18.404 -21.620  0.00  0.00    +0.140 C 
ENDBRANCH  13  15
ENDBRANCH  10  13
ENDBRANCH   6  11
BRANCH   4  21
ATOM     21  C   UNL     1      33.407 -24.179 -13.655  0.00  0.00    +0.117 C 
ATOM     22  C   UNL     1      33.563 -23.100 -12.593  0.00  0.00    +0.028 C 
ATOM     23  C   UNL     1      32.389 -25.231 -13.235  0.00  0.00    +0.028 C 
BRANCH  21  25
ATOM     24  O   UNL     1      35.528 -24.782 -11.816  0.00  0.00    -0.265 OA
ATOM     25  N   UNL     1      34.676 -24.782 -13.973  0.00  0.00    -0.293 N 
ATOM     26  C   UNL     1      35.644 -25.037 -13.012  0.00  0.00    +0.302 C 
ATOM     27  H   UNL     1      34.863 -25.023 -14.910  0.00  0.00    +0.150 HD
BRANCH  26  31
ATOM     28  O   UNL     1      37.979 -24.844 -13.784  0.00  0.00    -0.416 OA
ATOM     29  N   UNL     1      37.134 -26.914 -13.720  0.00  0.00    -0.102 NA
ATOM     30  N   UNL     1      38.437 -26.999 -14.172  0.00  0.00    -0.111 NA
ATOM     31  C   UNL     1      36.909 -25.639 -13.506  0.00  0.00    +0.304 A 
ATOM     32  C   UNL     1      38.891 -25.767 -14.194  0.00  0.00    +0.227 A 
ATOM     33  C   UNL     1      40.212 -25.262 -14.588  0.00  0.00    +0.097 C 
ENDBRANCH  26  31
ENDBRANCH  21  25
ENDBRANCH   4  21
BRANCH   8  34
ATOM     34  O   UNL     1      31.886 -21.848 -18.538  0.00  0.00    -0.370 OA
ATOM     35  H   UNL     1      31.564 -22.386 -19.234  0.00  0.00    +0.211 HD
ENDBRANCH   8  34
TORSDOF 7
ENDMDL
MODEL 3
REMARK VINA RESULT:     -10.5      1.896      2.797
REMARK  Name = 54671008
REMARK  7 active torsions:
REMARK  status: ('A' for Active; 'I' for Inactive)
REMARK    1  A    between atoms: C_4  and  C_21
REMARK    2  A    between atoms: C_6  and  C_11
REMARK    3  A    between atoms: C_8  and  O_34
REMARK    4  A    between atoms: N_10  and  C_13
REMARK    5  A    between atoms: C_13  and  C_15
REMARK    6  A    between atoms: C_21  and  N_25
REMARK    7  A    between atoms: C_26  and  C_31
REMARK                            x       y       z     vdW  Elec       q    Type
REMARK                         _______ _______ _______ _____ _____    ______ ____
ROOT
ATOM      1  O   UNL     1      38.131 -21.329 -16.054  0.00  0.00    -0.271 OA
ATOM      2  N   UNL     1      36.430 -22.660 -15.152  0.00  0.00    -0.232 N 
ATOM      3  N   UNL     1      34.502 -23.123 -16.465  0.00  0.00    -0.386 NA
ATOM      4  C   UNL     1      35.183 -23.243 -15.367  0.00  0.00    +0.182 C 
ATOM      5  C   UNL     1      37.038 -21.886 -16.143  0.00  0.00    +0.265 C 
ATOM      6  C   UNL     1      35.062 -22.374 -17.463  0.00  0.00    +0.199 C 
ATOM      7  C   UNL     1      37.110 -22.863 -13.874  0.00  0.00    +0.122 C 
ATOM      8  C   UNL     1      36.250 -21.756 -17.399  0.00  0.00    +0.245 C 
ENDROOT
BRANCH   6  11
ATOM      9  O   UNL     1      33.844 -23.253 -19.269  0.00  0.00    -0.268 OA
ATOM     10  N   UNL     1      34.098 -20.942 -19.096  0.00  0.00    -0.295 N 
ATOM     11  C   UNL     1      34.273 -22.254 -18.698  0.00  0.00    +0.275 C 
ATOM     12  H   UNL     1      34.496 -20.228 -18.547  0.00  0.00    +0.150 HD
BRANCH  10  13
ATOM     13  C   UNL     1      33.358 -20.566 -20.280  0.00  0.00    +0.117 C 
BRANCH  13  15
ATOM     14  F   UNL     1      36.015 -16.590 -23.252  0.00  0.00    -0.204 F 
ATOM     15  C   UNL     1      34.067 -19.505 -21.072  0.00  0.00    -0.002 C 
ATOM     16  C   UNL     1      33.831 -19.384 -22.442  0.00  0.00    -0.000 C 
ATOM     17  C   UNL     1      34.961 -18.642 -20.440  0.00  0.00    -0.000 C 
ATOM     18  C   UNL     1      34.489 -18.400 -23.178  0.00  0.00    +0.029 C 
ATOM     19  C   UNL     1      35.619 -17.657 -21.176  0.00  0.00    +0.029 C 
ATOM     20  C   UNL     1      35.383 -17.536 -22.545  0.00  0.00    +0.140 C 
ENDBRANCH  13  15
ENDBRANCH  10  13
ENDBRANCH   6  11
BRANCH   4  21
ATOM     21  C   UNL     1      34.581 -24.067 -14.254  0.00  0.00    +0.117 C 
ATOM     22  C   UNL     1      35.139 -25.483 -14.304  0.00  0.00    +0.028 C 
ATOM     23  C   UNL     1      34.862 -23.405 -12.912  0.00  0.00    +0.028 C 
BRANCH  21  25
ATOM     24  O   UNL     1      32.450 -24.939 -12.539  0.00  0.00    -0.265 OA
ATOM     25  N   UNL     1      33.173 -24.052 -14.557  0.00  0.00    -0.293 N 
ATOM     26  C   UNL     1      32.211 -24.496 -13.659  0.00  0.00    +0.302 C 
ATOM     27  H   UNL     1      32.882 -23.713 -15.435  0.00  0.00    +0.150 HD
BRANCH  26  31
ATOM     28  O   UNL     1      30.330 -23.306 -14.721  0.00  0.00    -0.416 OA
ATOM     29  N   UNL     1      29.914 -25.399 -14.048  0.00  0.00    -0.102 NA
ATOM     30  N   UNL     1      28.758 -24.894 -14.613  0.00  0.00    -0.111 NA
ATOM     31  C   UNL     1      30.804 -24.438 -14.133  0.00  0.00    +0.304 A 
ATOM     32  C   UNL     1      29.047 -23.671 -14.992  0.00  0.00    +0.227 A 
ATOM     33  C   UNL     1      28.199 -22.669 -15.650  0.00  0.00    +0.097 C 
ENDBRANCH  26  31
ENDBRANCH  21  25
ENDBRANCH   4  21
BRANCH   8  34
ATOM     34  O   UNL     1      36.778 -21.010 -18.428  0.00  0.00    -0.370 OA
ATOM     35  H   UNL     1      36.429 -20.161 -18.619  0.00  0.00    +0.211 HD
ENDBRANCH   8  34
TORSDOF 7
ENDMDL
