MODEL 1
REMARK VINA RESULT:     -11.6      0.000      0.000
REMARK  Name = 447734
REMARK  5 active torsions:
REMARK  status: ('A' for Active; 'I' for Inactive)
REMARK    1  A    between atoms: C_3  and  C_19
REMARK    2  A    between atoms: C_9  and  C_13
REMARK    3  A    between atoms: N_18  and  C_24
REMARK    4  A    between atoms: C_21  and  O_27
REMARK    5  A    between atoms: O_27  and  C_28
REMARK                            x       y       z     vdW  Elec       q    Type
REMARK                         _______ _______ _______ _____ _____    ______ ____
ROOT
ATOM      1  C   UNL     1      36.069 -19.880 -21.229  0.00  0.00    +0.000 C 
ATOM      2  C   UNL     1      34.748 -19.815 -21.731  0.00  0.00    +0.000 C 
ATOM      3  C   UNL     1      35.316 -21.386 -19.474  0.00  0.00    +0.054 C 
ATOM      4  C   UNL     1      36.336 -20.670 -20.099  0.00  0.00    +0.005 C 
ATOM      5  C   UNL     1      33.732 -20.542 -21.089  0.00  0.00    +0.000 C 
ATOM      6  C   UNL     1      34.016 -21.323 -19.968  0.00  0.00    +0.005 C 
ATOM      7  C   UNL     1      34.481 -19.024 -22.861  0.00  0.00    +0.003 C 
ATOM      8  C   UNL     1      37.084 -19.152 -21.871  0.00  0.00    +0.000 C 
ATOM      9  C   UNL     1      35.501 -18.309 -23.487  0.00  0.00    +0.031 C 
ATOM     10  C   UNL     1      36.801 -18.372 -22.993  0.00  0.00    +0.003 C 
ENDROOT
BRANCH   9  13
ATOM     11  N   UNL     1      35.737 -16.213 -24.798  0.00  0.00    -0.343 N 
ATOM     12  N   UNL     1      34.421 -17.967 -25.606  0.00  0.00    -0.285 NA
ATOM     13  C   UNL     1      35.208 -17.495 -24.656  0.00  0.00    +0.117 C 
ATOM     14  H   UNL     1      35.526 -15.679 -25.598  0.00  0.00    +0.144 HD
ATOM     15  H   UNL     1      36.323 -15.842 -24.099  0.00  0.00    +0.144 HD
ATOM     16  H   UNL     1      34.221 -17.418 -26.399  0.00  0.00    +0.188 HD
ENDBRANCH   9  13
BRANCH   3  19
ATOM     17  O   UNL     1      36.786 -22.519 -18.071  0.00  0.00    -0.270 OA
ATOM     18  N   UNL     1      34.509 -22.541 -17.506  0.00  0.00    -0.280 N 
ATOM     19  C   UNL     1      35.609 -22.200 -18.304  0.00  0.00    +0.249 C 
ATOM     20  H   UNL     1      33.635 -22.216 -17.819  0.00  0.00    +0.155 HD
BRANCH  18  24
ATOM     21  C   UNL     1      35.665 -24.298 -14.473  0.00  0.00    +0.140 C 
ATOM     22  C   UNL     1      35.683 -23.555 -15.652  0.00  0.00    +0.052 C 
ATOM     23  C   UNL     1      34.455 -24.770 -13.964  0.00  0.00    +0.037 C 
ATOM     24  C   UNL     1      34.490 -23.295 -16.306  0.00  0.00    +0.054 C 
ATOM     25  C   UNL     1      33.263 -24.499 -14.636  0.00  0.00    +0.004 C 
ATOM     26  C   UNL     1      33.281 -23.756 -15.815  0.00  0.00    +0.015 C 
BRANCH  21  27
ATOM     27  O   UNL     1      36.828 -24.564 -13.817  0.00  0.00    -0.479 OA
BRANCH  27  28
ATOM     28  C   UNL     1      37.170 -25.932 -13.635  0.00  0.00    +0.166 C 
ATOM     29  C   UNL     1      38.366 -26.034 -12.700  0.00  0.00    +0.044 C 
ATOM     30  C   UNL     1      37.697 -26.524 -14.933  0.00  0.00    +0.044 C 
ATOM     31  C   UNL     1      39.572 -25.726 -13.588  0.00  0.00    +0.004 C 
ATOM     32  C   UNL     1      39.132 -26.011 -15.023  0.00  0.00    +0.004 C 
ENDBRANCH  27  28
ENDBRANCH  21  27
ENDBRANCH  18  24
ENDBRANCH   3  19
TORSDOF 5
ENDMDL
MODEL 2
REMARK VINA RESULT:     -11.5      7.961     12.149
REMARK  Name = 447734
REMARK  5 active torsions:
REMARK  status: ('A' for Active; 'I' for Inactive)
REMARK    1  A    between atoms: C_3  and  C_19
REMARK    2  A    between atoms: C_9  and  C_13
REMARK    3  A    between atoms: N_18  and  C_24
REMARK    4  A    between atoms: C_21  and  O_27
REMARK    5  A    between atoms: O_27  and  C_28
REMARK                            x       y       z     vdW  Elec       q    Type
REMARK                         _______ _______ _______ _____ _____    ______ ____
ROOT
ATOM      1  C   UNL     1      32.223  -8.842 -23.284  0.00  0.00    +0.000 C 
ATOM      2  C   UNL     1      31.913  -8.348 -21.994  0.00  0.00    +0.000 C 
ATOM      3  C   UNL     1      32.474 -11.076 -22.354  0.00  0.00    +0.054 C 
ATOM      4  C   UNL     1      32.501 -10.209 -23.446  0.00  0.00    +0.005 C 
ATOM      5  C   UNL     1      31.890  -9.234 -20.906  0.00  0.00    +0.000 C 
ATOM      6  C   UNL     1      32.169 -10.589 -21.086  0.00  0.00    +0.005 C 
ATOM      7  C   UNL     1      31.634  -6.980 -21.832  0.00  0.00    +0.003 C 
ATOM      8  C   UNL     1      32.246  -7.955 -24.372  0.00  0.00    +0.000 C 
ATOM      9  C   UNL     1      31.660  -6.113 -22.925  0.00  0.00    +0.031 C 
ATOM     10  C   UNL     1      31.966  -6.600 -24.193  0.00  0.00    +0.003 C 
ENDROOT
BRANCH   9  13
ATOM     11  N   UNL     1      32.162  -3.715 -23.325  0.00  0.00    -0.343 N 
ATOM     12  N   UNL     1      30.340  -4.332 -22.000  0.00  0.00    -0.285 NA
ATOM     13  C   UNL     1      31.370  -4.701 -22.740  0.00  0.00    +0.117 C 
ATOM     14  H   UNL     1      31.947  -2.764 -23.187  0.00  0.00    +0.144 HD
ATOM     15  H   UNL     1      32.937  -3.969 -23.877  0.00  0.00    +0.144 HD
ATOM     16  H   UNL     1      30.140  -3.376 -21.873  0.00  0.00    +0.188 HD
ENDBRANCH   9  13
BRANCH   3  19
ATOM     17  O   UNL     1      32.273 -13.314 -21.752  0.00  0.00    -0.270 OA
ATOM     18  N   UNL     1      33.582 -12.807 -23.633  0.00  0.00    -0.280 N 
ATOM     19  C   UNL     1      32.766 -12.489 -22.538  0.00  0.00    +0.249 C 
ATOM     20  H   UNL     1      33.899 -12.043 -24.166  0.00  0.00    +0.155 HD
BRANCH  18  24
ATOM     21  C   UNL     1      35.089 -16.176 -23.615  0.00  0.00    +0.140 C 
ATOM     22  C   UNL     1      34.666 -14.919 -23.183  0.00  0.00    +0.052 C 
ATOM     23  C   UNL     1      34.849 -16.579 -24.928  0.00  0.00    +0.037 C 
ATOM     24  C   UNL     1      34.010 -14.084 -24.071  0.00  0.00    +0.054 C 
ATOM     25  C   UNL     1      34.187 -15.725 -25.810  0.00  0.00    +0.004 C 
ATOM     26  C   UNL     1      33.764 -14.468 -25.378  0.00  0.00    +0.015 C 
BRANCH  21  27
ATOM     27  O   UNL     1      35.736 -17.009 -22.755  0.00  0.00    -0.479 OA
BRANCH  27  28
ATOM     28  C   UNL     1      36.137 -18.276 -23.262  0.00  0.00    +0.166 C 
ATOM     29  C   UNL     1      35.173 -19.346 -22.771  0.00  0.00    +0.044 C 
ATOM     30  C   UNL     1      37.461 -18.698 -22.645  0.00  0.00    +0.044 C 
ATOM     31  C   UNL     1      35.624 -19.640 -21.340  0.00  0.00    +0.004 C 
ATOM     32  C   UNL     1      37.084 -19.195 -21.251  0.00  0.00    +0.004 C 
ENDBRANCH  27  28
ENDBRANCH  21  27
ENDBRANCH  18  24
ENDBRANCH   3  19
TORSDOF 5
ENDMDL
MODEL 3
REMARK VINA RESULT:     -11.3      0.875      1.248
REMARK  Name = 447734
REMARK  5 active torsions:
REMARK  status: ('A' for Active; 'I' for Inactive)
REMARK    1  A    between atoms: C_3  and  C_19
REMARK    2  A    between atoms: C_9  and  C_13
REMARK    3  A    between atoms: N_18  and  C_24
REMARK    4  A    between atoms: C_21  and  O_27
REMARK    5  A    between atoms: O_27  and  C_28
REMARK                            x       y       z     vdW  Elec       q    Type
REMARK                         _______ _______ _______ _____ _____    ______ ____
ROOT
ATOM      1  C   UNL     1      35.707 -20.137 -20.963  0.00  0.00    +0.000 C 
ATOM      2  C   UNL     1      34.441 -19.949 -21.567  0.00  0.00    +0.000 C 
ATOM      3  C   UNL     1      34.690 -21.608 -19.315  0.00  0.00    +0.054 C 
ATOM      4  C   UNL     1      35.814 -20.970 -19.838  0.00  0.00    +0.005 C 
ATOM      5  C   UNL     1      33.319 -20.599 -21.028  0.00  0.00    +0.000 C 
ATOM      6  C   UNL     1      33.444 -21.423 -19.909  0.00  0.00    +0.005 C 
ATOM      7  C   UNL     1      34.334 -19.116 -22.693  0.00  0.00    +0.003 C 
ATOM      8  C   UNL     1      36.829 -19.486 -21.503  0.00  0.00    +0.000 C 
ATOM      9  C   UNL     1      35.459 -18.478 -23.217  0.00  0.00    +0.031 C 
ATOM     10  C   UNL     1      36.704 -18.663 -22.622  0.00  0.00    +0.003 C 
ENDROOT
BRANCH   9  13
ATOM     11  N   UNL     1      35.874 -16.335 -24.401  0.00  0.00    -0.343 N 
ATOM     12  N   UNL     1      34.684 -18.050 -25.451  0.00  0.00    -0.285 NA
ATOM     13  C   UNL     1      35.331 -17.618 -24.383  0.00  0.00    +0.117 C 
ATOM     14  H   UNL     1      35.777 -15.770 -25.201  0.00  0.00    +0.144 HD
ATOM     15  H   UNL     1      36.357 -15.994 -23.613  0.00  0.00    +0.144 HD
ATOM     16  H   UNL     1      34.597 -17.470 -26.241  0.00  0.00    +0.188 HD
ENDBRANCH   9  13
BRANCH   3  19
ATOM     17  O   UNL     1      35.935 -22.918 -17.851  0.00  0.00    -0.270 OA
ATOM     18  N   UNL     1      33.637 -22.697 -17.427  0.00  0.00    -0.280 N 
ATOM     19  C   UNL     1      34.817 -22.467 -18.148  0.00  0.00    +0.249 C 
ATOM     20  H   UNL     1      32.826 -22.272 -17.786  0.00  0.00    +0.155 HD
BRANCH  18  24
ATOM     21  C   UNL     1      34.395 -24.558 -14.331  0.00  0.00    +0.140 C 
ATOM     22  C   UNL     1      34.569 -23.804 -15.490  0.00  0.00    +0.052 C 
ATOM     23  C   UNL     1      33.116 -24.961 -13.946  0.00  0.00    +0.037 C 
ATOM     24  C   UNL     1      33.461 -23.463 -16.248  0.00  0.00    +0.054 C 
ATOM     25  C   UNL     1      32.011 -24.610 -14.721  0.00  0.00    +0.004 C 
ATOM     26  C   UNL     1      32.185 -23.855 -15.881  0.00  0.00    +0.015 C 
BRANCH  21  27
ATOM     27  O   UNL     1      35.472 -24.902 -13.574  0.00  0.00    -0.479 OA
BRANCH  27  28
ATOM     28  C   UNL     1      36.745 -24.874 -14.209  0.00  0.00    +0.166 C 
ATOM     29  C   UNL     1      37.466 -26.189 -13.953  0.00  0.00    +0.044 C 
ATOM     30  C   UNL     1      37.648 -23.850 -13.541  0.00  0.00    +0.044 C 
ATOM     31  C   UNL     1      38.034 -26.044 -12.541  0.00  0.00    +0.004 C 
ATOM     32  C   UNL     1      38.121 -24.543 -12.265  0.00  0.00    +0.004 C 
ENDBRANCH  27  28
ENDBRANCH  21  27
ENDBRANCH  18  24
ENDBRANCH   3  19
TORSDOF 5
ENDMDL
MODEL 4
REMARK VINA RESULT:     -11.3      3.142      4.886
REMARK  Name = 447734
REMARK  5 active torsions:
REMARK  status: ('A' for Active; 'I' for Inactive)
REMARK    1  A    between atoms: C_3  and  C_19
REMARK    2  A    between atoms: C_9  and  C_13
REMARK    3  A    between atoms: N_18  and  C_24
REMARK    4  A    between atoms: C_21  and  O_27
REMARK    5  A    between atoms: O_27  and  C_28
REMARK                            x       y       z     vdW  Elec       q    Type
REMARK                         _______ _______ _______ _____ _____    ______ ____
ROOT
ATOM      1  C   UNL     1      35.089 -16.755 -23.072  0.00  0.00    +0.000 C 
ATOM      2  C   UNL     1      34.841 -17.357 -24.328  0.00  0.00    +0.000 C 
ATOM      3  C   UNL     1      35.601 -18.941 -22.138  0.00  0.00    +0.054 C 
ATOM      4  C   UNL     1      35.468 -17.561 -21.987  0.00  0.00    +0.005 C 
ATOM      5  C   UNL     1      34.979 -18.748 -24.463  0.00  0.00    +0.000 C 
ATOM      6  C   UNL     1      35.357 -19.534 -23.374  0.00  0.00    +0.005 C 
ATOM      7  C   UNL     1      34.462 -16.550 -25.415  0.00  0.00    +0.003 C 
ATOM      8  C   UNL     1      34.950 -15.363 -22.939  0.00  0.00    +0.000 C 
ATOM      9  C   UNL     1      34.329 -15.170 -25.264  0.00  0.00    +0.031 C 
ATOM     10  C   UNL     1      34.573 -14.577 -24.028  0.00  0.00    +0.003 C 
ENDROOT
BRANCH   9  13
ATOM     11  N   UNL     1      33.782 -12.969 -26.275  0.00  0.00    -0.343 N 
ATOM     12  N   UNL     1      33.712 -14.912 -27.572  0.00  0.00    -0.285 NA
ATOM     13  C   UNL     1      33.936 -14.349 -26.398  0.00  0.00    +0.117 C 
ATOM     14  H   UNL     1      33.515 -12.432 -27.056  0.00  0.00    +0.144 HD
ATOM     15  H   UNL     1      33.941 -12.531 -25.407  0.00  0.00    +0.144 HD
ATOM     16  H   UNL     1      33.446 -14.358 -28.341  0.00  0.00    +0.188 HD
ENDBRANCH   9  13
BRANCH   3  19
ATOM     17  O   UNL     1      37.161 -19.695 -20.585  0.00  0.00    -0.270 OA
ATOM     18  N   UNL     1      34.985 -20.565 -20.451  0.00  0.00    -0.280 N 
ATOM     19  C   UNL     1      35.993 -19.763 -21.004  0.00  0.00    +0.249 C 
ATOM     20  H   UNL     1      34.107 -20.513 -20.893  0.00  0.00    +0.155 HD
BRANCH  18  24
ATOM     21  C   UNL     1      33.998 -22.945 -17.809  0.00  0.00    +0.140 C 
ATOM     22  C   UNL     1      33.920 -22.085 -18.903  0.00  0.00    +0.052 C 
ATOM     23  C   UNL     1      35.220 -23.148 -17.168  0.00  0.00    +0.037 C 
ATOM     24  C   UNL     1      35.065 -21.440 -19.340  0.00  0.00    +0.054 C 
ATOM     25  C   UNL     1      36.363 -22.491 -17.621  0.00  0.00    +0.004 C 
ATOM     26  C   UNL     1      36.285 -21.630 -18.715  0.00  0.00    +0.015 C 
BRANCH  21  27
ATOM     27  O   UNL     1      32.883 -23.587 -17.366  0.00  0.00    -0.479 OA
BRANCH  27  28
ATOM     28  C   UNL     1      32.028 -22.866 -16.486  0.00  0.00    +0.166 C 
ATOM     29  C   UNL     1      32.377 -23.211 -15.046  0.00  0.00    +0.044 C 
ATOM     30  C   UNL     1      30.595 -23.358 -16.619  0.00  0.00    +0.044 C 
ATOM     31  C   UNL     1      31.697 -24.557 -14.799  0.00  0.00    +0.004 C 
ATOM     32  C   UNL     1      30.573 -24.664 -15.829  0.00  0.00    +0.004 C 
ENDBRANCH  27  28
ENDBRANCH  21  27
ENDBRANCH  18  24
ENDBRANCH   3  19
TORSDOF 5
ENDMDL
MODEL 5
REMARK VINA RESULT:     -11.2      3.268     10.950
REMARK  Name = 447734
REMARK  5 active torsions:
REMARK  status: ('A' for Active; 'I' for Inactive)
REMARK    1  A    between atoms: C_3  and  C_19
REMARK    2  A    between atoms: C_9  and  C_13
REMARK    3  A    between atoms: N_18  and  C_24
REMARK    4  A    between atoms: C_21  and  O_27
REMARK    5  A    between atoms: O_27  and  C_28
REMARK                            x       y       z     vdW  Elec       q    Type
REMARK                         _______ _______ _______ _____ _____    ______ ____
ROOT
ATOM      1  C   UNL     1      34.311 -22.386 -18.276  0.00  0.00    +0.000 C 
ATOM      2  C   UNL     1      35.676 -22.371 -17.903  0.00  0.00    +0.000 C 
ATOM      3  C   UNL     1      34.823 -20.939 -20.164  0.00  0.00    +0.054 C 
ATOM      4  C   UNL     1      33.901 -21.664 -19.409  0.00  0.00    +0.005 C 
ATOM      5  C   UNL     1      36.591 -21.635 -18.674  0.00  0.00    +0.000 C 
ATOM      6  C   UNL     1      36.165 -20.925 -19.797  0.00  0.00    +0.005 C 
ATOM      7  C   UNL     1      36.086 -23.092 -16.769  0.00  0.00    +0.003 C 
ATOM      8  C   UNL     1      33.396 -23.121 -17.504  0.00  0.00    +0.000 C 
ATOM      9  C   UNL     1      35.164 -23.818 -16.015  0.00  0.00    +0.031 C 
ATOM     10  C   UNL     1      33.822 -23.832 -16.382  0.00  0.00    +0.003 C 
ENDROOT
BRANCH   9  13
ATOM     11  N   UNL     1      35.800 -23.928 -13.618  0.00  0.00    -0.343 N 
ATOM     12  N   UNL     1      35.835 -25.857 -14.935  0.00  0.00    -0.285 NA
ATOM     13  C   UNL     1      35.605 -24.559 -14.844  0.00  0.00    +0.117 C 
ATOM     14  H   UNL     1      36.099 -24.449 -12.837  0.00  0.00    +0.144 HD
ATOM     15  H   UNL     1      35.638 -22.960 -13.530  0.00  0.00    +0.144 HD
ATOM     16  H   UNL     1      36.133 -26.361 -14.144  0.00  0.00    +0.188 HD
ENDBRANCH   9  13
BRANCH   3  19
ATOM     17  O   UNL     1      33.197 -20.290 -21.696  0.00  0.00    -0.270 OA
ATOM     18  N   UNL     1      35.354 -19.401 -21.955  0.00  0.00    -0.280 N 
ATOM     19  C   UNL     1      34.382 -20.197 -21.334  0.00  0.00    +0.249 C 
ATOM     20  H   UNL     1      36.251 -19.430 -21.554  0.00  0.00    +0.155 HD
BRANCH  18  24
ATOM     21  C   UNL     1      35.152 -16.357 -24.033  0.00  0.00    +0.140 C 
ATOM     22  C   UNL     1      35.292 -17.186 -22.921  0.00  0.00    +0.052 C 
ATOM     23  C   UNL     1      34.933 -16.913 -25.294  0.00  0.00    +0.037 C 
ATOM     24  C   UNL     1      35.212 -18.558 -23.085  0.00  0.00    +0.054 C 
ATOM     25  C   UNL     1      34.853 -18.297 -25.441  0.00  0.00    +0.004 C 
ATOM     26  C   UNL     1      34.994 -19.126 -24.329  0.00  0.00    +0.015 C 
BRANCH  21  27
ATOM     27  O   UNL     1      35.228 -15.006 -23.890  0.00  0.00    -0.479 OA
BRANCH  27  28
ATOM     28  C   UNL     1      34.012 -14.312 -23.641  0.00  0.00    +0.166 C 
ATOM     29  C   UNL     1      33.216 -14.207 -24.933  0.00  0.00    +0.044 C 
ATOM     30  C   UNL     1      34.293 -12.859 -23.291  0.00  0.00    +0.044 C 
ATOM     31  C   UNL     1      33.864 -13.046 -25.688  0.00  0.00    +0.004 C 
ATOM     32  C   UNL     1      34.581 -12.199 -24.637  0.00  0.00    +0.004 C 
ENDBRANCH  27  28
ENDBRANCH  21  27
ENDBRANCH  18  24
ENDBRANCH   3  19
TORSDOF 5
ENDMDL
MODEL 6
REMARK VINA RESULT:     -10.9      9.265     15.385
REMARK  Name = 447734
REMARK  5 active torsions:
REMARK  status: ('A' for Active; 'I' for Inactive)
REMARK    1  A    between atoms: C_3  and  C_19
REMARK    2  A    between atoms: C_9  and  C_13
REMARK    3  A    between atoms: N_18  and  C_24
REMARK    4  A    between atoms: C_21  and  O_27
REMARK    5  A    between atoms: O_27  and  C_28
REMARK                            x       y       z     vdW  Elec       q    Type
REMARK                         _______ _______ _______ _____ _____    ______ ____
ROOT
ATOM      1  C   UNL     1      34.068 -14.143 -22.876  0.00  0.00    +0.000 C 
ATOM      2  C   UNL     1      34.012 -14.784 -21.616  0.00  0.00    +0.000 C 
ATOM      3  C   UNL     1      32.726 -12.316 -21.994  0.00  0.00    +0.054 C 
ATOM      4  C   UNL     1      33.419 -12.909 -23.048  0.00  0.00    +0.005 C 
ATOM      5  C   UNL     1      33.309 -14.173 -20.565  0.00  0.00    +0.000 C 
ATOM      6  C   UNL     1      32.671 -12.947 -20.754  0.00  0.00    +0.005 C 
ATOM      7  C   UNL     1      34.661 -16.018 -21.443  0.00  0.00    +0.003 C 
ATOM      8  C   UNL     1      34.771 -14.755 -23.927  0.00  0.00    +0.000 C 
ATOM      9  C   UNL     1      35.355 -16.611 -22.498  0.00  0.00    +0.031 C 
ATOM     10  C   UNL     1      35.410 -15.980 -23.738  0.00  0.00    +0.003 C 
ENDROOT
BRANCH   9  13
ATOM     11  N   UNL     1      35.678 -18.732 -21.248  0.00  0.00    -0.343 N 
ATOM     12  N   UNL     1      36.977 -18.266 -23.133  0.00  0.00    -0.285 NA
ATOM     13  C   UNL     1      36.022 -17.889 -22.303  0.00  0.00    +0.117 C 
ATOM     14  H   UNL     1      36.141 -19.593 -21.135  0.00  0.00    +0.144 HD
ATOM     15  H   UNL     1      34.970 -18.467 -20.617  0.00  0.00    +0.144 HD
ATOM     16  H   UNL     1      37.430 -19.131 -23.003  0.00  0.00    +0.188 HD
ENDBRANCH   9  13
BRANCH   3  19
ATOM     17  O   UNL     1      30.817 -11.004 -22.213  0.00  0.00    -0.270 OA
ATOM     18  N   UNL     1      32.898  -9.923 -22.312  0.00  0.00    -0.280 N 
ATOM     19  C   UNL     1      32.058 -11.039 -22.189  0.00  0.00    +0.249 C 
ATOM     20  H   UNL     1      33.863 -10.107 -22.275  0.00  0.00    +0.155 HD
BRANCH  18  24
ATOM     21  C   UNL     1      32.388  -6.622 -23.884  0.00  0.00    +0.140 C 
ATOM     22  C   UNL     1      32.741  -7.960 -23.714  0.00  0.00    +0.052 C 
ATOM     23  C   UNL     1      31.835  -5.907 -22.821  0.00  0.00    +0.037 C 
ATOM     24  C   UNL     1      32.537  -8.564 -22.485  0.00  0.00    +0.054 C 
ATOM     25  C   UNL     1      31.637  -6.530 -21.589  0.00  0.00    +0.004 C 
ATOM     26  C   UNL     1      31.990  -7.868 -21.420  0.00  0.00    +0.015 C 
BRANCH  21  27
ATOM     27  O   UNL     1      32.582  -6.013 -25.085  0.00  0.00    -0.479 OA
BRANCH  27  28
ATOM     28  C   UNL     1      33.394  -4.845 -25.095  0.00  0.00    +0.166 C 
ATOM     29  C   UNL     1      33.145  -4.068 -26.379  0.00  0.00    +0.044 C 
ATOM     30  C   UNL     1      34.863  -5.223 -25.201  0.00  0.00    +0.044 C 
ATOM     31  C   UNL     1      33.974  -4.799 -27.436  0.00  0.00    +0.004 C 
ATOM     32  C   UNL     1      35.057  -5.565 -26.676  0.00  0.00    +0.004 C 
ENDBRANCH  27  28
ENDBRANCH  21  27
ENDBRANCH  18  24
ENDBRANCH   3  19
TORSDOF 5
ENDMDL
MODEL 7
REMARK VINA RESULT:     -10.8      1.622      3.592
REMARK  Name = 447734
REMARK  5 active torsions:
REMARK  status: ('A' for Active; 'I' for Inactive)
REMARK    1  A    between atoms: C_3  and  C_19
REMARK    2  A    between atoms: C_9  and  C_13
REMARK    3  A    between atoms: N_18  and  C_24
REMARK    4  A    between atoms: C_21  and  O_27
REMARK    5  A    between atoms: O_27  and  C_28
REMARK                            x       y       z     vdW  Elec       q    Type
REMARK                         _______ _______ _______ _____ _____    ______ ____
ROOT
ATOM      1  C   UNL     1      36.243 -19.751 -21.357  0.00  0.00    +0.000 C 
ATOM      2  C   UNL     1      34.907 -19.781 -21.824  0.00  0.00    +0.000 C 
ATOM      3  C   UNL     1      35.640 -21.283 -19.566  0.00  0.00    +0.054 C 
ATOM      4  C   UNL     1      36.593 -20.508 -20.227  0.00  0.00    +0.005 C 
ATOM      5  C   UNL     1      33.960 -20.566 -21.147  0.00  0.00    +0.000 C 
ATOM      6  C   UNL     1      34.326 -21.312 -20.025  0.00  0.00    +0.005 C 
ATOM      7  C   UNL     1      34.558 -19.024 -22.955  0.00  0.00    +0.003 C 
ATOM      8  C   UNL     1      37.190 -18.965 -22.035  0.00  0.00    +0.000 C 
ATOM      9  C   UNL     1      35.511 -18.249 -23.616  0.00  0.00    +0.031 C 
ATOM     10  C   UNL     1      36.825 -18.220 -23.157  0.00  0.00    +0.003 C 
ENDROOT
BRANCH   9  13
ATOM     11  N   UNL     1      35.642 -16.192 -25.000  0.00  0.00    -0.343 N 
ATOM     12  N   UNL     1      34.286 -17.975 -25.664  0.00  0.00    -0.285 NA
ATOM     13  C   UNL     1      35.133 -17.471 -24.785  0.00  0.00    +0.117 C 
ATOM     14  H   UNL     1      35.373 -15.683 -25.799  0.00  0.00    +0.144 HD
ATOM     15  H   UNL     1      36.272 -15.798 -24.354  0.00  0.00    +0.144 HD
ATOM     16  H   UNL     1      34.028 -17.450 -26.457  0.00  0.00    +0.188 HD
ENDBRANCH   9  13
BRANCH   3  19
ATOM     17  O   UNL     1      37.216 -22.331 -18.214  0.00  0.00    -0.270 OA
ATOM     18  N   UNL     1      34.970 -22.425 -17.540  0.00  0.00    -0.280 N 
ATOM     19  C   UNL     1      36.018 -22.060 -18.397  0.00  0.00    +0.249 C 
ATOM     20  H   UNL     1      34.070 -22.138 -17.818  0.00  0.00    +0.155 HD
BRANCH  18  24
ATOM     21  C   UNL     1      33.964 -24.501 -14.659  0.00  0.00    +0.140 C 
ATOM     22  C   UNL     1      33.898 -23.786 -15.854  0.00  0.00    +0.052 C 
ATOM     23  C   UNL     1      35.166 -24.574 -13.955  0.00  0.00    +0.037 C 
ATOM     24  C   UNL     1      35.036 -23.153 -16.327  0.00  0.00    +0.054 C 
ATOM     25  C   UNL     1      36.302 -23.931 -14.445  0.00  0.00    +0.004 C 
ATOM     26  C   UNL     1      36.237 -23.215 -15.640  0.00  0.00    +0.015 C 
BRANCH  21  27
ATOM     27  O   UNL     1      32.856 -25.129 -14.180  0.00  0.00    -0.479 OA
BRANCH  27  28
ATOM     28  C   UNL     1      31.828 -24.306 -13.641  0.00  0.00    +0.166 C 
ATOM     29  C   UNL     1      30.596 -25.154 -13.361  0.00  0.00    +0.044 C 
ATOM     30  C   UNL     1      31.336 -23.319 -14.687  0.00  0.00    +0.044 C 
ATOM     31  C   UNL     1      29.922 -25.310 -14.724  0.00  0.00    +0.004 C 
ATOM     32  C   UNL     1      30.421 -24.150 -15.585  0.00  0.00    +0.004 C 
ENDBRANCH  27  28
ENDBRANCH  21  27
ENDBRANCH  18  24
ENDBRANCH   3  19
TORSDOF 5
ENDMDL
MODEL 8
REMARK VINA RESULT:     -10.7      8.916     15.120
REMARK  Name = 447734
REMARK  5 active torsions:
REMARK  status: ('A' for Active; 'I' for Inactive)
REMARK    1  A    between atoms: C_3  and  C_19
REMARK    2  A    between atoms: C_9  and  C_13
REMARK    3  A    between atoms: N_18  and  C_24
REMARK    4  A    between atoms: C_21  and  O_27
REMARK    5  A    between atoms: O_27  and  C_28
REMARK                            x       y       z     vdW  Elec       q    Type
REMARK                         _______ _______ _______ _____ _____    ______ ____
ROOT
ATOM      1  C   UNL     1      34.312 -14.774 -22.131  0.00  0.00    +0.000 C 
ATOM      2  C   UNL     1      34.630 -15.106 -23.469  0.00  0.00    +0.000 C 
ATOM      3  C   UNL     1      33.248 -12.727 -22.904  0.00  0.00    +0.054 C 
ATOM      4  C   UNL     1      33.621 -13.581 -21.865  0.00  0.00    +0.005 C 
ATOM      5  C   UNL     1      34.247 -14.236 -24.503  0.00  0.00    +0.000 C 
ATOM      6  C   UNL     1      33.561 -13.054 -24.220  0.00  0.00    +0.005 C 
ATOM      7  C   UNL     1      35.322 -16.300 -23.735  0.00  0.00    +0.003 C 
ATOM      8  C   UNL     1      34.695 -15.645 -21.097  0.00  0.00    +0.000 C 
ATOM      9  C   UNL     1      35.693 -17.154 -22.696  0.00  0.00    +0.031 C 
ATOM     10  C   UNL     1      35.381 -16.827 -21.380  0.00  0.00    +0.003 C 
ENDROOT
BRANCH   9  13
ATOM     11  N   UNL     1      37.763 -18.525 -22.690  0.00  0.00    -0.343 N 
ATOM     12  N   UNL     1      35.774 -19.397 -23.552  0.00  0.00    -0.285 NA
ATOM     13  C   UNL     1      36.409 -18.386 -22.988  0.00  0.00    +0.117 C 
ATOM     14  H   UNL     1      38.228 -19.369 -22.896  0.00  0.00    +0.144 HD
ATOM     15  H   UNL     1      38.255 -17.781 -22.273  0.00  0.00    +0.144 HD
ATOM     16  H   UNL     1      36.256 -20.233 -23.750  0.00  0.00    +0.188 HD
ENDBRANCH   9  13
BRANCH   3  19
ATOM     17  O   UNL     1      31.406 -11.559 -22.094  0.00  0.00    -0.270 OA
ATOM     18  N   UNL     1      33.208 -10.307 -22.927  0.00  0.00    -0.280 N 
ATOM     19  C   UNL     1      32.534 -11.495 -22.612  0.00  0.00    +0.249 C 
ATOM     20  H   UNL     1      34.097 -10.416 -23.334  0.00  0.00    +0.155 HD
BRANCH  18  24
ATOM     21  C   UNL     1      32.303  -6.800 -23.633  0.00  0.00    +0.140 C 
ATOM     22  C   UNL     1      32.725  -8.115 -23.822  0.00  0.00    +0.052 C 
ATOM     23  C   UNL     1      31.938  -6.360 -22.360  0.00  0.00    +0.037 C 
ATOM     24  C   UNL     1      32.778  -8.972 -22.735  0.00  0.00    +0.054 C 
ATOM     25  C   UNL     1      31.998  -7.236 -21.276  0.00  0.00    +0.004 C 
ATOM     26  C   UNL     1      32.420  -8.551 -21.465  0.00  0.00    +0.015 C 
BRANCH  21  27
ATOM     27  O   UNL     1      32.245  -5.944 -24.690  0.00  0.00    -0.479 OA
BRANCH  27  28
ATOM     28  C   UNL     1      33.171  -4.865 -24.699  0.00  0.00    +0.166 C 
ATOM     29  C   UNL     1      33.004  -4.067 -25.984  0.00  0.00    +0.044 C 
ATOM     30  C   UNL     1      34.595  -5.388 -24.803  0.00  0.00    +0.044 C 
ATOM     31  C   UNL     1      33.755  -4.878 -27.039  0.00  0.00    +0.004 C 
ATOM     32  C   UNL     1      34.755  -5.749 -26.278  0.00  0.00    +0.004 C 
ENDBRANCH  27  28
ENDBRANCH  21  27
ENDBRANCH  18  24
ENDBRANCH   3  19
TORSDOF 5
ENDMDL
MODEL 9
REMARK VINA RESULT:     -10.5      6.948     11.253
REMARK  Name = 447734
REMARK  5 active torsions:
REMARK  status: ('A' for Active; 'I' for Inactive)
REMARK    1  A    between atoms: C_3  and  C_19
REMARK    2  A    between atoms: C_9  and  C_13
REMARK    3  A    between atoms: N_18  and  C_24
REMARK    4  A    between atoms: C_21  and  O_27
REMARK    5  A    between atoms: O_27  and  C_28
REMARK                            x       y       z     vdW  Elec       q    Type
REMARK                         _______ _______ _______ _____ _____    ______ ____
ROOT
ATOM      1  C   UNL     1      32.713  -9.907 -22.864  0.00  0.00    +0.000 C 
ATOM      2  C   UNL     1      33.637  -9.247 -23.708  0.00  0.00    +0.000 C 
ATOM      3  C   UNL     1      33.650 -12.050 -23.534  0.00  0.00    +0.054 C 
ATOM      4  C   UNL     1      32.733 -11.310 -22.788  0.00  0.00    +0.005 C 
ATOM      5  C   UNL     1      34.553 -10.008 -24.452  0.00  0.00    +0.000 C 
ATOM      6  C   UNL     1      34.559 -11.400 -24.364  0.00  0.00    +0.005 C 
ATOM      7  C   UNL     1      33.617  -7.844 -23.784  0.00  0.00    +0.003 C 
ATOM      8  C   UNL     1      31.796  -9.146 -22.120  0.00  0.00    +0.000 C 
ATOM      9  C   UNL     1      32.700  -7.104 -23.038  0.00  0.00    +0.031 C 
ATOM     10  C   UNL     1      31.792  -7.753 -22.207  0.00  0.00    +0.003 C 
ENDROOT
BRANCH   9  13
ATOM     11  N   UNL     1      33.045  -4.998 -24.306  0.00  0.00    -0.343 N 
ATOM     12  N   UNL     1      32.354  -4.930 -22.076  0.00  0.00    -0.285 NA
ATOM     13  C   UNL     1      32.693  -5.652 -23.128  0.00  0.00    +0.117 C 
ATOM     14  H   UNL     1      33.033  -4.013 -24.345  0.00  0.00    +0.144 HD
ATOM     15  H   UNL     1      33.305  -5.519 -25.101  0.00  0.00    +0.144 HD
ATOM     16  H   UNL     1      32.347  -3.947 -22.134  0.00  0.00    +0.188 HD
ENDBRANCH   9  13
BRANCH   3  19
ATOM     17  O   UNL     1      33.051 -14.052 -22.510  0.00  0.00    -0.270 OA
ATOM     18  N   UNL     1      34.346 -14.174 -24.464  0.00  0.00    -0.280 N 
ATOM     19  C   UNL     1      33.657 -13.502 -23.445  0.00  0.00    +0.249 C 
ATOM     20  H   UNL     1      34.778 -13.601 -25.137  0.00  0.00    +0.155 HD
BRANCH  18  24
ATOM     21  C   UNL     1      35.486 -17.651 -23.985  0.00  0.00    +0.140 C 
ATOM     22  C   UNL     1      35.332 -16.278 -23.800  0.00  0.00    +0.052 C 
ATOM     23  C   UNL     1      34.806 -18.296 -25.018  0.00  0.00    +0.037 C 
ATOM     24  C   UNL     1      34.501 -15.569 -24.651  0.00  0.00    +0.054 C 
ATOM     25  C   UNL     1      33.973 -17.567 -25.867  0.00  0.00    +0.004 C 
ATOM     26  C   UNL     1      33.819 -16.194 -25.682  0.00  0.00    +0.015 C 
BRANCH  21  27
ATOM     27  O   UNL     1      36.298 -18.363 -23.158  0.00  0.00    -0.479 OA
BRANCH  27  28
ATOM     28  C   UNL     1      36.127 -18.170 -21.759  0.00  0.00    +0.166 C 
ATOM     29  C   UNL     1      37.240 -18.888 -21.010  0.00  0.00    +0.044 C 
ATOM     30  C   UNL     1      34.873 -18.881 -21.275  0.00  0.00    +0.044 C 
ATOM     31  C   UNL     1      36.800 -20.352 -20.983  0.00  0.00    +0.004 C 
ATOM     32  C   UNL     1      35.285 -20.348 -21.185  0.00  0.00    +0.004 C 
ENDBRANCH  27  28
ENDBRANCH  21  27
ENDBRANCH  18  24
ENDBRANCH   3  19
TORSDOF 5
ENDMDL
