MODEL 1
REMARK VINA RESULT:     -13.0      0.000      0.000
REMARK  Name = 71351
REMARK  4 active torsions:
REMARK  status: ('A' for Active; 'I' for Inactive)
REMARK    1  A    between atoms: N_1  and  C_18
REMARK    2  A    between atoms: C_2  and  C_11
REMARK    3  A    between atoms: C_18  and  C_19
REMARK    4  A    between atoms: C_19  and  C_23
REMARK                            x       y       z     vdW  Elec       q    Type
REMARK                         _______ _______ _______ _____ _____    ______ ____
ROOT
ATOM      1  N   UNL     1      35.660 -19.328 -21.249  0.00  0.00    +0.387 N 
ATOM      2  C   UNL     1      35.561 -17.799 -23.750  0.00  0.00    +0.039 C 
ATOM      3  C   UNL     1      35.674 -17.123 -22.373  0.00  0.00    -0.017 C 
ATOM      4  C   UNL     1      34.904 -19.181 -23.601  0.00  0.00    -0.017 C 
ATOM      5  C   UNL     1      36.360 -18.042 -21.359  0.00  0.00    -0.077 C 
ATOM      6  C   UNL     1      35.619 -20.023 -22.542  0.00  0.00    -0.077 C 
ATOM      7  H   UNL     1      34.699 -19.140 -20.963  0.00  0.00    -0.080 HD
ENDROOT
BRANCH   2  11
ATOM      8  F   UNL     1      33.394 -11.731 -25.676  0.00  0.00    -0.204 F 
ATOM      9  O   UNL     1      33.826 -16.431 -26.597  0.00  0.00    -0.354 OA
ATOM     10  N   UNL     1      34.396 -17.482 -25.888  0.00  0.00    -0.081 NA
ATOM     11  C   UNL     1      34.865 -16.929 -24.772  0.00  0.00    +0.100 A 
ATOM     12  C   UNL     1      34.632 -15.547 -24.703  0.00  0.00    +0.054 A 
ATOM     13  C   UNL     1      33.970 -15.278 -25.888  0.00  0.00    +0.179 A 
ATOM     14  C   UNL     1      34.888 -14.495 -23.812  0.00  0.00    +0.007 C 
ATOM     15  C   UNL     1      33.527 -14.015 -26.271  0.00  0.00    +0.070 C 
ATOM     16  C   UNL     1      34.458 -13.208 -24.165  0.00  0.00    +0.030 C 
ATOM     17  C   UNL     1      33.791 -12.975 -25.373  0.00  0.00    +0.143 C 
ENDBRANCH   2  11
BRANCH   1  18
ATOM     18  C   UNL     1      36.294 -20.171 -20.234  0.00  0.00    -0.076 C 
BRANCH  18  19
ATOM     19  C   UNL     1      35.843 -21.614 -20.404  0.00  0.00    -0.007 C 
BRANCH  19  23
ATOM     20  O   UNL     1      36.558 -22.713 -17.960  0.00  0.00    -0.274 OA
ATOM     21  N   UNL     1      34.368 -22.957 -17.181  0.00  0.00    -0.211 N 
ATOM     22  N   UNL     1      32.569 -22.213 -18.542  0.00  0.00    -0.395 NA
ATOM     23  C   UNL     1      34.813 -21.977 -19.374  0.00  0.00    +0.123 C 
ATOM     24  C   UNL     1      33.480 -21.830 -19.494  0.00  0.00    +0.097 C 
ATOM     25  C   UNL     1      35.343 -22.583 -18.111  0.00  0.00    +0.241 C 
ATOM     26  C   UNL     1      33.008 -22.751 -17.445  0.00  0.00    +0.188 C 
ATOM     27  C   UNL     1      32.833 -21.199 -20.700  0.00  0.00    +0.062 C 
ATOM     28  C   UNL     1      32.029 -23.182 -16.385  0.00  0.00    +0.023 C 
ATOM     29  C   UNL     1      34.777 -23.536 -15.985  0.00  0.00    +0.074 C 
ATOM     30  C   UNL     1      32.500 -23.733 -15.256  0.00  0.00    +0.001 C 
ATOM     31  C   UNL     1      33.907 -23.917 -15.046  0.00  0.00    +0.016 C 
ATOM     32  C   UNL     1      30.567 -22.975 -16.641  0.00  0.00    +0.035 C 
ENDBRANCH  19  23
ENDBRANCH  18  19
ENDBRANCH   1  18
TORSDOF 4
ENDMDL
MODEL 2
REMARK VINA RESULT:     -12.9      1.197      2.126
REMARK  Name = 71351
REMARK  4 active torsions:
REMARK  status: ('A' for Active; 'I' for Inactive)
REMARK    1  A    between atoms: N_1  and  C_18
REMARK    2  A    between atoms: C_2  and  C_11
REMARK    3  A    between atoms: C_18  and  C_19
REMARK    4  A    between atoms: C_19  and  C_23
REMARK                            x       y       z     vdW  Elec       q    Type
REMARK                         _______ _______ _______ _____ _____    ______ ____
ROOT
ATOM      1  N   UNL     1      36.036 -19.598 -20.787  0.00  0.00    +0.387 N 
ATOM      2  C   UNL     1      35.540 -18.573 -23.491  0.00  0.00    +0.039 C 
ATOM      3  C   UNL     1      36.579 -17.945 -22.548  0.00  0.00    -0.017 C 
ATOM      4  C   UNL     1      34.458 -19.293 -22.670  0.00  0.00    -0.017 C 
ATOM      5  C   UNL     1      37.123 -18.975 -21.555  0.00  0.00    -0.077 C 
ATOM      6  C   UNL     1      35.080 -20.275 -21.673  0.00  0.00    -0.077 C 
ATOM      7  H   UNL     1      35.537 -18.858 -20.292  0.00  0.00    -0.080 HD
ENDROOT
BRANCH   2  11
ATOM      8  F   UNL     1      33.748 -12.257 -24.947  0.00  0.00    -0.204 F 
ATOM      9  O   UNL     1      34.099 -16.855 -26.312  0.00  0.00    -0.354 OA
ATOM     10  N   UNL     1      34.571 -17.994 -25.672  0.00  0.00    -0.081 NA
ATOM     11  C   UNL     1      34.962 -17.577 -24.470  0.00  0.00    +0.100 A 
ATOM     12  C   UNL     1      34.771 -16.200 -24.278  0.00  0.00    +0.054 A 
ATOM     13  C   UNL     1      34.220 -15.786 -25.478  0.00  0.00    +0.179 A 
ATOM     14  C   UNL     1      34.985 -15.254 -23.264  0.00  0.00    +0.007 C 
ATOM     15  C   UNL     1      33.855 -14.474 -25.762  0.00  0.00    +0.070 C 
ATOM     16  C   UNL     1      34.629 -13.922 -23.516  0.00  0.00    +0.030 C 
ATOM     17  C   UNL     1      34.075 -13.541 -24.743  0.00  0.00    +0.143 C 
ENDBRANCH   2  11
BRANCH   1  18
ATOM     18  C   UNL     1      36.577 -20.537 -19.804  0.00  0.00    -0.076 C 
BRANCH  18  19
ATOM     19  C   UNL     1      35.895 -21.889 -19.951  0.00  0.00    -0.007 C 
BRANCH  19  23
ATOM     20  O   UNL     1      33.214 -22.522 -19.617  0.00  0.00    -0.274 OA
ATOM     21  N   UNL     1      33.393 -23.039 -17.345  0.00  0.00    -0.211 N 
ATOM     22  N   UNL     1      35.522 -22.924 -16.299  0.00  0.00    -0.395 NA
ATOM     23  C   UNL     1      35.356 -22.362 -18.632  0.00  0.00    +0.123 C 
ATOM     24  C   UNL     1      36.062 -22.528 -17.497  0.00  0.00    +0.097 C 
ATOM     25  C   UNL     1      33.886 -22.644 -18.593  0.00  0.00    +0.241 C 
ATOM     26  C   UNL     1      34.246 -23.162 -16.243  0.00  0.00    +0.188 C 
ATOM     27  C   UNL     1      37.552 -22.313 -17.423  0.00  0.00    +0.062 C 
ATOM     28  C   UNL     1      33.629 -23.596 -14.939  0.00  0.00    +0.023 C 
ATOM     29  C   UNL     1      32.035 -23.311 -17.223  0.00  0.00    +0.074 C 
ATOM     30  C   UNL     1      32.311 -23.841 -14.899  0.00  0.00    +0.001 C 
ATOM     31  C   UNL     1      31.489 -23.697 -16.066  0.00  0.00    +0.016 C 
ATOM     32  C   UNL     1      34.519 -23.735 -13.742  0.00  0.00    +0.035 C 
ENDBRANCH  19  23
ENDBRANCH  18  19
ENDBRANCH   1  18
TORSDOF 4
ENDMDL
MODEL 3
REMARK VINA RESULT:     -12.4      3.640     10.434
REMARK  Name = 71351
REMARK  4 active torsions:
REMARK  status: ('A' for Active; 'I' for Inactive)
REMARK    1  A    between atoms: N_1  and  C_18
REMARK    2  A    between atoms: C_2  and  C_11
REMARK    3  A    between atoms: C_18  and  C_19
REMARK    4  A    between atoms: C_19  and  C_23
REMARK                            x       y       z     vdW  Elec       q    Type
REMARK                         _______ _______ _______ _____ _____    ______ ____
ROOT
ATOM      1  N   UNL     1      34.647 -20.605 -20.474  0.00  0.00    +0.387 N 
ATOM      2  C   UNL     1      34.428 -22.757 -18.492  0.00  0.00    +0.039 C 
ATOM      3  C   UNL     1      33.237 -21.864 -18.876  0.00  0.00    -0.017 C 
ATOM      4  C   UNL     1      35.746 -22.012 -18.760  0.00  0.00    -0.017 C 
ATOM      5  C   UNL     1      33.381 -21.329 -20.303  0.00  0.00    -0.077 C 
ATOM      6  C   UNL     1      35.797 -21.473 -20.192  0.00  0.00    -0.077 C 
ATOM      7  H   UNL     1      34.662 -19.835 -19.804  0.00  0.00    -0.080 HD
ENDROOT
BRANCH   2  11
ATOM      8  F   UNL     1      30.699 -24.146 -13.071  0.00  0.00    -0.204 F 
ATOM      9  O   UNL     1      35.007 -24.128 -15.210  0.00  0.00    -0.354 OA
ATOM     10  N   UNL     1      35.431 -23.723 -16.470  0.00  0.00    -0.081 NA
ATOM     11  C   UNL     1      34.332 -23.283 -17.078  0.00  0.00    +0.100 A 
ATOM     12  C   UNL     1      33.185 -23.377 -16.276  0.00  0.00    +0.054 A 
ATOM     13  C   UNL     1      33.666 -23.921 -15.098  0.00  0.00    +0.179 A 
ATOM     14  C   UNL     1      31.818 -23.079 -16.381  0.00  0.00    +0.007 C 
ATOM     15  C   UNL     1      32.880 -24.202 -13.985  0.00  0.00    +0.070 C 
ATOM     16  C   UNL     1      30.995 -23.350 -15.278  0.00  0.00    +0.030 C 
ATOM     17  C   UNL     1      31.518 -23.901 -14.104  0.00  0.00    +0.143 C 
ENDBRANCH   2  11
BRANCH   1  18
ATOM     18  C   UNL     1      34.742 -20.052 -21.825  0.00  0.00    -0.076 C 
BRANCH  18  19
ATOM     19  C   UNL     1      35.787 -18.947 -21.860  0.00  0.00    -0.007 C 
BRANCH  19  23
ATOM     20  O   UNL     1      35.421 -16.361 -20.925  0.00  0.00    -0.274 OA
ATOM     21  N   UNL     1      34.736 -15.481 -22.979  0.00  0.00    -0.211 N 
ATOM     22  N   UNL     1      34.677 -16.902 -24.881  0.00  0.00    -0.395 NA
ATOM     23  C   UNL     1      35.359 -17.834 -22.772  0.00  0.00    +0.123 C 
ATOM     24  C   UNL     1      35.106 -17.938 -24.091  0.00  0.00    +0.097 C 
ATOM     25  C   UNL     1      35.179 -16.496 -22.124  0.00  0.00    +0.241 C 
ATOM     26  C   UNL     1      34.503 -15.736 -24.335  0.00  0.00    +0.188 C 
ATOM     27  C   UNL     1      35.290 -19.221 -24.859  0.00  0.00    +0.062 C 
ATOM     28  C   UNL     1      34.030 -14.583 -25.181  0.00  0.00    +0.023 C 
ATOM     29  C   UNL     1      34.534 -14.210 -22.453  0.00  0.00    +0.074 C 
ATOM     30  C   UNL     1      33.858 -13.386 -24.602  0.00  0.00    +0.001 C 
ATOM     31  C   UNL     1      34.115 -13.188 -23.205  0.00  0.00    +0.016 C 
ATOM     32  C   UNL     1      33.772 -14.828 -26.636  0.00  0.00    +0.035 C 
ENDBRANCH  19  23
ENDBRANCH  18  19
ENDBRANCH   1  18
TORSDOF 4
ENDMDL
MODEL 4
REMARK VINA RESULT:     -12.3      3.360     10.507
REMARK  Name = 71351
REMARK  4 active torsions:
REMARK  status: ('A' for Active; 'I' for Inactive)
REMARK    1  A    between atoms: N_1  and  C_18
REMARK    2  A    between atoms: C_2  and  C_11
REMARK    3  A    between atoms: C_18  and  C_19
REMARK    4  A    between atoms: C_19  and  C_23
REMARK                            x       y       z     vdW  Elec       q    Type
REMARK                         _______ _______ _______ _____ _____    ______ ____
ROOT
ATOM      1  N   UNL     1      34.596 -19.731 -21.630  0.00  0.00    +0.387 N 
ATOM      2  C   UNL     1      34.853 -21.907 -19.680  0.00  0.00    +0.039 C 
ATOM      3  C   UNL     1      33.568 -21.076 -19.825  0.00  0.00    -0.017 C 
ATOM      4  C   UNL     1      36.061 -21.091 -20.169  0.00  0.00    -0.017 C 
ATOM      5  C   UNL     1      33.421 -20.524 -21.245  0.00  0.00    -0.077 C 
ATOM      6  C   UNL     1      35.822 -20.539 -21.577  0.00  0.00    -0.077 C 
ATOM      7  H   UNL     1      34.694 -18.967 -20.961  0.00  0.00    -0.080 HD
ENDROOT
BRANCH   2  11
ATOM      8  F   UNL     1      32.215 -24.502 -14.064  0.00  0.00    -0.204 F 
ATOM      9  O   UNL     1      36.100 -23.041 -16.494  0.00  0.00    -0.354 OA
ATOM     10  N   UNL     1      36.270 -22.506 -17.766  0.00  0.00    -0.081 NA
ATOM     11  C   UNL     1      35.044 -22.448 -18.281  0.00  0.00    +0.100 A 
ATOM     12  C   UNL     1      34.056 -22.924 -17.405  0.00  0.00    +0.054 A 
ATOM     13  C   UNL     1      34.778 -23.289 -16.282  0.00  0.00    +0.179 A 
ATOM     14  C   UNL     1      32.664 -23.094 -17.406  0.00  0.00    +0.007 C 
ATOM     15  C   UNL     1      34.215 -23.825 -15.128  0.00  0.00    +0.070 C 
ATOM     16  C   UNL     1      32.063 -23.632 -16.259  0.00  0.00    +0.030 C 
ATOM     17  C   UNL     1      32.826 -23.991 -15.142  0.00  0.00    +0.143 C 
ENDBRANCH   2  11
BRANCH   1  18
ATOM     18  C   UNL     1      34.415 -19.164 -22.967  0.00  0.00    -0.076 C 
BRANCH  18  19
ATOM     19  C   UNL     1      35.587 -18.254 -23.306  0.00  0.00    -0.007 C 
BRANCH  19  23
ATOM     20  O   UNL     1      34.859 -17.546 -25.888  0.00  0.00    -0.274 OA
ATOM     21  N   UNL     1      34.377 -15.317 -25.375  0.00  0.00    -0.211 N 
ATOM     22  N   UNL     1      34.583 -14.579 -23.127  0.00  0.00    -0.395 NA
ATOM     23  C   UNL     1      35.111 -16.870 -23.637  0.00  0.00    +0.123 C 
ATOM     24  C   UNL     1      34.985 -15.843 -22.774  0.00  0.00    +0.097 C 
ATOM     25  C   UNL     1      34.775 -16.624 -25.076  0.00  0.00    +0.241 C 
ATOM     26  C   UNL     1      34.299 -14.344 -24.372  0.00  0.00    +0.188 C 
ATOM     27  C   UNL     1      35.256 -15.979 -21.298  0.00  0.00    +0.062 C 
ATOM     28  C   UNL     1      33.858 -12.964 -24.784  0.00  0.00    +0.023 C 
ATOM     29  C   UNL     1      34.056 -15.004 -26.691  0.00  0.00    +0.074 C 
ATOM     30  C   UNL     1      33.565 -12.739 -26.073  0.00  0.00    +0.001 C 
ATOM     31  C   UNL     1      33.664 -13.780 -27.055  0.00  0.00    +0.016 C 
ATOM     32  C   UNL     1      33.767 -11.902 -23.732  0.00  0.00    +0.035 C 
ENDBRANCH  19  23
ENDBRANCH  18  19
ENDBRANCH   1  18
TORSDOF 4
ENDMDL
MODEL 5
REMARK VINA RESULT:     -12.2      3.530     10.509
REMARK  Name = 71351
REMARK  4 active torsions:
REMARK  status: ('A' for Active; 'I' for Inactive)
REMARK    1  A    between atoms: N_1  and  C_18
REMARK    2  A    between atoms: C_2  and  C_11
REMARK    3  A    between atoms: C_18  and  C_19
REMARK    4  A    between atoms: C_19  and  C_23
REMARK                            x       y       z     vdW  Elec       q    Type
REMARK                         _______ _______ _______ _____ _____    ______ ____
ROOT
ATOM      1  N   UNL     1      36.015 -18.866 -21.534  0.00  0.00    +0.387 N 
ATOM      2  C   UNL     1      35.620 -21.405 -20.120  0.00  0.00    +0.039 C 
ATOM      3  C   UNL     1      34.445 -20.547 -20.619  0.00  0.00    -0.017 C 
ATOM      4  C   UNL     1      36.856 -20.520 -19.895  0.00  0.00    -0.017 C 
ATOM      5  C   UNL     1      34.849 -19.707 -21.833  0.00  0.00    -0.077 C 
ATOM      6  C   UNL     1      37.170 -19.681 -21.137  0.00  0.00    -0.077 C 
ATOM      7  H   UNL     1      35.773 -18.260 -20.749  0.00  0.00    -0.080 HD
ENDROOT
BRANCH   2  11
ATOM      8  F   UNL     1      37.161 -23.580 -13.946  0.00  0.00    -0.204 F 
ATOM      9  O   UNL     1      34.102 -23.554 -17.657  0.00  0.00    -0.354 OA
ATOM     10  N   UNL     1      34.125 -22.918 -18.893  0.00  0.00    -0.081 NA
ATOM     11  C   UNL     1      35.264 -22.230 -18.904  0.00  0.00    +0.100 A 
ATOM     12  C   UNL     1      36.007 -22.377 -17.723  0.00  0.00    +0.054 A 
ATOM     13  C   UNL     1      35.226 -23.228 -16.961  0.00  0.00    +0.179 A 
ATOM     14  C   UNL     1      37.222 -21.914 -17.197  0.00  0.00    +0.007 C 
ATOM     15  C   UNL     1      35.560 -23.669 -15.684  0.00  0.00    +0.070 C 
ATOM     16  C   UNL     1      37.591 -22.337 -15.912  0.00  0.00    +0.030 C 
ATOM     17  C   UNL     1      36.774 -23.198 -15.171  0.00  0.00    +0.143 C 
ENDBRANCH   2  11
BRANCH   1  18
ATOM     18  C   UNL     1      36.351 -18.028 -22.686  0.00  0.00    -0.076 C 
BRANCH  18  19
ATOM     19  C   UNL     1      35.167 -17.961 -23.640  0.00  0.00    -0.007 C 
BRANCH  19  23
ATOM     20  O   UNL     1      34.502 -17.190 -26.220  0.00  0.00    -0.274 OA
ATOM     21  N   UNL     1      34.244 -14.924 -25.711  0.00  0.00    -0.211 N 
ATOM     22  N   UNL     1      34.532 -14.205 -23.466  0.00  0.00    -0.395 NA
ATOM     23  C   UNL     1      34.829 -16.537 -23.972  0.00  0.00    +0.123 C 
ATOM     24  C   UNL     1      34.809 -15.501 -23.112  0.00  0.00    +0.097 C 
ATOM     25  C   UNL     1      34.512 -16.263 -25.410  0.00  0.00    +0.241 C 
ATOM     26  C   UNL     1      34.267 -13.945 -24.711  0.00  0.00    +0.188 C 
ATOM     27  C   UNL     1      35.071 -15.660 -21.636  0.00  0.00    +0.062 C 
ATOM     28  C   UNL     1      33.962 -12.529 -25.126  0.00  0.00    +0.023 C 
ATOM     29  C   UNL     1      33.949 -14.584 -27.027  0.00  0.00    +0.074 C 
ATOM     30  C   UNL     1      33.688 -12.279 -26.414  0.00  0.00    +0.001 C 
ATOM     31  C   UNL     1      33.679 -13.328 -27.393  0.00  0.00    +0.016 C 
ATOM     32  C   UNL     1      33.981 -11.461 -24.076  0.00  0.00    +0.035 C 
ENDBRANCH  19  23
ENDBRANCH  18  19
ENDBRANCH   1  18
TORSDOF 4
ENDMDL
MODEL 6
REMARK VINA RESULT:     -11.7      3.727     10.449
REMARK  Name = 71351
REMARK  4 active torsions:
REMARK  status: ('A' for Active; 'I' for Inactive)
REMARK    1  A    between atoms: N_1  and  C_18
REMARK    2  A    between atoms: C_2  and  C_11
REMARK    3  A    between atoms: C_18  and  C_19
REMARK    4  A    between atoms: C_19  and  C_23
REMARK                            x       y       z     vdW  Elec       q    Type
REMARK                         _______ _______ _______ _____ _____    ______ ____
ROOT
ATOM      1  N   UNL     1      34.590 -20.300 -20.792  0.00  0.00    +0.387 N 
ATOM      2  C   UNL     1      34.443 -22.488 -18.843  0.00  0.00    +0.039 C 
ATOM      3  C   UNL     1      33.222 -21.631 -19.215  0.00  0.00    -0.017 C 
ATOM      4  C   UNL     1      35.735 -21.694 -19.097  0.00  0.00    -0.017 C 
ATOM      5  C   UNL     1      33.349 -21.070 -20.634  0.00  0.00    -0.077 C 
ATOM      6  C   UNL     1      35.770 -21.132 -20.521  0.00  0.00    -0.077 C 
ATOM      7  H   UNL     1      34.578 -19.541 -20.111  0.00  0.00    -0.080 HD
ENDROOT
BRANCH   2  11
ATOM      8  F   UNL     1      37.442 -23.853 -12.980  0.00  0.00    -0.204 F 
ATOM      9  O   UNL     1      33.471 -23.939 -15.691  0.00  0.00    -0.354 OA
ATOM     10  N   UNL     1      33.208 -23.524 -16.991  0.00  0.00    -0.081 NA
ATOM     11  C   UNL     1      34.364 -23.038 -17.437  0.00  0.00    +0.100 A 
ATOM     12  C   UNL     1      35.393 -23.109 -16.486  0.00  0.00    +0.054 A 
ATOM     13  C   UNL     1      34.775 -23.689 -15.393  0.00  0.00    +0.179 A 
ATOM     14  C   UNL     1      36.751 -22.766 -16.399  0.00  0.00    +0.007 C 
ATOM     15  C   UNL     1      35.411 -23.965 -14.186  0.00  0.00    +0.070 C 
ATOM     16  C   UNL     1      37.424 -23.029 -15.198  0.00  0.00    +0.030 C 
ATOM     17  C   UNL     1      36.764 -23.617 -14.113  0.00  0.00    +0.143 C 
ENDBRANCH   2  11
BRANCH   1  18
ATOM     18  C   UNL     1      34.667 -19.724 -22.135  0.00  0.00    -0.076 C 
BRANCH  18  19
ATOM     19  C   UNL     1      35.710 -18.616 -22.163  0.00  0.00    -0.007 C 
BRANCH  19  23
ATOM     20  O   UNL     1      35.384 -16.031 -21.210  0.00  0.00    -0.274 OA
ATOM     21  N   UNL     1      34.669 -15.136 -23.248  0.00  0.00    -0.211 N 
ATOM     22  N   UNL     1      34.563 -16.548 -25.155  0.00  0.00    -0.395 NA
ATOM     23  C   UNL     1      35.275 -17.496 -23.062  0.00  0.00    +0.123 C 
ATOM     24  C   UNL     1      34.997 -17.592 -24.377  0.00  0.00    +0.097 C 
ATOM     25  C   UNL     1      35.118 -16.159 -22.406  0.00  0.00    +0.241 C 
ATOM     26  C   UNL     1      34.409 -15.383 -24.601  0.00  0.00    +0.188 C 
ATOM     27  C   UNL     1      35.155 -18.873 -25.154  0.00  0.00    +0.062 C 
ATOM     28  C   UNL     1      33.931 -14.222 -25.433  0.00  0.00    +0.023 C 
ATOM     29  C   UNL     1      34.488 -13.866 -22.713  0.00  0.00    +0.074 C 
ATOM     30  C   UNL     1      33.781 -13.026 -24.846  0.00  0.00    +0.001 C 
ATOM     31  C   UNL     1      34.065 -12.837 -23.452  0.00  0.00    +0.016 C 
ATOM     32  C   UNL     1      33.644 -14.458 -26.884  0.00  0.00    +0.035 C 
ENDBRANCH  19  23
ENDBRANCH  18  19
ENDBRANCH   1  18
TORSDOF 4
ENDMDL
MODEL 7
REMARK VINA RESULT:     -11.4      6.904     13.735
REMARK  Name = 71351
REMARK  4 active torsions:
REMARK  status: ('A' for Active; 'I' for Inactive)
REMARK    1  A    between atoms: N_1  and  C_18
REMARK    2  A    between atoms: C_2  and  C_11
REMARK    3  A    between atoms: C_18  and  C_19
REMARK    4  A    between atoms: C_19  and  C_23
REMARK                            x       y       z     vdW  Elec       q    Type
REMARK                         _______ _______ _______ _____ _____    ______ ____
ROOT
ATOM      1  N   UNL     1      32.439  -9.571 -21.772  0.00  0.00    +0.387 N 
ATOM      2  C   UNL     1      32.839 -12.387 -22.489  0.00  0.00    +0.039 C 
ATOM      3  C   UNL     1      32.611 -11.929 -21.039  0.00  0.00    -0.017 C 
ATOM      4  C   UNL     1      33.432 -11.233 -23.314  0.00  0.00    -0.017 C 
ATOM      5  C   UNL     1      31.796 -10.634 -20.988  0.00  0.00    -0.077 C 
ATOM      6  C   UNL     1      32.586  -9.964 -23.180  0.00  0.00    -0.077 C 
ATOM      7  H   UNL     1      33.372  -9.417 -21.389  0.00  0.00    -0.080 HD
ENDROOT
BRANCH   2  11
ATOM      8  F   UNL     1      35.257 -17.476 -26.161  0.00  0.00    -0.204 F 
ATOM      9  O   UNL     1      34.931 -15.262 -21.904  0.00  0.00    -0.354 OA
ATOM     10  N   UNL     1      34.272 -14.112 -21.488  0.00  0.00    -0.081 NA
ATOM     11  C   UNL     1      33.663 -13.651 -22.579  0.00  0.00    +0.100 A 
ATOM     12  C   UNL     1      33.889 -14.448 -23.712  0.00  0.00    +0.054 A 
ATOM     13  C   UNL     1      34.701 -15.460 -23.231  0.00  0.00    +0.179 A 
ATOM     14  C   UNL     1      33.521 -14.453 -25.065  0.00  0.00    +0.007 C 
ATOM     15  C   UNL     1      35.192 -16.506 -24.006  0.00  0.00    +0.070 C 
ATOM     16  C   UNL     1      33.999 -15.493 -25.876  0.00  0.00    +0.030 C 
ATOM     17  C   UNL     1      34.820 -16.499 -25.354  0.00  0.00    +0.143 C 
ENDBRANCH   2  11
BRANCH   1  18
ATOM     18  C   UNL     1      31.678  -8.325 -21.666  0.00  0.00    -0.076 C 
BRANCH  18  19
ATOM     19  C   UNL     1      32.623  -7.163 -21.396  0.00  0.00    -0.007 C 
BRANCH  19  23
ATOM     20  O   UNL     1      34.669  -7.402 -23.255  0.00  0.00    -0.274 OA
ATOM     21  N   UNL     1      33.973  -5.606 -24.577  0.00  0.00    -0.211 N 
ATOM     22  N   UNL     1      31.998  -4.429 -23.980  0.00  0.00    -0.395 NA
ATOM     23  C   UNL     1      32.711  -6.258 -22.590  0.00  0.00    +0.123 C 
ATOM     24  C   UNL     1      31.859  -5.261 -22.898  0.00  0.00    +0.097 C 
ATOM     25  C   UNL     1      33.881  -6.487 -23.496  0.00  0.00    +0.241 C 
ATOM     26  C   UNL     1      33.013  -4.605 -24.771  0.00  0.00    +0.188 C 
ATOM     27  C   UNL     1      30.626  -4.960 -22.085  0.00  0.00    +0.062 C 
ATOM     28  C   UNL     1      33.190  -3.703 -25.964  0.00  0.00    +0.023 C 
ATOM     29  C   UNL     1      35.037  -5.746 -25.462  0.00  0.00    +0.074 C 
ATOM     30  C   UNL     1      34.242  -3.900 -26.772  0.00  0.00    +0.001 C 
ATOM     31  C   UNL     1      35.192  -4.946 -26.520  0.00  0.00    +0.016 C 
ATOM     32  C   UNL     1      32.179  -2.622 -26.195  0.00  0.00    +0.035 C 
ENDBRANCH  19  23
ENDBRANCH  18  19
ENDBRANCH   1  18
TORSDOF 4
ENDMDL
MODEL 8
REMARK VINA RESULT:     -11.4      1.440      2.445
REMARK  Name = 71351
REMARK  4 active torsions:
REMARK  status: ('A' for Active; 'I' for Inactive)
REMARK    1  A    between atoms: N_1  and  C_18
REMARK    2  A    between atoms: C_2  and  C_11
REMARK    3  A    between atoms: C_18  and  C_19
REMARK    4  A    between atoms: C_19  and  C_23
REMARK                            x       y       z     vdW  Elec       q    Type
REMARK                         _______ _______ _______ _____ _____    ______ ____
ROOT
ATOM      1  N   UNL     1      34.886 -19.269 -22.509  0.00  0.00    +0.387 N 
ATOM      2  C   UNL     1      35.091 -17.189 -24.567  0.00  0.00    +0.039 C 
ATOM      3  C   UNL     1      35.254 -16.886 -23.068  0.00  0.00    -0.017 C 
ATOM      4  C   UNL     1      34.238 -18.454 -24.754  0.00  0.00    -0.017 C 
ATOM      5  C   UNL     1      35.767 -18.111 -22.307  0.00  0.00    -0.077 C 
ATOM      6  C   UNL     1      34.789 -19.621 -23.931  0.00  0.00    -0.077 C 
ATOM      7  H   UNL     1      33.953 -19.015 -22.183  0.00  0.00    -0.080 HD
ENDROOT
BRANCH   2  11
ATOM      8  F   UNL     1      33.584 -10.640 -24.849  0.00  0.00    -0.204 F 
ATOM      9  O   UNL     1      33.736 -14.927 -27.024  0.00  0.00    -0.354 OA
ATOM     10  N   UNL     1      34.155 -16.184 -26.603  0.00  0.00    -0.081 NA
ATOM     11  C   UNL     1      34.560 -16.007 -25.347  0.00  0.00    +0.100 A 
ATOM     12  C   UNL     1      34.430 -14.681 -24.909  0.00  0.00    +0.054 A 
ATOM     13  C   UNL     1      33.902 -14.033 -26.012  0.00  0.00    +0.179 A 
ATOM     14  C   UNL     1      34.683 -13.944 -23.742  0.00  0.00    +0.007 C 
ATOM     15  C   UNL     1      33.595 -12.676 -26.052  0.00  0.00    +0.070 C 
ATOM     16  C   UNL     1      34.387 -12.574 -23.747  0.00  0.00    +0.030 C 
ATOM     17  C   UNL     1      33.854 -11.953 -24.883  0.00  0.00    +0.143 C 
ENDBRANCH   2  11
BRANCH   1  18
ATOM     18  C   UNL     1      35.359 -20.413 -21.729  0.00  0.00    -0.076 C 
BRANCH  18  19
ATOM     19  C   UNL     1      34.268 -20.875 -20.774  0.00  0.00    -0.007 C 
BRANCH  19  23
ATOM     20  O   UNL     1      32.733 -22.431 -19.066  0.00  0.00    -0.274 OA
ATOM     21  N   UNL     1      34.468 -22.889 -17.569  0.00  0.00    -0.211 N 
ATOM     22  N   UNL     1      36.638 -22.037 -18.022  0.00  0.00    -0.395 NA
ATOM     23  C   UNL     1      34.861 -21.531 -19.562  0.00  0.00    +0.123 C 
ATOM     24  C   UNL     1      36.145 -21.453 -19.161  0.00  0.00    +0.097 C 
ATOM     25  C   UNL     1      33.909 -22.322 -18.718  0.00  0.00    +0.241 C 
ATOM     26  C   UNL     1      35.825 -22.717 -17.271  0.00  0.00    +0.188 C 
ATOM     27  C   UNL     1      37.202 -20.720 -19.947  0.00  0.00    +0.062 C 
ATOM     28  C   UNL     1      36.342 -23.366 -16.014  0.00  0.00    +0.023 C 
ATOM     29  C   UNL     1      33.648 -23.632 -16.727  0.00  0.00    +0.074 C 
ATOM     30  C   UNL     1      35.490 -24.067 -15.253  0.00  0.00    +0.001 C 
ATOM     31  C   UNL     1      34.108 -24.207 -15.613  0.00  0.00    +0.016 C 
ATOM     32  C   UNL     1      37.790 -23.198 -15.671  0.00  0.00    +0.035 C 
ENDBRANCH  19  23
ENDBRANCH  18  19
ENDBRANCH   1  18
TORSDOF 4
ENDMDL
MODEL 9
REMARK VINA RESULT:     -11.4      2.801      4.627
REMARK  Name = 71351
REMARK  4 active torsions:
REMARK  status: ('A' for Active; 'I' for Inactive)
REMARK    1  A    between atoms: N_1  and  C_18
REMARK    2  A    between atoms: C_2  and  C_11
REMARK    3  A    between atoms: C_18  and  C_19
REMARK    4  A    between atoms: C_19  and  C_23
REMARK                            x       y       z     vdW  Elec       q    Type
REMARK                         _______ _______ _______ _____ _____    ______ ____
ROOT
ATOM      1  N   UNL     1      34.734 -22.360 -19.394  0.00  0.00    +0.387 N 
ATOM      2  C   UNL     1      34.983 -19.867 -20.920  0.00  0.00    +0.039 C 
ATOM      3  C   UNL     1      33.656 -20.637 -20.808  0.00  0.00    -0.017 C 
ATOM      4  C   UNL     1      36.164 -20.828 -20.711  0.00  0.00    -0.017 C 
ATOM      5  C   UNL     1      33.591 -21.443 -19.508  0.00  0.00    -0.077 C 
ATOM      6  C   UNL     1      36.006 -21.627 -19.414  0.00  0.00    -0.077 C 
ATOM      7  H   UNL     1      34.717 -22.985 -20.200  0.00  0.00    -0.080 HD
ENDROOT
BRANCH   2  11
ATOM      8  F   UNL     1      35.139 -13.932 -24.078  0.00  0.00    -0.204 F 
ATOM      9  O   UNL     1      35.304 -18.732 -24.325  0.00  0.00    -0.354 OA
ATOM     10  N   UNL     1      35.233 -19.728 -23.359  0.00  0.00    -0.081 NA
ATOM     11  C   UNL     1      35.093 -19.079 -22.205  0.00  0.00    +0.100 A 
ATOM     12  C   UNL     1      35.068 -17.684 -22.359  0.00  0.00    +0.054 A 
ATOM     13  C   UNL     1      35.206 -17.514 -23.726  0.00  0.00    +0.179 A 
ATOM     14  C   UNL     1      34.948 -16.552 -21.539  0.00  0.00    +0.007 C 
ATOM     15  C   UNL     1      35.236 -16.277 -24.363  0.00  0.00    +0.070 C 
ATOM     16  C   UNL     1      34.975 -15.289 -22.148  0.00  0.00    +0.030 C 
ATOM     17  C   UNL     1      35.117 -15.156 -23.533  0.00  0.00    +0.143 C 
ENDBRANCH   2  11
BRANCH   1  18
ATOM     18  C   UNL     1      34.625 -23.163 -18.175  0.00  0.00    -0.076 C 
BRANCH  18  19
ATOM     19  C   UNL     1      35.144 -22.369 -16.985  0.00  0.00    -0.007 C 
BRANCH  19  23
ATOM     20  O   UNL     1      37.907 -22.609 -17.062  0.00  0.00    -0.274 OA
ATOM     21  N   UNL     1      38.038 -24.179 -15.335  0.00  0.00    -0.211 N 
ATOM     22  N   UNL     1      36.044 -24.856 -14.237  0.00  0.00    -0.395 NA
ATOM     23  C   UNL     1      35.883 -23.260 -16.030  0.00  0.00    +0.123 C 
ATOM     24  C   UNL     1      35.334 -24.023 -15.065  0.00  0.00    +0.097 C 
ATOM     25  C   UNL     1      37.370 -23.309 -16.203  0.00  0.00    +0.241 C 
ATOM     26  C   UNL     1      37.333 -24.921 -14.380  0.00  0.00    +0.188 C 
ATOM     27  C   UNL     1      33.856 -24.028 -14.770  0.00  0.00    +0.062 C 
ATOM     28  C   UNL     1      38.135 -25.830 -13.486  0.00  0.00    +0.023 C 
ATOM     29  C   UNL     1      39.420 -24.289 -15.438  0.00  0.00    +0.074 C 
ATOM     30  C   UNL     1      39.465 -25.883 -13.645  0.00  0.00    +0.001 C 
ATOM     31  C   UNL     1      40.129 -25.095 -14.643  0.00  0.00    +0.016 C 
ATOM     32  C   UNL     1      37.406 -26.637 -12.456  0.00  0.00    +0.035 C 
ENDBRANCH  19  23
ENDBRANCH  18  19
ENDBRANCH   1  18
TORSDOF 4
ENDMDL
