MODEL 1
REMARK VINA RESULT:     -11.5      0.000      0.000
REMARK  Name = 657131
REMARK  7 active torsions:
REMARK  status: ('A' for Active; 'I' for Inactive)
REMARK    1  A    between atoms: C_1  and  CA_2
REMARK    2  A    between atoms: C_1  and  C_3
REMARK    3  A    between atoms: CA_2  and  C_28
REMARK    4  A    between atoms: C_4  and  O_9
REMARK    5  A    between atoms: O_9  and  C_11
REMARK    6  A    between atoms: C_19  and  C_21
REMARK    7  A    between atoms: C_28  and  O_29
REMARK                            x       y       z     vdW  Elec       q    Type
REMARK                         _______ _______ _______ _____ _____    ______ ____
ROOT
ATOM      1  C   UNL     1      31.676 -12.180 -21.453  0.00  0.00    +0.074 C 
ENDROOT
BRANCH   1   2
ATOM      2  C   UNL     1      32.726 -13.080 -21.898  0.00  0.00    -0.016 C 
ATOM      3  C   UNL     1      34.744 -14.809 -22.750  0.00  0.00    +0.145 C 
ATOM      4  C   UNL     1      33.071 -13.139 -23.248  0.00  0.00    -0.001 C 
ATOM      5  C   UNL     1      33.391 -13.887 -20.973  0.00  0.00    -0.001 C 
ATOM      6  C   UNL     1      34.080 -14.003 -23.674  0.00  0.00    +0.037 C 
ATOM      7  C   UNL     1      34.400 -14.751 -21.399  0.00  0.00    +0.037 C 
BRANCH   3   8
ATOM      8  O   UNL     1      35.728 -15.651 -23.165  0.00  0.00    -0.453 OA
BRANCH   8  10
ATOM      9 BR   UNL     1      34.582 -16.928 -25.773  0.00  0.00    -0.046 Br
ATOM     10  C   UNL     1      35.504 -17.013 -23.048  0.00  0.00    +0.151 C 
ATOM     11  C   UNL     1      34.996 -17.739 -24.111  0.00  0.00    +0.069 C 
ATOM     12  C   UNL     1      35.804 -17.613 -21.837  0.00  0.00    +0.038 C 
ATOM     13  C   UNL     1      34.782 -19.109 -23.959  0.00  0.00    +0.010 C 
ATOM     14  C   UNL     1      35.590 -18.984 -21.686  0.00  0.00    +0.003 C 
ATOM     15  C   UNL     1      35.079 -19.731 -22.747  0.00  0.00    +0.001 C 
ENDBRANCH   8  10
ENDBRANCH   3   8
ENDBRANCH   1   2
BRANCH   1  16
ATOM     16  CA  UNL     1      31.835 -10.891 -21.071  0.00  0.00    +0.108 C 
ATOM     17  O   UNL     1      32.196  -8.141 -20.397  0.00  0.00    -0.270 OA
ATOM     18  N   UNL     1      32.164  -9.884 -21.936  0.00  0.00    -0.278 N 
ATOM     19  C   UNL     1      32.326  -8.565 -21.543  0.00  0.00    +0.249 C 
ATOM     20  H   UNL     1      32.293 -10.109 -22.886  0.00  0.00    +0.155 HD
BRANCH  19  21
ATOM     21  C   UNL     1      32.707  -7.617 -22.622  0.00  0.00    +0.054 C 
ATOM     22  C   UNL     1      34.046  -7.401 -22.874  0.00  0.00    +0.005 C 
ATOM     23  C   UNL     1      31.712  -6.987 -23.338  0.00  0.00    +0.005 C 
ATOM     24  C   UNL     1      34.405  -6.512 -23.887  0.00  0.00    +0.000 C 
ATOM     25  C   UNL     1      32.071  -6.098 -24.352  0.00  0.00    +0.000 C 
ATOM     26  C   UNL     1      33.418  -5.860 -24.626  0.00  0.00    +0.000 C 
ENDBRANCH  19  21
BRANCH  16  28
ATOM     27  OXT UNL     1      30.584 -10.451 -19.058  0.00  0.00    -0.244 OA
ATOM     28  C   UNL     1      31.657 -10.556 -19.634  0.00  0.00    +0.348 C 
BRANCH  28  29
ATOM     29  O   UNL     1      32.855 -10.377 -19.027  0.00  0.00    -0.476 OA
ATOM     30  H   UNL     1      32.900 -10.294 -18.095  0.00  0.00    +0.295 HD
ENDBRANCH  28  29
ENDBRANCH  16  28
ENDBRANCH   1  16
TORSDOF 7
ENDMDL
MODEL 2
REMARK VINA RESULT:     -11.5      3.307     10.227
REMARK  Name = 657131
REMARK  7 active torsions:
REMARK  status: ('A' for Active; 'I' for Inactive)
REMARK    1  A    between atoms: C_1  and  CA_2
REMARK    2  A    between atoms: C_1  and  C_3
REMARK    3  A    between atoms: CA_2  and  C_28
REMARK    4  A    between atoms: C_4  and  O_9
REMARK    5  A    between atoms: O_9  and  C_11
REMARK    6  A    between atoms: C_19  and  C_21
REMARK    7  A    between atoms: C_28  and  O_29
REMARK                            x       y       z     vdW  Elec       q    Type
REMARK                         _______ _______ _______ _____ _____    ______ ____
ROOT
ATOM      1  C   UNL     1      35.436 -15.875 -21.667  0.00  0.00    +0.074 C 
ENDROOT
BRANCH   1   2
ATOM      2  C   UNL     1      34.438 -14.825 -21.783  0.00  0.00    -0.016 C 
ATOM      3  C   UNL     1      32.524 -12.808 -22.009  0.00  0.00    +0.145 C 
ATOM      4  C   UNL     1      33.503 -14.633 -20.766  0.00  0.00    -0.001 C 
ATOM      5  C   UNL     1      34.416 -14.007 -22.914  0.00  0.00    -0.001 C 
ATOM      6  C   UNL     1      32.546 -13.624 -20.879  0.00  0.00    +0.037 C 
ATOM      7  C   UNL     1      33.459 -12.999 -23.026  0.00  0.00    +0.037 C 
BRANCH   3   8
ATOM      8  O   UNL     1      31.591 -11.823 -22.119  0.00  0.00    -0.453 OA
BRANCH   8  10
ATOM      9 BR   UNL     1      31.281 -10.857 -19.166  0.00  0.00    -0.046 Br
ATOM     10  C   UNL     1      32.008 -10.516 -21.930  0.00  0.00    +0.151 C 
ATOM     11  C   UNL     1      31.940  -9.926 -20.680  0.00  0.00    +0.069 C 
ATOM     12  C   UNL     1      32.491  -9.829 -23.031  0.00  0.00    +0.038 C 
ATOM     13  C   UNL     1      32.369  -8.608 -20.525  0.00  0.00    +0.010 C 
ATOM     14  C   UNL     1      32.920  -8.510 -22.875  0.00  0.00    +0.003 C 
ATOM     15  C   UNL     1      32.858  -7.900 -21.622  0.00  0.00    +0.001 C 
ENDBRANCH   8  10
ENDBRANCH   3   8
ENDBRANCH   1   2
BRANCH   1  16
ATOM     16  CA  UNL     1      35.312 -17.149 -22.107  0.00  0.00    +0.108 C 
ATOM     17  O   UNL     1      35.032 -19.875 -22.906  0.00  0.00    -0.270 OA
ATOM     18  N   UNL     1      35.099 -18.216 -21.278  0.00  0.00    -0.278 N 
ATOM     19  C   UNL     1      34.971 -19.520 -21.731  0.00  0.00    +0.249 C 
ATOM     20  H   UNL     1      35.032 -18.049 -20.311  0.00  0.00    +0.155 HD
BRANCH  19  21
ATOM     21  C   UNL     1      34.767 -20.547 -20.677  0.00  0.00    +0.054 C 
ATOM     22  C   UNL     1      33.478 -20.891 -20.325  0.00  0.00    +0.005 C 
ATOM     23  C   UNL     1      35.871 -21.126 -20.089  0.00  0.00    +0.005 C 
ATOM     24  C   UNL     1      33.286 -21.856 -19.337  0.00  0.00    +0.000 C 
ATOM     25  C   UNL     1      35.679 -22.091 -19.100  0.00  0.00    +0.000 C 
ATOM     26  C   UNL     1      34.386 -22.456 -18.724  0.00  0.00    +0.000 C 
ENDBRANCH  19  21
BRANCH  16  28
ATOM     27  OXT UNL     1      34.575 -17.146 -24.402  0.00  0.00    -0.244 OA
ATOM     28  C   UNL     1      35.430 -17.403 -23.567  0.00  0.00    +0.348 C 
BRANCH  28  29
ATOM     29  O   UNL     1      36.625 -17.968 -23.865  0.00  0.00    -0.476 OA
ATOM     30  H   UNL     1      37.248 -18.132 -23.185  0.00  0.00    +0.295 HD
ENDBRANCH  28  29
ENDBRANCH  16  28
ENDBRANCH   1  16
TORSDOF 7
ENDMDL
MODEL 3
REMARK VINA RESULT:     -11.2      1.068      1.744
REMARK  Name = 657131
REMARK  7 active torsions:
REMARK  status: ('A' for Active; 'I' for Inactive)
REMARK    1  A    between atoms: C_1  and  CA_2
REMARK    2  A    between atoms: C_1  and  C_3
REMARK    3  A    between atoms: CA_2  and  C_28
REMARK    4  A    between atoms: C_4  and  O_9
REMARK    5  A    between atoms: O_9  and  C_11
REMARK    6  A    between atoms: C_19  and  C_21
REMARK    7  A    between atoms: C_28  and  O_29
REMARK                            x       y       z     vdW  Elec       q    Type
REMARK                         _______ _______ _______ _____ _____    ______ ____
ROOT
ATOM      1  C   UNL     1      31.692 -12.112 -21.565  0.00  0.00    +0.074 C 
ENDROOT
BRANCH   1   2
ATOM      2  C   UNL     1      32.731 -13.042 -21.975  0.00  0.00    -0.016 C 
ATOM      3  C   UNL     1      34.725 -14.826 -22.765  0.00  0.00    +0.145 C 
ATOM      4  C   UNL     1      33.218 -13.988 -21.074  0.00  0.00    -0.001 C 
ATOM      5  C   UNL     1      33.241 -12.988 -23.273  0.00  0.00    -0.001 C 
ATOM      6  C   UNL     1      34.216 -14.880 -21.468  0.00  0.00    +0.037 C 
ATOM      7  C   UNL     1      34.239 -13.881 -23.667  0.00  0.00    +0.037 C 
BRANCH   3   8
ATOM      8  O   UNL     1      35.698 -15.696 -23.150  0.00  0.00    -0.453 OA
BRANCH   8  10
ATOM      9 BR   UNL     1      36.414 -18.241 -21.488  0.00  0.00    -0.046 Br
ATOM     10  C   UNL     1      35.302 -16.873 -23.764  0.00  0.00    +0.151 C 
ATOM     11  C   UNL     1      35.542 -18.098 -23.165  0.00  0.00    +0.069 C 
ATOM     12  C   UNL     1      34.665 -16.778 -24.989  0.00  0.00    +0.038 C 
ATOM     13  C   UNL     1      35.131 -19.264 -23.811  0.00  0.00    +0.010 C 
ATOM     14  C   UNL     1      34.253 -17.945 -25.635  0.00  0.00    +0.003 C 
ATOM     15  C   UNL     1      34.487 -19.187 -25.046  0.00  0.00    +0.001 C 
ENDBRANCH   8  10
ENDBRANCH   3   8
ENDBRANCH   1   2
BRANCH   1  16
ATOM     16  CA  UNL     1      31.875 -10.833 -21.164  0.00  0.00    +0.108 C 
ATOM     17  O   UNL     1      32.287  -8.100 -20.449  0.00  0.00    -0.270 OA
ATOM     18  N   UNL     1      32.205  -9.816 -22.017  0.00  0.00    -0.278 N 
ATOM     19  C   UNL     1      32.391  -8.505 -21.605  0.00  0.00    +0.249 C 
ATOM     20  H   UNL     1      32.315 -10.025 -22.972  0.00  0.00    +0.155 HD
BRANCH  19  21
ATOM     21  C   UNL     1      32.769  -7.545 -22.674  0.00  0.00    +0.054 C 
ATOM     22  C   UNL     1      34.106  -7.346 -22.948  0.00  0.00    +0.005 C 
ATOM     23  C   UNL     1      31.770  -6.886 -23.359  0.00  0.00    +0.005 C 
ATOM     24  C   UNL     1      34.460  -6.445 -23.951  0.00  0.00    +0.000 C 
ATOM     25  C   UNL     1      32.125  -5.984 -24.363  0.00  0.00    +0.000 C 
ATOM     26  C   UNL     1      33.471  -5.764 -24.659  0.00  0.00    +0.000 C 
ENDBRANCH  19  21
BRANCH  16  28
ATOM     27  OXT UNL     1      30.665 -10.418 -19.121  0.00  0.00    -0.244 OA
ATOM     28  C   UNL     1      31.726 -10.520 -19.719  0.00  0.00    +0.348 C 
BRANCH  28  29
ATOM     29  O   UNL     1      32.936 -10.357 -19.131  0.00  0.00    -0.476 OA
ATOM     30  H   UNL     1      33.263 -11.009 -18.544  0.00  0.00    +0.295 HD
ENDBRANCH  28  29
ENDBRANCH  16  28
ENDBRANCH   1  16
TORSDOF 7
ENDMDL
MODEL 4
REMARK VINA RESULT:     -11.1      2.936      9.732
REMARK  Name = 657131
REMARK  7 active torsions:
REMARK  status: ('A' for Active; 'I' for Inactive)
REMARK    1  A    between atoms: C_1  and  CA_2
REMARK    2  A    between atoms: C_1  and  C_3
REMARK    3  A    between atoms: CA_2  and  C_28
REMARK    4  A    between atoms: C_4  and  O_9
REMARK    5  A    between atoms: O_9  and  C_11
REMARK    6  A    between atoms: C_19  and  C_21
REMARK    7  A    between atoms: C_28  and  O_29
REMARK                            x       y       z     vdW  Elec       q    Type
REMARK                         _______ _______ _______ _____ _____    ______ ____
ROOT
ATOM      1  C   UNL     1      35.180 -14.457 -23.943  0.00  0.00    +0.074 C 
ENDROOT
BRANCH   1   2
ATOM      2  C   UNL     1      34.188 -13.497 -23.490  0.00  0.00    -0.016 C 
ATOM      3  C   UNL     1      32.281 -11.655 -22.620  0.00  0.00    +0.145 C 
ATOM      4  C   UNL     1      34.130 -12.227 -24.065  0.00  0.00    -0.001 C 
ATOM      5  C   UNL     1      33.290 -13.845 -22.480  0.00  0.00    -0.001 C 
ATOM      6  C   UNL     1      33.177 -11.306 -23.630  0.00  0.00    +0.037 C 
ATOM      7  C   UNL     1      32.337 -12.924 -22.045  0.00  0.00    +0.037 C 
BRANCH   3   8
ATOM      8  O   UNL     1      31.351 -10.757 -22.197  0.00  0.00    -0.453 OA
BRANCH   8  10
ATOM      9 BR   UNL     1      32.201 -10.431 -19.211  0.00  0.00    -0.046 Br
ATOM     10  C   UNL     1      31.782  -9.476 -21.894  0.00  0.00    +0.151 C 
ATOM     11  C   UNL     1      32.197  -9.156 -20.613  0.00  0.00    +0.069 C 
ATOM     12  C   UNL     1      31.783  -8.539 -22.912  0.00  0.00    +0.038 C 
ATOM     13  C   UNL     1      32.626  -7.856 -20.341  0.00  0.00    +0.010 C 
ATOM     14  C   UNL     1      32.212  -7.239 -22.640  0.00  0.00    +0.003 C 
ATOM     15  C   UNL     1      32.633  -6.898 -21.355  0.00  0.00    +0.001 C 
ENDBRANCH   8  10
ENDBRANCH   3   8
ENDBRANCH   1   2
BRANCH   1  16
ATOM     16  CA  UNL     1      34.981 -15.781 -24.142  0.00  0.00    +0.108 C 
ATOM     17  O   UNL     1      34.608 -18.595 -24.439  0.00  0.00    -0.270 OA
ATOM     18  N   UNL     1      35.293 -16.738 -23.218  0.00  0.00    -0.278 N 
ATOM     19  C   UNL     1      35.086 -18.094 -23.424  0.00  0.00    +0.249 C 
ATOM     20  H   UNL     1      35.684 -16.450 -22.362  0.00  0.00    +0.155 HD
BRANCH  19  21
ATOM     21  C   UNL     1      35.511 -18.983 -22.312  0.00  0.00    +0.054 C 
ATOM     22  C   UNL     1      36.808 -18.899 -21.851  0.00  0.00    +0.005 C 
ATOM     23  C   UNL     1      34.594 -19.862 -21.776  0.00  0.00    +0.005 C 
ATOM     24  C   UNL     1      37.207 -19.733 -20.808  0.00  0.00    +0.000 C 
ATOM     25  C   UNL     1      34.992 -20.696 -20.731  0.00  0.00    +0.000 C 
ATOM     26  C   UNL     1      36.300 -20.632 -20.247  0.00  0.00    +0.000 C 
ENDBRANCH  19  21
BRANCH  16  28
ATOM     27  OXT UNL     1      33.224 -16.158 -25.751  0.00  0.00    -0.244 OA
ATOM     28  C   UNL     1      34.406 -16.217 -25.443  0.00  0.00    +0.348 C 
BRANCH  28  29
ATOM     29  O   UNL     1      35.371 -16.698 -26.261  0.00  0.00    -0.476 OA
ATOM     30  H   UNL     1      36.006 -16.116 -26.631  0.00  0.00    +0.295 HD
ENDBRANCH  28  29
ENDBRANCH  16  28
ENDBRANCH   1  16
TORSDOF 7
ENDMDL
MODEL 5
REMARK VINA RESULT:     -10.6      5.720      8.553
REMARK  Name = 657131
REMARK  7 active torsions:
REMARK  status: ('A' for Active; 'I' for Inactive)
REMARK    1  A    between atoms: C_1  and  CA_2
REMARK    2  A    between atoms: C_1  and  C_3
REMARK    3  A    between atoms: CA_2  and  C_28
REMARK    4  A    between atoms: C_4  and  O_9
REMARK    5  A    between atoms: O_9  and  C_11
REMARK    6  A    between atoms: C_19  and  C_21
REMARK    7  A    between atoms: C_28  and  O_29
REMARK                            x       y       z     vdW  Elec       q    Type
REMARK                         _______ _______ _______ _____ _____    ______ ____
ROOT
ATOM      1  C   UNL     1      35.621 -18.357 -21.868  0.00  0.00    +0.074 C 
ENDROOT
BRANCH   1   2
ATOM      2  C   UNL     1      35.441 -19.594 -21.126  0.00  0.00    -0.016 C 
ATOM      3  C   UNL     1      35.097 -21.967 -19.701  0.00  0.00    +0.145 C 
ATOM      4  C   UNL     1      34.157 -20.085 -20.887  0.00  0.00    -0.001 C 
ATOM      5  C   UNL     1      36.553 -20.291 -20.652  0.00  0.00    -0.001 C 
ATOM      6  C   UNL     1      33.985 -21.272 -20.174  0.00  0.00    +0.037 C 
ATOM      7  C   UNL     1      36.381 -21.478 -19.939  0.00  0.00    +0.037 C 
BRANCH   3   8
ATOM      8  O   UNL     1      34.929 -23.125 -19.006  0.00  0.00    -0.453 OA
BRANCH   8  10
ATOM      9 BR   UNL     1      36.784 -22.804 -16.516  0.00  0.00    -0.046 Br
ATOM     10  C   UNL     1      34.228 -23.066 -17.813  0.00  0.00    +0.151 C 
ATOM     11  C   UNL     1      34.895 -22.924 -16.609  0.00  0.00    +0.069 C 
ATOM     12  C   UNL     1      32.848 -23.153 -17.872  0.00  0.00    +0.038 C 
ATOM     13  C   UNL     1      34.158 -22.867 -15.425  0.00  0.00    +0.010 C 
ATOM     14  C   UNL     1      32.111 -23.096 -16.688  0.00  0.00    +0.003 C 
ATOM     15  C   UNL     1      32.766 -22.953 -15.465  0.00  0.00    +0.001 C 
ENDBRANCH   8  10
ENDBRANCH   3   8
ENDBRANCH   1   2
BRANCH   1  16
ATOM     16  CA  UNL     1      35.205 -18.115 -23.133  0.00  0.00    +0.108 C 
ATOM     17  O   UNL     1      34.326 -17.472 -25.772  0.00  0.00    -0.270 OA
ATOM     18  N   UNL     1      34.945 -16.862 -23.615  0.00  0.00    -0.278 N 
ATOM     19  C   UNL     1      34.519 -16.616 -24.911  0.00  0.00    +0.249 C 
ATOM     20  H   UNL     1      35.067 -16.096 -23.009  0.00  0.00    +0.155 HD
BRANCH  19  21
ATOM     21  C   UNL     1      34.266 -15.190 -25.243  0.00  0.00    +0.054 C 
ATOM     22  C   UNL     1      33.808 -14.873 -26.505  0.00  0.00    +0.005 C 
ATOM     23  C   UNL     1      34.495 -14.232 -24.279  0.00  0.00    +0.005 C 
ATOM     24  C   UNL     1      33.570 -13.535 -26.816  0.00  0.00    +0.000 C 
ATOM     25  C   UNL     1      34.257 -12.893 -24.591  0.00  0.00    +0.000 C 
ATOM     26  C   UNL     1      33.794 -12.545 -25.860  0.00  0.00    +0.000 C 
ENDBRANCH  19  21
BRANCH  16  28
ATOM     27  OXT UNL     1      35.893 -19.904 -24.595  0.00  0.00    -0.244 OA
ATOM     28  C   UNL     1      35.004 -19.275 -24.041  0.00  0.00    +0.348 C 
BRANCH  28  29
ATOM     29  O   UNL     1      33.686 -19.555 -24.184  0.00  0.00    -0.476 OA
ATOM     30  H   UNL     1      33.289 -20.222 -23.660  0.00  0.00    +0.295 HD
ENDBRANCH  28  29
ENDBRANCH  16  28
ENDBRANCH   1  16
TORSDOF 7
ENDMDL
MODEL 6
REMARK VINA RESULT:     -10.5      6.040     11.891
REMARK  Name = 657131
REMARK  7 active torsions:
REMARK  status: ('A' for Active; 'I' for Inactive)
REMARK    1  A    between atoms: C_1  and  CA_2
REMARK    2  A    between atoms: C_1  and  C_3
REMARK    3  A    between atoms: CA_2  and  C_28
REMARK    4  A    between atoms: C_4  and  O_9
REMARK    5  A    between atoms: O_9  and  C_11
REMARK    6  A    between atoms: C_19  and  C_21
REMARK    7  A    between atoms: C_28  and  O_29
REMARK                            x       y       z     vdW  Elec       q    Type
REMARK                         _______ _______ _______ _____ _____    ______ ____
ROOT
ATOM      1  C   UNL     1      35.759 -22.042 -19.876  0.00  0.00    +0.074 C 
ENDROOT
BRANCH   1   2
ATOM      2  C   UNL     1      35.862 -20.799 -20.622  0.00  0.00    -0.016 C 
ATOM      3  C   UNL     1      36.057 -18.413 -22.055  0.00  0.00    +0.145 C 
ATOM      4  C   UNL     1      37.087 -20.138 -20.713  0.00  0.00    -0.001 C 
ATOM      5  C   UNL     1      34.734 -20.266 -21.247  0.00  0.00    -0.001 C 
ATOM      6  C   UNL     1      37.185 -18.946 -21.430  0.00  0.00    +0.037 C 
ATOM      7  C   UNL     1      34.832 -19.073 -21.964  0.00  0.00    +0.037 C 
BRANCH   3   8
ATOM      8  O   UNL     1      36.153 -17.250 -22.754  0.00  0.00    -0.453 OA
BRANCH   8  10
ATOM      9 BR   UNL     1      34.920 -15.793 -25.225  0.00  0.00    -0.046 Br
ATOM     10  C   UNL     1      35.303 -16.215 -22.403  0.00  0.00    +0.151 C 
ATOM     11  C   UNL     1      34.669 -15.461 -23.376  0.00  0.00    +0.069 C 
ATOM     12  C   UNL     1      35.114 -15.965 -21.055  0.00  0.00    +0.038 C 
ATOM     13  C   UNL     1      33.819 -14.425 -22.987  0.00  0.00    +0.010 C 
ATOM     14  C   UNL     1      34.263 -14.930 -20.667  0.00  0.00    +0.003 C 
ATOM     15  C   UNL     1      33.617 -14.160 -21.633  0.00  0.00    +0.001 C 
ENDBRANCH   8  10
ENDBRANCH   3   8
ENDBRANCH   1   2
BRANCH   1  16
ATOM     16  CA  UNL     1      35.719 -22.166 -18.528  0.00  0.00    +0.108 C 
ATOM     17  O   UNL     1      35.510 -22.480 -15.699  0.00  0.00    -0.270 OA
ATOM     18  N   UNL     1      34.642 -22.663 -17.848  0.00  0.00    -0.278 N 
ATOM     19  C   UNL     1      34.603 -22.790 -16.469  0.00  0.00    +0.249 C 
ATOM     20  H   UNL     1      33.854 -22.946 -18.366  0.00  0.00    +0.155 HD
BRANCH  19  21
ATOM     21  C   UNL     1      33.337 -23.330 -15.909  0.00  0.00    +0.054 C 
ATOM     22  C   UNL     1      32.169 -23.160 -16.624  0.00  0.00    +0.005 C 
ATOM     23  C   UNL     1      33.370 -23.985 -14.697  0.00  0.00    +0.005 C 
ATOM     24  C   UNL     1      30.981 -23.667 -16.100  0.00  0.00    +0.000 C 
ATOM     25  C   UNL     1      32.181 -24.492 -14.172  0.00  0.00    +0.000 C 
ATOM     26  C   UNL     1      30.986 -24.333 -14.874  0.00  0.00    +0.000 C 
ENDBRANCH  19  21
BRANCH  16  28
ATOM     27  OXT UNL     1      37.194 -20.563 -17.496  0.00  0.00    -0.244 OA
ATOM     28  C   UNL     1      36.903 -21.723 -17.746  0.00  0.00    +0.348 C 
BRANCH  28  29
ATOM     29  O   UNL     1      37.638 -22.785 -17.337  0.00  0.00    -0.476 OA
ATOM     30  H   UNL     1      38.157 -22.725 -16.560  0.00  0.00    +0.295 HD
ENDBRANCH  28  29
ENDBRANCH  16  28
ENDBRANCH   1  16
TORSDOF 7
ENDMDL
MODEL 7
REMARK VINA RESULT:     -10.4      6.191     12.165
REMARK  Name = 657131
REMARK  7 active torsions:
REMARK  status: ('A' for Active; 'I' for Inactive)
REMARK    1  A    between atoms: C_1  and  CA_2
REMARK    2  A    between atoms: C_1  and  C_3
REMARK    3  A    between atoms: CA_2  and  C_28
REMARK    4  A    between atoms: C_4  and  O_9
REMARK    5  A    between atoms: O_9  and  C_11
REMARK    6  A    between atoms: C_19  and  C_21
REMARK    7  A    between atoms: C_28  and  O_29
REMARK                            x       y       z     vdW  Elec       q    Type
REMARK                         _______ _______ _______ _____ _____    ______ ____
ROOT
ATOM      1  C   UNL     1      36.328 -21.718 -19.459  0.00  0.00    +0.074 C 
ENDROOT
BRANCH   1   2
ATOM      2  C   UNL     1      36.161 -20.658 -20.439  0.00  0.00    -0.016 C 
ATOM      3  C   UNL     1      35.842 -18.623 -22.320  0.00  0.00    +0.145 C 
ATOM      4  C   UNL     1      34.938 -20.494 -21.089  0.00  0.00    -0.001 C 
ATOM      5  C   UNL     1      37.225 -19.804 -20.730  0.00  0.00    -0.001 C 
ATOM      6  C   UNL     1      34.778 -19.476 -22.030  0.00  0.00    +0.037 C 
ATOM      7  C   UNL     1      37.065 -18.786 -21.671  0.00  0.00    +0.037 C 
BRANCH   3   8
ATOM      8  O   UNL     1      35.686 -17.630 -23.237  0.00  0.00    -0.453 OA
BRANCH   8  10
ATOM      9 BR   UNL     1      34.597 -15.860 -25.568  0.00  0.00    -0.046 Br
ATOM     10  C   UNL     1      35.154 -16.428 -22.801  0.00  0.00    +0.151 C 
ATOM     11  C   UNL     1      34.626 -15.520 -23.703  0.00  0.00    +0.069 C 
ATOM     12  C   UNL     1      35.171 -16.171 -21.441  0.00  0.00    +0.038 C 
ATOM     13  C   UNL     1      34.098 -14.319 -23.230  0.00  0.00    +0.010 C 
ATOM     14  C   UNL     1      34.643 -14.970 -20.968  0.00  0.00    +0.003 C 
ATOM     15  C   UNL     1      34.107 -14.044 -21.863  0.00  0.00    +0.001 C 
ENDBRANCH   8  10
ENDBRANCH   3   8
ENDBRANCH   1   2
BRANCH   1  16
ATOM     16  CA  UNL     1      35.343 -22.308 -18.742  0.00  0.00    +0.108 C 
ATOM     17  O   UNL     1      33.348 -23.550 -17.122  0.00  0.00    -0.270 OA
ATOM     18  N   UNL     1      35.465 -22.636 -17.420  0.00  0.00    -0.278 N 
ATOM     19  C   UNL     1      34.455 -23.239 -16.688  0.00  0.00    +0.249 C 
ATOM     20  H   UNL     1      36.314 -22.431 -16.966  0.00  0.00    +0.155 HD
BRANCH  19  21
ATOM     21  C   UNL     1      34.782 -23.539 -15.270  0.00  0.00    +0.054 C 
ATOM     22  C   UNL     1      33.813 -24.108 -14.470  0.00  0.00    +0.005 C 
ATOM     23  C   UNL     1      36.044 -23.241 -14.801  0.00  0.00    +0.005 C 
ATOM     24  C   UNL     1      34.120 -24.391 -13.139  0.00  0.00    +0.000 C 
ATOM     25  C   UNL     1      36.351 -23.524 -13.469  0.00  0.00    +0.000 C 
ATOM     26  C   UNL     1      35.388 -24.098 -12.639  0.00  0.00    +0.000 C 
ENDBRANCH  19  21
BRANCH  16  28
ATOM     27  OXT UNL     1      33.089 -21.903 -19.496  0.00  0.00    -0.244 OA
ATOM     28  C   UNL     1      34.068 -22.632 -19.434  0.00  0.00    +0.348 C 
BRANCH  28  29
ATOM     29  O   UNL     1      34.123 -23.862 -20.000  0.00  0.00    -0.476 OA
ATOM     30  H   UNL     1      33.336 -24.351 -20.137  0.00  0.00    +0.295 HD
ENDBRANCH  28  29
ENDBRANCH  16  28
ENDBRANCH   1  16
TORSDOF 7
ENDMDL
MODEL 8
REMARK VINA RESULT:     -10.3      7.297     11.918
REMARK  Name = 657131
REMARK  7 active torsions:
REMARK  status: ('A' for Active; 'I' for Inactive)
REMARK    1  A    between atoms: C_1  and  CA_2
REMARK    2  A    between atoms: C_1  and  C_3
REMARK    3  A    between atoms: CA_2  and  C_28
REMARK    4  A    between atoms: C_4  and  O_9
REMARK    5  A    between atoms: O_9  and  C_11
REMARK    6  A    between atoms: C_19  and  C_21
REMARK    7  A    between atoms: C_28  and  O_29
REMARK                            x       y       z     vdW  Elec       q    Type
REMARK                         _______ _______ _______ _____ _____    ______ ____
ROOT
ATOM      1  C   UNL     1      34.219 -23.145 -19.010  0.00  0.00    +0.074 C 
ENDROOT
BRANCH   1   2
ATOM      2  C   UNL     1      34.670 -21.946 -19.696  0.00  0.00    -0.016 C 
ATOM      3  C   UNL     1      35.537 -19.644 -21.012  0.00  0.00    +0.145 C 
ATOM      4  C   UNL     1      33.743 -21.095 -20.299  0.00  0.00    -0.001 C 
ATOM      5  C   UNL     1      36.031 -21.645 -19.751  0.00  0.00    -0.001 C 
ATOM      6  C   UNL     1      34.176 -19.944 -20.957  0.00  0.00    +0.037 C 
ATOM      7  C   UNL     1      36.464 -20.493 -20.409  0.00  0.00    +0.037 C 
BRANCH   3   8
ATOM      8  O   UNL     1      35.960 -18.521 -21.653  0.00  0.00    -0.453 OA
BRANCH   8  10
ATOM      9 BR   UNL     1      35.209 -15.526 -22.118  0.00  0.00    -0.046 Br
ATOM     10  C   UNL     1      35.464 -18.278 -22.923  0.00  0.00    +0.151 C 
ATOM     11  C   UNL     1      35.080 -17.002 -23.300  0.00  0.00    +0.069 C 
ATOM     12  C   UNL     1      35.367 -19.351 -23.793  0.00  0.00    +0.038 C 
ATOM     13  C   UNL     1      34.585 -16.793 -24.587  0.00  0.00    +0.010 C 
ATOM     14  C   UNL     1      34.871 -19.141 -25.080  0.00  0.00    +0.003 C 
ATOM     15  C   UNL     1      34.480 -17.862 -25.477  0.00  0.00    +0.001 C 
ENDBRANCH   8  10
ENDBRANCH   3   8
ENDBRANCH   1   2
BRANCH   1  16
ATOM     16  CA  UNL     1      33.666 -23.201 -17.776  0.00  0.00    +0.108 C 
ATOM     17  O   UNL     1      32.377 -23.304 -15.231  0.00  0.00    -0.270 OA
ATOM     18  N   UNL     1      32.323 -23.087 -17.546  0.00  0.00    -0.278 N 
ATOM     19  C   UNL     1      31.759 -23.146 -16.281  0.00  0.00    +0.249 C 
ATOM     20  H   UNL     1      31.727 -22.957 -18.318  0.00  0.00    +0.155 HD
BRANCH  19  21
ATOM     21  C   UNL     1      30.283 -22.978 -16.229  0.00  0.00    +0.054 C 
ATOM     22  C   UNL     1      29.536 -23.314 -17.339  0.00  0.00    +0.005 C 
ATOM     23  C   UNL     1      29.708 -22.494 -15.073  0.00  0.00    +0.005 C 
ATOM     24  C   UNL     1      28.151 -23.157 -17.290  0.00  0.00    +0.000 C 
ATOM     25  C   UNL     1      28.323 -22.337 -15.025  0.00  0.00    +0.000 C 
ATOM     26  C   UNL     1      27.544 -22.669 -16.134  0.00  0.00    +0.000 C 
ENDBRANCH  19  21
BRANCH  16  28
ATOM     27  OXT UNL     1      35.147 -22.483 -16.014  0.00  0.00    -0.244 OA
ATOM     28  C   UNL     1      34.569 -23.381 -16.608  0.00  0.00    +0.348 C 
BRANCH  28  29
ATOM     29  O   UNL     1      34.676 -24.690 -16.276  0.00  0.00    -0.476 OA
ATOM     30  H   UNL     1      34.654 -25.346 -16.945  0.00  0.00    +0.295 HD
ENDBRANCH  28  29
ENDBRANCH  16  28
ENDBRANCH   1  16
TORSDOF 7
ENDMDL
MODEL 9
REMARK VINA RESULT:     -10.3      6.467     11.887
REMARK  Name = 657131
REMARK  7 active torsions:
REMARK  status: ('A' for Active; 'I' for Inactive)
REMARK    1  A    between atoms: C_1  and  CA_2
REMARK    2  A    between atoms: C_1  and  C_3
REMARK    3  A    between atoms: CA_2  and  C_28
REMARK    4  A    between atoms: C_4  and  O_9
REMARK    5  A    between atoms: O_9  and  C_11
REMARK    6  A    between atoms: C_19  and  C_21
REMARK    7  A    between atoms: C_28  and  O_29
REMARK                            x       y       z     vdW  Elec       q    Type
REMARK                         _______ _______ _______ _____ _____    ______ ____
ROOT
ATOM      1  C   UNL     1      35.806 -22.004 -19.777  0.00  0.00    +0.074 C 
ENDROOT
BRANCH   1   2
ATOM      2  C   UNL     1      35.871 -20.707 -20.429  0.00  0.00    -0.016 C 
ATOM      3  C   UNL     1      35.992 -18.217 -21.682  0.00  0.00    +0.145 C 
ATOM      4  C   UNL     1      37.101 -20.073 -20.606  0.00  0.00    -0.001 C 
ATOM      5  C   UNL     1      34.701 -20.094 -20.880  0.00  0.00    -0.001 C 
ATOM      6  C   UNL     1      37.162 -18.828 -21.232  0.00  0.00    +0.037 C 
ATOM      7  C   UNL     1      34.762 -18.849 -21.506  0.00  0.00    +0.037 C 
BRANCH   3   8
ATOM      8  O   UNL     1      36.052 -17.003 -22.294  0.00  0.00    -0.453 OA
BRANCH   8  10
ATOM      9 BR   UNL     1      34.741 -14.182 -22.558  0.00  0.00    -0.046 Br
ATOM     10  C   UNL     1      35.349 -16.841 -23.476  0.00  0.00    +0.151 C 
ATOM     11  C   UNL     1      34.704 -15.649 -23.757  0.00  0.00    +0.069 C 
ATOM     12  C   UNL     1      35.317 -17.908 -24.357  0.00  0.00    +0.038 C 
ATOM     13  C   UNL     1      34.005 -15.521 -24.957  0.00  0.00    +0.010 C 
ATOM     14  C   UNL     1      34.618 -17.779 -25.558  0.00  0.00    +0.003 C 
ATOM     15  C   UNL     1      33.961 -16.585 -25.857  0.00  0.00    +0.001 C 
ENDBRANCH   8  10
ENDBRANCH   3   8
ENDBRANCH   1   2
BRANCH   1  16
ATOM     16  CA  UNL     1      35.730 -22.227 -18.444  0.00  0.00    +0.108 C 
ATOM     17  O   UNL     1      35.441 -22.735 -15.650  0.00  0.00    -0.270 OA
ATOM     18  N   UNL     1      34.597 -22.661 -17.816  0.00  0.00    -0.278 N 
ATOM     19  C   UNL     1      34.521 -22.890 -16.451  0.00  0.00    +0.249 C 
ATOM     20  H   UNL     1      33.793 -22.821 -18.362  0.00  0.00    +0.155 HD
BRANCH  19  21
ATOM     21  C   UNL     1      33.196 -23.338 -15.948  0.00  0.00    +0.054 C 
ATOM     22  C   UNL     1      32.082 -23.133 -16.735  0.00  0.00    +0.005 C 
ATOM     23  C   UNL     1      33.124 -23.946 -14.713  0.00  0.00    +0.005 C 
ATOM     24  C   UNL     1      30.839 -23.554 -16.264  0.00  0.00    +0.000 C 
ATOM     25  C   UNL     1      31.881 -24.367 -14.242  0.00  0.00    +0.000 C 
ATOM     26  C   UNL     1      30.738 -24.171 -15.018  0.00  0.00    +0.000 C 
ENDBRANCH  19  21
BRANCH  16  28
ATOM     27  OXT UNL     1      37.343 -20.868 -17.275  0.00  0.00    -0.244 OA
ATOM     28  C   UNL     1      36.940 -21.970 -17.618  0.00  0.00    +0.348 C 
BRANCH  28  29
ATOM     29  O   UNL     1      37.555 -23.130 -17.287  0.00  0.00    -0.476 OA
ATOM     30  H   UNL     1      37.232 -23.944 -17.621  0.00  0.00    +0.295 HD
ENDBRANCH  28  29
ENDBRANCH  16  28
ENDBRANCH   1  16
TORSDOF 7
ENDMDL
