MODEL 1
REMARK VINA RESULT:     -12.3      0.000      0.000
REMARK  Name = 11476460
REMARK  8 active torsions:
REMARK  status: ('A' for Active; 'I' for Inactive)
REMARK    1  A    between atoms: C_2  and  N_10
REMARK    2  A    between atoms: C_5  and  C_23
REMARK    3  A    between atoms: C_11  and  C_14
REMARK    4  A    between atoms: C_14  and  O_15
REMARK    5  A    between atoms: O_15  and  P_16
REMARK    6  A    between atoms: P_16  and  O_18
REMARK    7  A    between atoms: P_16  and  O_20
REMARK    8  A    between atoms: C_27  and  C_32
REMARK                            x       y       z     vdW  Elec       q    Type
REMARK                         _______ _______ _______ _____ _____    ______ ____
ROOT
ATOM      1  F   UNL     1      33.524 -22.570 -18.496  0.00  0.00    -0.204 F 
ATOM      2  C   UNL     1      36.278 -23.324 -16.240  0.00  0.00    +0.059 C 
ATOM      3  C   UNL     1      35.002 -23.311 -16.810  0.00  0.00    +0.045 C 
ATOM      4  C   UNL     1      37.308 -22.592 -16.839  0.00  0.00    +0.015 C 
ATOM      5  C   UNL     1      35.787 -21.842 -18.560  0.00  0.00    +0.029 C 
ATOM      6  C   UNL     1      34.756 -22.571 -17.967  0.00  0.00    +0.141 C 
ATOM      7  C   UNL     1      37.063 -21.852 -17.996  0.00  0.00    +0.004 C 
ENDROOT
BRANCH   2  10
ATOM      8  O   UNL     1      36.726 -25.785 -13.593  0.00  0.00    -0.434 OA
ATOM      9  O   UNL     1      36.009 -26.302 -15.682  0.00  0.00    -0.226 OA
ATOM     10  N   UNL     1      36.529 -24.079 -15.059  0.00  0.00    -0.221 N 
ATOM     11  C   UNL     1      37.321 -24.644 -12.959  0.00  0.00    +0.221 C 
ATOM     12  C   UNL     1      36.874 -23.470 -13.803  0.00  0.00    +0.148 C 
ATOM     13  C   UNL     1      36.389 -25.454 -14.887  0.00  0.00    +0.409 C 
BRANCH  11  14
ATOM     14  C   UNL     1      38.833 -24.827 -12.940  0.00  0.00    +0.199 C 
BRANCH  14  15
ATOM     15  O   UNL     1      39.307 -24.824 -14.275  0.00  0.00    -0.269 OA
BRANCH  15  16
ATOM     16  P   UNL     1      40.129 -26.114 -14.806  0.00  0.00    +0.473 P 
ATOM     17  O   UNL     1      41.297 -26.517 -13.954  0.00  0.00    -0.227 OA
BRANCH  16  18
ATOM     18  O   UNL     1      40.487 -25.739 -16.337  0.00  0.00    -0.303 OA
ATOM     19  H   UNL     1      39.686 -25.802 -16.881  0.00  0.00    +0.222 HD
ENDBRANCH  16  18
BRANCH  16  20
ATOM     20  O   UNL     1      38.976 -27.239 -14.959  0.00  0.00    -0.303 OA
ATOM     21  H   UNL     1      38.162 -26.926 -14.536  0.00  0.00    +0.222 HD
ENDBRANCH  16  20
ENDBRANCH  15  16
ENDBRANCH  14  15
ENDBRANCH  11  14
ENDBRANCH   2  10
BRANCH   5  23
ATOM     22  N   UNL     1      36.403 -19.687 -21.538  0.00  0.00    -0.234 NA
ATOM     23  C   UNL     1      35.537 -21.072 -19.760  0.00  0.00    +0.021 C 
ATOM     24  C   UNL     1      34.256 -20.962 -20.284  0.00  0.00    +0.004 C 
ATOM     25  C   UNL     1      36.567 -20.422 -20.416  0.00  0.00    +0.100 C 
ATOM     26  C   UNL     1      34.046 -20.214 -21.437  0.00  0.00    +0.029 C 
ATOM     27  C   UNL     1      35.143 -19.601 -22.021  0.00  0.00    +0.146 C 
BRANCH  27  32
ATOM     28  N   UNL     1      35.363 -17.540 -23.304  0.00  0.00    -0.105 NA
ATOM     29  N   UNL     1      35.002 -17.301 -24.573  0.00  0.00    -0.113 N 
ATOM     30  N   UNL     1      34.431 -19.319 -24.349  0.00  0.00    -0.085 NA
ATOM     31  N   UNL     1      34.445 -18.327 -25.231  0.00  0.00    -0.018 NA
ATOM     32  C   UNL     1      34.985 -18.816 -23.211  0.00  0.00    +0.092 C 
ATOM     33  C   UNL     1      35.199 -16.017 -25.194  0.00  0.00    +0.163 C 
ENDBRANCH  27  32
ENDBRANCH   5  23
TORSDOF 8
ENDMDL
MODEL 2
REMARK VINA RESULT:     -11.9      0.858      1.212
REMARK  Name = 11476460
REMARK  8 active torsions:
REMARK  status: ('A' for Active; 'I' for Inactive)
REMARK    1  A    between atoms: C_2  and  N_10
REMARK    2  A    between atoms: C_5  and  C_23
REMARK    3  A    between atoms: C_11  and  C_14
REMARK    4  A    between atoms: C_14  and  O_15
REMARK    5  A    between atoms: O_15  and  P_16
REMARK    6  A    between atoms: P_16  and  O_18
REMARK    7  A    between atoms: P_16  and  O_20
REMARK    8  A    between atoms: C_27  and  C_32
REMARK                            x       y       z     vdW  Elec       q    Type
REMARK                         _______ _______ _______ _____ _____    ______ ____
ROOT
ATOM      1  F   UNL     1      37.889 -20.747 -18.220  0.00  0.00    -0.204 F 
ATOM      2  C   UNL     1      36.270 -23.329 -16.230  0.00  0.00    +0.059 C 
ATOM      3  C   UNL     1      37.209 -22.387 -16.664  0.00  0.00    +0.045 C 
ATOM      4  C   UNL     1      35.094 -23.517 -16.963  0.00  0.00    +0.015 C 
ATOM      5  C   UNL     1      35.800 -21.836 -18.548  0.00  0.00    +0.029 C 
ATOM      6  C   UNL     1      36.975 -21.643 -17.821  0.00  0.00    +0.141 C 
ATOM      7  C   UNL     1      34.860 -22.773 -18.120  0.00  0.00    +0.004 C 
ENDROOT
BRANCH   2  10
ATOM      8  O   UNL     1      36.686 -25.801 -13.589  0.00  0.00    -0.434 OA
ATOM      9  O   UNL     1      35.977 -26.306 -15.684  0.00  0.00    -0.226 OA
ATOM     10  N   UNL     1      36.509 -24.088 -15.051  0.00  0.00    -0.221 N 
ATOM     11  C   UNL     1      37.286 -24.667 -12.948  0.00  0.00    +0.221 C 
ATOM     12  C   UNL     1      36.852 -23.486 -13.791  0.00  0.00    +0.148 C 
ATOM     13  C   UNL     1      36.358 -25.463 -14.884  0.00  0.00    +0.409 C 
BRANCH  11  14
ATOM     14  C   UNL     1      38.796 -24.860 -12.921  0.00  0.00    +0.199 C 
BRANCH  14  15
ATOM     15  O   UNL     1      39.284 -24.805 -14.250  0.00  0.00    -0.269 OA
BRANCH  15  16
ATOM     16  P   UNL     1      40.105 -26.076 -14.825  0.00  0.00    +0.473 P 
ATOM     17  O   UNL     1      41.264 -26.518 -13.979  0.00  0.00    -0.227 OA
BRANCH  16  18
ATOM     18  O   UNL     1      40.478 -25.642 -16.337  0.00  0.00    -0.303 OA
ATOM     19  H   UNL     1      40.051 -24.795 -16.544  0.00  0.00    +0.222 HD
ENDBRANCH  16  18
BRANCH  16  20
ATOM     20  O   UNL     1      38.949 -27.189 -15.032  0.00  0.00    -0.303 OA
ATOM     21  H   UNL     1      39.106 -27.666 -15.862  0.00  0.00    +0.222 HD
ENDBRANCH  16  20
ENDBRANCH  15  16
ENDBRANCH  14  15
ENDBRANCH  11  14
ENDBRANCH   2  10
BRANCH   5  23
ATOM     22  N   UNL     1      36.431 -19.721 -21.552  0.00  0.00    -0.234 NA
ATOM     23  C   UNL     1      35.554 -21.067 -19.749  0.00  0.00    +0.021 C 
ATOM     24  C   UNL     1      34.267 -20.920 -20.251  0.00  0.00    +0.004 C 
ATOM     25  C   UNL     1      36.592 -20.454 -20.428  0.00  0.00    +0.100 C 
ATOM     26  C   UNL     1      34.061 -20.174 -21.406  0.00  0.00    +0.029 C 
ATOM     27  C   UNL     1      35.166 -19.600 -22.013  0.00  0.00    +0.146 C 
BRANCH  27  32
ATOM     28  N   UNL     1      35.335 -17.525 -23.284  0.00  0.00    -0.105 NA
ATOM     29  N   UNL     1      35.004 -17.299 -24.563  0.00  0.00    -0.113 N 
ATOM     30  N   UNL     1      34.517 -19.341 -24.363  0.00  0.00    -0.085 NA
ATOM     31  N   UNL     1      34.515 -18.346 -25.242  0.00  0.00    -0.018 NA
ATOM     32  C   UNL     1      35.012 -18.818 -23.206  0.00  0.00    +0.092 C 
ATOM     33  C   UNL     1      35.164 -16.005 -25.175  0.00  0.00    +0.163 C 
ENDBRANCH  27  32
ENDBRANCH   5  23
TORSDOF 8
ENDMDL
MODEL 3
REMARK VINA RESULT:     -11.1      7.264     11.177
REMARK  Name = 11476460
REMARK  8 active torsions:
REMARK  status: ('A' for Active; 'I' for Inactive)
REMARK    1  A    between atoms: C_2  and  N_10
REMARK    2  A    between atoms: C_5  and  C_23
REMARK    3  A    between atoms: C_11  and  C_14
REMARK    4  A    between atoms: C_14  and  O_15
REMARK    5  A    between atoms: O_15  and  P_16
REMARK    6  A    between atoms: P_16  and  O_18
REMARK    7  A    between atoms: P_16  and  O_20
REMARK    8  A    between atoms: C_27  and  C_32
REMARK                            x       y       z     vdW  Elec       q    Type
REMARK                         _______ _______ _______ _____ _____    ______ ____
ROOT
ATOM      1  F   UNL     1      33.710 -21.090 -20.366  0.00  0.00    -0.204 F 
ATOM      2  C   UNL     1      35.492 -18.890 -22.654  0.00  0.00    +0.059 C 
ATOM      3  C   UNL     1      34.464 -19.633 -22.065  0.00  0.00    +0.045 C 
ATOM      4  C   UNL     1      36.768 -18.905 -22.082  0.00  0.00    +0.015 C 
ATOM      5  C   UNL     1      35.984 -20.394 -20.348  0.00  0.00    +0.029 C 
ATOM      6  C   UNL     1      34.709 -20.383 -20.915  0.00  0.00    +0.141 C 
ATOM      7  C   UNL     1      37.013 -19.655 -20.931  0.00  0.00    +0.004 C 
ENDROOT
BRANCH   2  10
ATOM      8  O   UNL     1      34.547 -17.495 -25.882  0.00  0.00    -0.434 OA
ATOM      9  O   UNL     1      34.065 -19.616 -25.240  0.00  0.00    -0.226 OA
ATOM     10  N   UNL     1      35.241 -18.125 -23.828  0.00  0.00    -0.221 N 
ATOM     11  C   UNL     1      35.016 -16.303 -25.237  0.00  0.00    +0.221 C 
ATOM     12  C   UNL     1      35.774 -16.805 -24.027  0.00  0.00    +0.148 C 
ATOM     13  C   UNL     1      34.566 -18.532 -24.977  0.00  0.00    +0.409 C 
BRANCH  11  14
ATOM     14  C   UNL     1      33.818 -15.435 -24.876  0.00  0.00    +0.199 C 
BRANCH  14  15
ATOM     15  O   UNL     1      34.180 -14.075 -25.030  0.00  0.00    -0.269 OA
BRANCH  15  16
ATOM     16  P   UNL     1      34.045 -13.090 -23.752  0.00  0.00    +0.473 P 
ATOM     17  O   UNL     1      32.672 -13.013 -23.152  0.00  0.00    -0.227 OA
BRANCH  16  18
ATOM     18  O   UNL     1      34.648 -11.686 -24.283  0.00  0.00    -0.303 OA
ATOM     19  H   UNL     1      34.112 -10.954 -23.939  0.00  0.00    +0.222 HD
ENDBRANCH  16  18
BRANCH  16  20
ATOM     20  O   UNL     1      35.196 -13.634 -22.753  0.00  0.00    -0.303 OA
ATOM     21  H   UNL     1      34.823 -13.756 -21.867  0.00  0.00    +0.222 HD
ENDBRANCH  16  20
ENDBRANCH  15  16
ENDBRANCH  14  15
ENDBRANCH  11  14
ENDBRANCH   2  10
BRANCH   5  23
ATOM     22  N   UNL     1      35.570 -22.948 -17.665  0.00  0.00    -0.234 NA
ATOM     23  C   UNL     1      36.244 -21.171 -19.155  0.00  0.00    +0.021 C 
ATOM     24  C   UNL     1      37.358 -20.918 -18.366  0.00  0.00    +0.004 C 
ATOM     25  C   UNL     1      35.388 -22.187 -18.767  0.00  0.00    +0.100 C 
ATOM     26  C   UNL     1      37.580 -21.680 -17.225  0.00  0.00    +0.029 C 
ATOM     27  C   UNL     1      36.665 -22.675 -16.921  0.00  0.00    +0.146 C 
BRANCH  27  32
ATOM     28  N   UNL     1      37.603 -23.134 -14.718  0.00  0.00    -0.105 NA
ATOM     29  N   UNL     1      37.427 -24.212 -13.941  0.00  0.00    -0.113 N 
ATOM     30  N   UNL     1      36.246 -24.707 -15.616  0.00  0.00    -0.085 NA
ATOM     31  N   UNL     1      36.630 -25.170 -14.433  0.00  0.00    -0.018 NA
ATOM     32  C   UNL     1      36.844 -23.491 -15.755  0.00  0.00    +0.092 C 
ATOM     33  C   UNL     1      38.057 -24.335 -12.652  0.00  0.00    +0.163 C 
ENDBRANCH  27  32
ENDBRANCH   5  23
TORSDOF 8
ENDMDL
MODEL 4
REMARK VINA RESULT:     -10.9      7.915     11.693
REMARK  Name = 11476460
REMARK  8 active torsions:
REMARK  status: ('A' for Active; 'I' for Inactive)
REMARK    1  A    between atoms: C_2  and  N_10
REMARK    2  A    between atoms: C_5  and  C_23
REMARK    3  A    between atoms: C_11  and  C_14
REMARK    4  A    between atoms: C_14  and  O_15
REMARK    5  A    between atoms: O_15  and  P_16
REMARK    6  A    between atoms: P_16  and  O_18
REMARK    7  A    between atoms: P_16  and  O_20
REMARK    8  A    between atoms: C_27  and  C_32
REMARK                            x       y       z     vdW  Elec       q    Type
REMARK                         _______ _______ _______ _____ _____    ______ ____
ROOT
ATOM      1  F   UNL     1      33.782 -20.867 -20.503  0.00  0.00    -0.204 F 
ATOM      2  C   UNL     1      35.486 -18.712 -22.890  0.00  0.00    +0.059 C 
ATOM      3  C   UNL     1      34.479 -19.442 -22.252  0.00  0.00    +0.045 C 
ATOM      4  C   UNL     1      36.782 -18.720 -22.362  0.00  0.00    +0.015 C 
ATOM      5  C   UNL     1      36.057 -20.177 -20.577  0.00  0.00    +0.029 C 
ATOM      6  C   UNL     1      34.763 -20.173 -21.099  0.00  0.00    +0.141 C 
ATOM      7  C   UNL     1      37.066 -19.451 -21.209  0.00  0.00    +0.004 C 
ENDROOT
BRANCH   2  10
ATOM      8  O   UNL     1      34.402 -17.357 -26.091  0.00  0.00    -0.434 OA
ATOM      9  O   UNL     1      33.867 -19.436 -25.360  0.00  0.00    -0.226 OA
ATOM     10  N   UNL     1      35.197 -17.966 -24.067  0.00  0.00    -0.221 N 
ATOM     11  C   UNL     1      34.964 -16.172 -25.510  0.00  0.00    +0.221 C 
ATOM     12  C   UNL     1      35.774 -16.677 -24.336  0.00  0.00    +0.148 C 
ATOM     13  C   UNL     1      34.432 -18.370 -25.159  0.00  0.00    +0.409 C 
BRANCH  11  14
ATOM     14  C   UNL     1      33.830 -15.241 -25.100  0.00  0.00    +0.199 C 
BRANCH  14  15
ATOM     15  O   UNL     1      33.122 -14.850 -26.262  0.00  0.00    -0.269 OA
BRANCH  15  16
ATOM     16  P   UNL     1      33.483 -13.427 -26.945  0.00  0.00    +0.473 P 
ATOM     17  O   UNL     1      33.973 -12.373 -25.995  0.00  0.00    -0.227 OA
BRANCH  16  18
ATOM     18  O   UNL     1      32.145 -13.046 -27.769  0.00  0.00    -0.303 OA
ATOM     19  H   UNL     1      32.309 -13.153 -28.720  0.00  0.00    +0.222 HD
ENDBRANCH  16  18
BRANCH  16  20
ATOM     20  O   UNL     1      34.530 -13.839 -28.108  0.00  0.00    -0.303 OA
ATOM     21  H   UNL     1      34.697 -14.793 -28.067  0.00  0.00    +0.222 HD
ENDBRANCH  16  20
ENDBRANCH  15  16
ENDBRANCH  14  15
ENDBRANCH  11  14
ENDBRANCH   2  10
BRANCH   5  23
ATOM     22  N   UNL     1      35.843 -22.806 -17.943  0.00  0.00    -0.234 NA
ATOM     23  C   UNL     1      36.357 -20.935 -19.381  0.00  0.00    +0.021 C 
ATOM     24  C   UNL     1      37.393 -20.557 -18.538  0.00  0.00    +0.004 C 
ATOM     25  C   UNL     1      35.618 -22.055 -19.044  0.00  0.00    +0.100 C 
ATOM     26  C   UNL     1      37.657 -21.304 -17.395  0.00  0.00    +0.029 C 
ATOM     27  C   UNL     1      36.860 -22.410 -17.145  0.00  0.00    +0.146 C 
BRANCH  27  32
ATOM     28  N   UNL     1      36.571 -24.436 -15.820  0.00  0.00    -0.105 NA
ATOM     29  N   UNL     1      37.073 -24.725 -14.611  0.00  0.00    -0.113 N 
ATOM     30  N   UNL     1      37.851 -22.792 -14.936  0.00  0.00    -0.085 NA
ATOM     31  N   UNL     1      37.839 -23.779 -14.049  0.00  0.00    -0.018 NA
ATOM     32  C   UNL     1      37.086 -23.216 -15.979  0.00  0.00    +0.092 C 
ATOM     33  C   UNL     1      36.807 -25.978 -13.953  0.00  0.00    +0.163 C 
ENDBRANCH  27  32
ENDBRANCH   5  23
TORSDOF 8
ENDMDL
MODEL 5
REMARK VINA RESULT:     -10.6      1.784      2.397
REMARK  Name = 11476460
REMARK  8 active torsions:
REMARK  status: ('A' for Active; 'I' for Inactive)
REMARK    1  A    between atoms: C_2  and  N_10
REMARK    2  A    between atoms: C_5  and  C_23
REMARK    3  A    between atoms: C_11  and  C_14
REMARK    4  A    between atoms: C_14  and  O_15
REMARK    5  A    between atoms: O_15  and  P_16
REMARK    6  A    between atoms: P_16  and  O_18
REMARK    7  A    between atoms: P_16  and  O_20
REMARK    8  A    between atoms: C_27  and  C_32
REMARK                            x       y       z     vdW  Elec       q    Type
REMARK                         _______ _______ _______ _____ _____    ______ ____
ROOT
ATOM      1  F   UNL     1      37.278 -20.950 -18.274  0.00  0.00    -0.204 F 
ATOM      2  C   UNL     1      35.208 -23.372 -16.515  0.00  0.00    +0.059 C 
ATOM      3  C   UNL     1      36.274 -22.522 -16.827  0.00  0.00    +0.045 C 
ATOM      4  C   UNL     1      34.113 -23.450 -17.381  0.00  0.00    +0.015 C 
ATOM      5  C   UNL     1      35.150 -21.839 -18.853  0.00  0.00    +0.029 C 
ATOM      6  C   UNL     1      36.245 -21.758 -17.993  0.00  0.00    +0.141 C 
ATOM      7  C   UNL     1      34.084 -22.685 -18.547  0.00  0.00    +0.004 C 
ENDROOT
BRANCH   2  10
ATOM      8  O   UNL     1      35.794 -25.696 -13.774  0.00  0.00    -0.434 OA
ATOM      9  O   UNL     1      36.992 -25.697 -15.700  0.00  0.00    -0.226 OA
ATOM     10  N   UNL     1      35.238 -24.153 -15.325  0.00  0.00    -0.221 N 
ATOM     11  C   UNL     1      34.863 -24.810 -13.137  0.00  0.00    +0.221 C 
ATOM     12  C   UNL     1      34.263 -24.016 -14.278  0.00  0.00    +0.148 C 
ATOM     13  C   UNL     1      36.101 -25.204 -15.023  0.00  0.00    +0.409 C 
BRANCH  11  14
ATOM     14  C   UNL     1      35.615 -23.945 -12.135  0.00  0.00    +0.199 C 
BRANCH  14  15
ATOM     15  O   UNL     1      36.774 -23.426 -12.764  0.00  0.00    -0.269 OA
BRANCH  15  16
ATOM     16  P   UNL     1      38.224 -23.936 -12.253  0.00  0.00    +0.473 P 
ATOM     17  O   UNL     1      39.064 -22.889 -11.582  0.00  0.00    -0.227 OA
BRANCH  16  18
ATOM     18  O   UNL     1      38.879 -24.611 -13.568  0.00  0.00    -0.303 OA
ATOM     19  H   UNL     1      38.692 -24.058 -14.343  0.00  0.00    +0.222 HD
ENDBRANCH  16  18
BRANCH  16  20
ATOM     20  O   UNL     1      37.853 -25.210 -11.327  0.00  0.00    -0.303 OA
ATOM     21  H   UNL     1      38.021 -24.993 -10.397  0.00  0.00    +0.222 HD
ENDBRANCH  16  20
ENDBRANCH  15  16
ENDBRANCH  14  15
ENDBRANCH  11  14
ENDBRANCH   2  10
BRANCH   5  23
ATOM     22  N   UNL     1      33.809 -19.969 -21.786  0.00  0.00    -0.234 NA
ATOM     23  C   UNL     1      35.115 -21.049 -20.065  0.00  0.00    +0.021 C 
ATOM     24  C   UNL     1      36.289 -20.619 -20.671  0.00  0.00    +0.004 C 
ATOM     25  C   UNL     1      33.913 -20.702 -20.655  0.00  0.00    +0.100 C 
ATOM     26  C   UNL     1      36.224 -19.863 -21.836  0.00  0.00    +0.029 C 
ATOM     27  C   UNL     1      34.971 -19.567 -22.348  0.00  0.00    +0.146 C 
BRANCH  27  32
ATOM     28  N   UNL     1      35.232 -17.517 -23.644  0.00  0.00    -0.105 NA
ATOM     29  N   UNL     1      34.901 -17.288 -24.922  0.00  0.00    -0.113 N 
ATOM     30  N   UNL     1      34.313 -19.300 -24.694  0.00  0.00    -0.085 NA
ATOM     31  N   UNL     1      34.353 -18.316 -25.584  0.00  0.00    -0.018 NA
ATOM     32  C   UNL     1      34.845 -18.791 -23.549  0.00  0.00    +0.092 C 
ATOM     33  C   UNL     1      35.120 -16.010 -25.549  0.00  0.00    +0.163 C 
ENDBRANCH  27  32
ENDBRANCH   5  23
TORSDOF 8
ENDMDL
MODEL 6
REMARK VINA RESULT:     -10.6      8.014     11.770
REMARK  Name = 11476460
REMARK  8 active torsions:
REMARK  status: ('A' for Active; 'I' for Inactive)
REMARK    1  A    between atoms: C_2  and  N_10
REMARK    2  A    between atoms: C_5  and  C_23
REMARK    3  A    between atoms: C_11  and  C_14
REMARK    4  A    between atoms: C_14  and  O_15
REMARK    5  A    between atoms: O_15  and  P_16
REMARK    6  A    between atoms: P_16  and  O_18
REMARK    7  A    between atoms: P_16  and  O_20
REMARK    8  A    between atoms: C_27  and  C_32
REMARK                            x       y       z     vdW  Elec       q    Type
REMARK                         _______ _______ _______ _____ _____    ______ ____
ROOT
ATOM      1  F   UNL     1      37.906 -19.221 -20.470  0.00  0.00    -0.204 F 
ATOM      2  C   UNL     1      35.327 -18.674 -22.979  0.00  0.00    +0.059 C 
ATOM      3  C   UNL     1      36.529 -18.566 -22.272  0.00  0.00    +0.045 C 
ATOM      4  C   UNL     1      34.345 -19.567 -22.535  0.00  0.00    +0.015 C 
ATOM      5  C   UNL     1      35.765 -20.230 -20.696  0.00  0.00    +0.029 C 
ATOM      6  C   UNL     1      36.747 -19.341 -21.133  0.00  0.00    +0.141 C 
ATOM      7  C   UNL     1      34.564 -20.342 -21.396  0.00  0.00    +0.004 C 
ENDROOT
BRANCH   2  10
ATOM      8  O   UNL     1      34.410 -17.188 -26.174  0.00  0.00    -0.434 OA
ATOM      9  O   UNL     1      33.803 -19.280 -25.540  0.00  0.00    -0.226 OA
ATOM     10  N   UNL     1      35.103 -17.883 -24.140  0.00  0.00    -0.221 N 
ATOM     11  C   UNL     1      34.969 -16.036 -25.528  0.00  0.00    +0.221 C 
ATOM     12  C   UNL     1      35.717 -16.598 -24.339  0.00  0.00    +0.148 C 
ATOM     13  C   UNL     1      34.379 -18.233 -25.278  0.00  0.00    +0.409 C 
BRANCH  11  14
ATOM     14  C   UNL     1      33.838 -15.095 -25.135  0.00  0.00    +0.199 C 
BRANCH  14  15
ATOM     15  O   UNL     1      33.093 -14.772 -26.296  0.00  0.00    -0.269 OA
BRANCH  15  16
ATOM     16  P   UNL     1      33.538 -13.480 -27.164  0.00  0.00    +0.473 P 
ATOM     17  O   UNL     1      34.601 -13.740 -28.191  0.00  0.00    -0.227 OA
BRANCH  16  18
ATOM     18  O   UNL     1      33.914 -12.376 -26.044  0.00  0.00    -0.303 OA
ATOM     19  H   UNL     1      34.768 -11.970 -26.264  0.00  0.00    +0.222 HD
ENDBRANCH  16  18
BRANCH  16  20
ATOM     20  O   UNL     1      32.132 -12.942 -27.757  0.00  0.00    -0.303 OA
ATOM     21  H   UNL     1      32.093 -13.125 -28.709  0.00  0.00    +0.222 HD
ENDBRANCH  16  20
ENDBRANCH  15  16
ENDBRANCH  14  15
ENDBRANCH  11  14
ENDBRANCH   2  10
BRANCH   5  23
ATOM     22  N   UNL     1      35.216 -22.783 -18.037  0.00  0.00    -0.234 NA
ATOM     23  C   UNL     1      35.987 -21.036 -19.514  0.00  0.00    +0.021 C 
ATOM     24  C   UNL     1      37.122 -20.862 -18.734  0.00  0.00    +0.004 C 
ATOM     25  C   UNL     1      35.072 -21.999 -19.128  0.00  0.00    +0.100 C 
ATOM     26  C   UNL     1      37.307 -21.650 -17.604  0.00  0.00    +0.029 C 
ATOM     27  C   UNL     1      36.333 -22.588 -17.301  0.00  0.00    +0.146 C 
BRANCH  27  32
ATOM     28  N   UNL     1      37.363 -23.205 -15.178  0.00  0.00    -0.105 NA
ATOM     29  N   UNL     1      37.076 -24.242 -14.379  0.00  0.00    -0.113 N 
ATOM     30  N   UNL     1      35.694 -24.528 -15.946  0.00  0.00    -0.085 NA
ATOM     31  N   UNL     1      36.093 -25.053 -14.794  0.00  0.00    -0.018 NA
ATOM     32  C   UNL     1      36.471 -23.427 -16.145  0.00  0.00    +0.092 C 
ATOM     33  C   UNL     1      37.783 -24.473 -13.146  0.00  0.00    +0.163 C 
ENDBRANCH  27  32
ENDBRANCH   5  23
TORSDOF 8
ENDMDL
MODEL 7
REMARK VINA RESULT:     -10.2      2.356      3.499
REMARK  Name = 11476460
REMARK  8 active torsions:
REMARK  status: ('A' for Active; 'I' for Inactive)
REMARK    1  A    between atoms: C_2  and  N_10
REMARK    2  A    between atoms: C_5  and  C_23
REMARK    3  A    between atoms: C_11  and  C_14
REMARK    4  A    between atoms: C_14  and  O_15
REMARK    5  A    between atoms: O_15  and  P_16
REMARK    6  A    between atoms: P_16  and  O_18
REMARK    7  A    between atoms: P_16  and  O_20
REMARK    8  A    between atoms: C_27  and  C_32
REMARK                            x       y       z     vdW  Elec       q    Type
REMARK                         _______ _______ _______ _____ _____    ______ ____
ROOT
ATOM      1  F   UNL     1      37.863 -19.398 -20.067  0.00  0.00    -0.204 F 
ATOM      2  C   UNL     1      36.258 -22.033 -18.137  0.00  0.00    +0.059 C 
ATOM      3  C   UNL     1      37.208 -21.105 -18.572  0.00  0.00    +0.045 C 
ATOM      4  C   UNL     1      35.032 -22.129 -18.804  0.00  0.00    +0.015 C 
ATOM      5  C   UNL     1      35.713 -20.380 -20.326  0.00  0.00    +0.029 C 
ATOM      6  C   UNL     1      36.937 -20.280 -19.664  0.00  0.00    +0.141 C 
ATOM      7  C   UNL     1      34.761 -21.305 -19.896  0.00  0.00    +0.004 C 
ENDROOT
BRANCH   2  10
ATOM      8  O   UNL     1      37.604 -23.968 -15.362  0.00  0.00    -0.434 OA
ATOM      9  O   UNL     1      38.857 -22.595 -16.661  0.00  0.00    -0.226 OA
ATOM     10  N   UNL     1      36.535 -22.875 -17.023  0.00  0.00    -0.221 N 
ATOM     11  C   UNL     1      36.204 -24.197 -15.152  0.00  0.00    +0.221 C 
ATOM     12  C   UNL     1      35.554 -23.753 -16.445  0.00  0.00    +0.148 C 
ATOM     13  C   UNL     1      37.763 -23.071 -16.394  0.00  0.00    +0.409 C 
BRANCH  11  14
ATOM     14  C   UNL     1      35.749 -23.389 -13.944  0.00  0.00    +0.199 C 
BRANCH  14  15
ATOM     15  O   UNL     1      36.637 -23.642 -12.870  0.00  0.00    -0.269 OA
BRANCH  15  16
ATOM     16  P   UNL     1      36.314 -24.880 -11.876  0.00  0.00    +0.473 P 
ATOM     17  O   UNL     1      37.118 -26.122 -12.129  0.00  0.00    -0.227 OA
BRANCH  16  18
ATOM     18  O   UNL     1      34.711 -25.058 -11.992  0.00  0.00    -0.303 OA
ATOM     19  H   UNL     1      34.458 -25.103 -12.928  0.00  0.00    +0.222 HD
ENDBRANCH  16  18
BRANCH  16  20
ATOM     20  O   UNL     1      36.510 -24.226 -10.409  0.00  0.00    -0.303 OA
ATOM     21  H   UNL     1      37.444 -24.279 -10.155  0.00  0.00    +0.222 HD
ENDBRANCH  16  20
ENDBRANCH  15  16
ENDBRANCH  14  15
ENDBRANCH  11  14
ENDBRANCH   2  10
BRANCH   5  23
ATOM     22  N   UNL     1      35.334 -17.303 -22.396  0.00  0.00    -0.234 NA
ATOM     23  C   UNL     1      35.426 -19.528 -21.460  0.00  0.00    +0.021 C 
ATOM     24  C   UNL     1      34.982 -20.063 -22.661  0.00  0.00    +0.004 C 
ATOM     25  C   UNL     1      35.585 -18.156 -21.377  0.00  0.00    +0.100 C 
ATOM     26  C   UNL     1      34.713 -19.219 -23.733  0.00  0.00    +0.029 C 
ATOM     27  C   UNL     1      34.904 -17.859 -23.550  0.00  0.00    +0.146 C 
BRANCH  27  32
ATOM     28  N   UNL     1      34.435 -15.636 -24.436  0.00  0.00    -0.105 NA
ATOM     29  N   UNL     1      34.245 -15.265 -25.710  0.00  0.00    -0.113 N 
ATOM     30  N   UNL     1      34.580 -17.337 -25.923  0.00  0.00    -0.085 NA
ATOM     31  N   UNL     1      34.323 -16.241 -26.626  0.00  0.00    -0.018 NA
ATOM     32  C   UNL     1      34.641 -16.941 -24.622  0.00  0.00    +0.092 C 
ATOM     33  C   UNL     1      33.973 -13.899 -26.076  0.00  0.00    +0.163 C 
ENDBRANCH  27  32
ENDBRANCH   5  23
TORSDOF 8
ENDMDL
MODEL 8
REMARK VINA RESULT:     -10.1     12.624     16.038
REMARK  Name = 11476460
REMARK  8 active torsions:
REMARK  status: ('A' for Active; 'I' for Inactive)
REMARK    1  A    between atoms: C_2  and  N_10
REMARK    2  A    between atoms: C_5  and  C_23
REMARK    3  A    between atoms: C_11  and  C_14
REMARK    4  A    between atoms: C_14  and  O_15
REMARK    5  A    between atoms: O_15  and  P_16
REMARK    6  A    between atoms: P_16  and  O_18
REMARK    7  A    between atoms: P_16  and  O_20
REMARK    8  A    between atoms: C_27  and  C_32
REMARK                            x       y       z     vdW  Elec       q    Type
REMARK                         _______ _______ _______ _____ _____    ______ ____
ROOT
ATOM      1  F   UNL     1      31.798 -12.781 -21.344  0.00  0.00    -0.204 F 
ATOM      2  C   UNL     1      32.398  -9.597 -23.001  0.00  0.00    +0.059 C 
ATOM      3  C   UNL     1      31.826 -10.573 -22.179  0.00  0.00    +0.045 C 
ATOM      4  C   UNL     1      33.512  -9.921 -23.783  0.00  0.00    +0.015 C 
ATOM      5  C   UNL     1      33.473 -12.178 -22.920  0.00  0.00    +0.029 C 
ATOM      6  C   UNL     1      32.362 -11.860 -22.138  0.00  0.00    +0.141 C 
ATOM      7  C   UNL     1      34.048 -11.208 -23.742  0.00  0.00    +0.004 C 
ENDROOT
BRANCH   2  10
ATOM      8  O   UNL     1      31.120  -6.234 -22.441  0.00  0.00    -0.434 OA
ATOM      9  O   UNL     1      31.963  -7.548 -20.796  0.00  0.00    -0.226 OA
ATOM     10  N   UNL     1      31.851  -8.284 -23.043  0.00  0.00    -0.221 N 
ATOM     11  C   UNL     1      31.106  -6.257 -23.875  0.00  0.00    +0.221 C 
ATOM     12  C   UNL     1      31.266  -7.720 -24.229  0.00  0.00    +0.148 C 
ATOM     13  C   UNL     1      31.694  -7.397 -21.980  0.00  0.00    +0.409 C 
BRANCH  11  14
ATOM     14  C   UNL     1      32.245  -5.388 -24.391  0.00  0.00    +0.199 C 
BRANCH  14  15
ATOM     15  O   UNL     1      32.419  -4.295 -23.506  0.00  0.00    -0.269 OA
BRANCH  15  16
ATOM     16  P   UNL     1      31.377  -3.059 -23.592  0.00  0.00    +0.473 P 
ATOM     17  O   UNL     1      30.686  -2.902 -24.915  0.00  0.00    -0.227 OA
BRANCH  16  18
ATOM     18  O   UNL     1      32.252  -1.786 -23.114  0.00  0.00    -0.303 OA
ATOM     19  H   UNL     1      32.682  -1.381 -23.884  0.00  0.00    +0.222 HD
ENDBRANCH  16  18
BRANCH  16  20
ATOM     20  O   UNL     1      30.393  -3.326 -22.336  0.00  0.00    -0.303 OA
ATOM     21  H   UNL     1      30.134  -4.261 -22.323  0.00  0.00    +0.222 HD
ENDBRANCH  16  20
ENDBRANCH  15  16
ENDBRANCH  14  15
ENDBRANCH  11  14
ENDBRANCH   2  10
BRANCH   5  23
ATOM     22  N   UNL     1      34.929 -15.335 -21.577  0.00  0.00    -0.234 NA
ATOM     23  C   UNL     1      34.032 -13.512 -22.882  0.00  0.00    +0.021 C 
ATOM     24  C   UNL     1      34.217 -14.242 -24.049  0.00  0.00    +0.004 C 
ATOM     25  C   UNL     1      34.400 -14.096 -21.683  0.00  0.00    +0.100 C 
ATOM     26  C   UNL     1      34.758 -15.521 -23.981  0.00  0.00    +0.029 C 
ATOM     27  C   UNL     1      35.095 -16.018 -22.732  0.00  0.00    +0.146 C 
BRANCH  27  32
ATOM     28  N   UNL     1      35.900 -17.914 -21.428  0.00  0.00    -0.105 NA
ATOM     29  N   UNL     1      36.404 -19.077 -21.865  0.00  0.00    -0.113 N 
ATOM     30  N   UNL     1      35.993 -18.090 -23.683  0.00  0.00    -0.085 NA
ATOM     31  N   UNL     1      36.478 -19.226 -23.195  0.00  0.00    -0.018 NA
ATOM     32  C   UNL     1      35.658 -17.331 -22.603  0.00  0.00    +0.092 C 
ATOM     33  C   UNL     1      36.841 -20.108 -20.959  0.00  0.00    +0.163 C 
ENDBRANCH  27  32
ENDBRANCH   5  23
TORSDOF 8
ENDMDL
MODEL 9
REMARK VINA RESULT:     -10.0      3.160      4.898
REMARK  Name = 11476460
REMARK  8 active torsions:
REMARK  status: ('A' for Active; 'I' for Inactive)
REMARK    1  A    between atoms: C_2  and  N_10
REMARK    2  A    between atoms: C_5  and  C_23
REMARK    3  A    between atoms: C_11  and  C_14
REMARK    4  A    between atoms: C_14  and  O_15
REMARK    5  A    between atoms: O_15  and  P_16
REMARK    6  A    between atoms: P_16  and  O_18
REMARK    7  A    between atoms: P_16  and  O_20
REMARK    8  A    between atoms: C_27  and  C_32
REMARK                            x       y       z     vdW  Elec       q    Type
REMARK                         _______ _______ _______ _____ _____    ______ ____
ROOT
ATOM      1  F   UNL     1      37.458 -19.467 -21.016  0.00  0.00    -0.204 F 
ATOM      2  C   UNL     1      35.482 -21.722 -18.953  0.00  0.00    +0.059 C 
ATOM      3  C   UNL     1      36.575 -21.025 -19.477  0.00  0.00    +0.045 C 
ATOM      4  C   UNL     1      34.207 -21.508 -19.489  0.00  0.00    +0.015 C 
ATOM      5  C   UNL     1      35.123 -19.915 -21.057  0.00  0.00    +0.029 C 
ATOM      6  C   UNL     1      36.397 -20.124 -20.527  0.00  0.00    +0.141 C 
ATOM      7  C   UNL     1      34.029 -20.607 -20.539  0.00  0.00    +0.004 C 
ENDROOT
BRANCH   2  10
ATOM      8  O   UNL     1      36.544 -23.766 -16.133  0.00  0.00    -0.434 OA
ATOM      9  O   UNL     1      37.798 -22.095 -17.018  0.00  0.00    -0.226 OA
ATOM     10  N   UNL     1      35.664 -22.641 -17.882  0.00  0.00    -0.221 N 
ATOM     11  C   UNL     1      35.183 -24.204 -16.243  0.00  0.00    +0.221 C 
ATOM     12  C   UNL     1      34.737 -23.704 -17.601  0.00  0.00    +0.148 C 
ATOM     13  C   UNL     1      36.760 -22.742 -17.029  0.00  0.00    +0.409 C 
BRANCH  11  14
ATOM     14  C   UNL     1      34.381 -23.610 -15.093  0.00  0.00    +0.199 C 
BRANCH  14  15
ATOM     15  O   UNL     1      33.335 -24.505 -14.760  0.00  0.00    -0.269 OA
BRANCH  15  16
ATOM     16  P   UNL     1      32.055 -23.932 -13.952  0.00  0.00    +0.473 P 
ATOM     17  O   UNL     1      31.075 -23.157 -14.784  0.00  0.00    -0.227 OA
BRANCH  16  18
ATOM     18  O   UNL     1      32.713 -23.116 -12.720  0.00  0.00    -0.303 OA
ATOM     19  H   UNL     1      32.027 -22.913 -12.064  0.00  0.00    +0.222 HD
ENDBRANCH  16  18
BRANCH  16  20
ATOM     20  O   UNL     1      31.453 -25.255 -13.241  0.00  0.00    -0.303 OA
ATOM     21  H   UNL     1      30.943 -25.765 -13.890  0.00  0.00    +0.222 HD
ENDBRANCH  16  20
ENDBRANCH  15  16
ENDBRANCH  14  15
ENDBRANCH  11  14
ENDBRANCH   2  10
BRANCH   5  23
ATOM     22  N   UNL     1      34.863 -16.692 -22.913  0.00  0.00    -0.234 NA
ATOM     23  C   UNL     1      34.933 -18.982 -22.147  0.00  0.00    +0.021 C 
ATOM     24  C   UNL     1      34.645 -19.430 -23.429  0.00  0.00    +0.004 C 
ATOM     25  C   UNL     1      35.031 -17.617 -21.941  0.00  0.00    +0.100 C 
ATOM     26  C   UNL     1      34.465 -18.510 -24.456  0.00  0.00    +0.029 C 
ATOM     27  C   UNL     1      34.584 -17.164 -24.148  0.00  0.00    +0.146 C 
BRANCH  27  32
ATOM     28  N   UNL     1      34.327 -14.863 -24.913  0.00  0.00    -0.105 NA
ATOM     29  N   UNL     1      34.171 -14.410 -26.165  0.00  0.00    -0.113 N 
ATOM     30  N   UNL     1      34.308 -16.489 -26.488  0.00  0.00    -0.085 NA
ATOM     31  N   UNL     1      34.154 -15.338 -27.131  0.00  0.00    -0.018 NA
ATOM     32  C   UNL     1      34.408 -16.170 -25.168  0.00  0.00    +0.092 C 
ATOM     33  C   UNL     1      34.030 -13.007 -26.457  0.00  0.00    +0.163 C 
ENDBRANCH  27  32
ENDBRANCH   5  23
TORSDOF 8
ENDMDL
