MODEL 1
REMARK VINA RESULT:     -11.5      0.000      0.000
REMARK  Name = 5289109
REMARK  6 active torsions:
REMARK  status: ('A' for Active; 'I' for Inactive)
REMARK    1  A    between atoms: C_3  and  C_9
REMARK    2  A    between atoms: C_4  and  C_21
REMARK    3  A    between atoms: N_8  and  C_11
REMARK    4  A    between atoms: C_11  and  C_12
REMARK    5  A    between atoms: N_20  and  C_23
REMARK    6  A    between atoms: C_23  and  C_24
REMARK                            x       y       z     vdW  Elec       q    Type
REMARK                         _______ _______ _______ _____ _____    ______ ____
ROOT
ATOM      1  N   UNL     1      34.807 -17.841 -24.725  0.00  0.00    -0.244 NA
ATOM      2  N   UNL     1      33.925 -16.155 -26.204  0.00  0.00    -0.244 NA
ATOM      3  C   UNL     1      35.113 -16.860 -23.850  0.00  0.00    +0.115 C 
ATOM      4  C   UNL     1      34.265 -15.257 -25.277  0.00  0.00    +0.115 C 
ATOM      5  C   UNL     1      34.861 -15.522 -24.079  0.00  0.00    +0.100 C 
ATOM      6  C   UNL     1      34.223 -17.423 -25.864  0.00  0.00    +0.250 C 
ENDROOT
BRANCH   3   9
ATOM      7  O   UNL     1      35.540 -16.674 -21.552  0.00  0.00    -0.269 OA
ATOM      8  N   UNL     1      36.562 -18.424 -22.678  0.00  0.00    -0.296 N 
ATOM      9  C   UNL     1      35.745 -17.289 -22.614  0.00  0.00    +0.260 C 
ATOM     10  H   UNL     1      36.683 -18.863 -23.550  0.00  0.00    +0.150 HD
BRANCH   8  11
ATOM     11  C   UNL     1      37.239 -18.987 -21.532  0.00  0.00    +0.117 C 
BRANCH  11  12
ATOM     12  C   UNL     1      36.383 -19.987 -20.809  0.00  0.00    -0.003 C 
ATOM     13  C   UNL     1      35.013 -20.010 -21.036  0.00  0.00    -0.007 C 
ATOM     14  C   UNL     1      34.218 -20.941 -20.366  0.00  0.00    -0.022 C 
ATOM     15  C   UNL     1      36.971 -20.880 -19.919  0.00  0.00    -0.003 C 
ATOM     16  C   UNL     1      34.800 -21.840 -19.472  0.00  0.00    -0.004 C 
ATOM     17  C   UNL     1      36.177 -21.809 -19.249  0.00  0.00    -0.001 C 
ATOM     18  C   UNL     1      32.746 -20.973 -20.603  0.00  0.00    +0.031 C 
ENDBRANCH  11  12
ENDBRANCH   8  11
ENDBRANCH   3   9
BRANCH   4  21
ATOM     19  O   UNL     1      33.428 -13.609 -26.719  0.00  0.00    -0.269 OA
ATOM     20  N   UNL     1      34.245 -12.897 -24.669  0.00  0.00    -0.296 N 
ATOM     21  C   UNL     1      33.946 -13.851 -25.632  0.00  0.00    +0.260 C 
ATOM     22  H   UNL     1      34.661 -13.190 -23.826  0.00  0.00    +0.150 HD
BRANCH  20  23
ATOM     23  C   UNL     1      33.971 -11.495 -24.855  0.00  0.00    +0.117 C 
BRANCH  23  24
ATOM     24  C   UNL     1      33.261 -10.896 -23.688  0.00  0.00    -0.003 C 
ATOM     25  C   UNL     1      32.741 -11.722 -22.691  0.00  0.00    -0.007 C 
ATOM     26  C   UNL     1      32.076 -11.163 -21.598  0.00  0.00    -0.022 C 
ATOM     27  C   UNL     1      33.117  -9.513 -23.592  0.00  0.00    -0.003 C 
ATOM     28  C   UNL     1      31.933  -9.779 -21.504  0.00  0.00    -0.004 C 
ATOM     29  C   UNL     1      32.453  -8.953 -22.501  0.00  0.00    -0.001 C 
ATOM     30  C   UNL     1      31.519 -12.045 -20.533  0.00  0.00    +0.031 C 
ENDBRANCH  23  24
ENDBRANCH  20  23
ENDBRANCH   4  21
TORSDOF 6
ENDMDL
MODEL 2
REMARK VINA RESULT:     -11.5      0.096      8.693
REMARK  Name = 5289109
REMARK  6 active torsions:
REMARK  status: ('A' for Active; 'I' for Inactive)
REMARK    1  A    between atoms: C_3  and  C_9
REMARK    2  A    between atoms: C_4  and  C_21
REMARK    3  A    between atoms: N_8  and  C_11
REMARK    4  A    between atoms: C_11  and  C_12
REMARK    5  A    between atoms: N_20  and  C_23
REMARK    6  A    between atoms: C_23  and  C_24
REMARK                            x       y       z     vdW  Elec       q    Type
REMARK                         _______ _______ _______ _____ _____    ______ ____
ROOT
ATOM      1  N   UNL     1      33.908 -16.094 -26.226  0.00  0.00    -0.244 NA
ATOM      2  N   UNL     1      34.811 -17.781 -24.762  0.00  0.00    -0.244 NA
ATOM      3  C   UNL     1      34.244 -15.168 -25.304  0.00  0.00    +0.115 C 
ATOM      4  C   UNL     1      35.105 -16.794 -23.913  0.00  0.00    +0.115 C 
ATOM      5  C   UNL     1      34.856 -15.467 -24.103  0.00  0.00    +0.100 C 
ATOM      6  C   UNL     1      34.217 -17.362 -25.895  0.00  0.00    +0.250 C 
ENDROOT
BRANCH   3   9
ATOM      7  O   UNL     1      33.384 -13.516 -26.730  0.00  0.00    -0.269 OA
ATOM      8  N   UNL     1      34.215 -12.815 -24.682  0.00  0.00    -0.296 N 
ATOM      9  C   UNL     1      33.920 -13.792 -25.641  0.00  0.00    +0.260 C 
ATOM     10  H   UNL     1      34.640 -13.101 -23.841  0.00  0.00    +0.150 HD
BRANCH   8  11
ATOM     11  C   UNL     1      33.932 -11.409 -24.859  0.00  0.00    +0.117 C 
BRANCH  11  12
ATOM     12  C   UNL     1      33.226 -10.824 -23.670  0.00  0.00    -0.003 C 
ATOM     13  C   UNL     1      32.726 -11.666 -22.684  0.00  0.00    -0.007 C 
ATOM     14  C   UNL     1      32.073 -11.122 -21.578  0.00  0.00    -0.022 C 
ATOM     15  C   UNL     1      33.081  -9.445 -23.566  0.00  0.00    -0.003 C 
ATOM     16  C   UNL     1      31.922  -9.740 -21.467  0.00  0.00    -0.004 C 
ATOM     17  C   UNL     1      32.427  -8.902 -22.461  0.00  0.00    -0.001 C 
ATOM     18  C   UNL     1      31.532 -12.019 -20.516  0.00  0.00    +0.031 C 
ENDBRANCH  11  12
ENDBRANCH   8  11
ENDBRANCH   3   9
BRANCH   4  21
ATOM     19  O   UNL     1      35.523 -16.634 -21.611  0.00  0.00    -0.269 OA
ATOM     20  N   UNL     1      36.596 -18.339 -22.761  0.00  0.00    -0.296 N 
ATOM     21  C   UNL     1      35.761 -17.236 -22.656  0.00  0.00    +0.260 C 
ATOM     22  H   UNL     1      36.724 -18.754 -23.644  0.00  0.00    +0.150 HD
BRANCH  20  23
ATOM     23  C   UNL     1      37.285 -18.901 -21.626  0.00  0.00    +0.117 C 
BRANCH  23  24
ATOM     24  C   UNL     1      36.453 -19.902 -20.898  0.00  0.00    -0.003 C 
ATOM     25  C   UNL     1      35.073 -19.938 -21.097  0.00  0.00    -0.007 C 
ATOM     26  C   UNL     1      34.293 -20.875 -20.416  0.00  0.00    -0.022 C 
ATOM     27  C   UNL     1      37.054 -20.803 -20.019  0.00  0.00    -0.003 C 
ATOM     28  C   UNL     1      34.896 -21.775 -19.537  0.00  0.00    -0.004 C 
ATOM     29  C   UNL     1      36.276 -21.739 -19.338  0.00  0.00    -0.001 C 
ATOM     30  C   UNL     1      32.818 -20.913 -20.627  0.00  0.00    +0.031 C 
ENDBRANCH  23  24
ENDBRANCH  20  23
ENDBRANCH   4  21
TORSDOF 6
ENDMDL
MODEL 3
REMARK VINA RESULT:     -11.4      7.253     11.428
REMARK  Name = 5289109
REMARK  6 active torsions:
REMARK  status: ('A' for Active; 'I' for Inactive)
REMARK    1  A    between atoms: C_3  and  C_9
REMARK    2  A    between atoms: C_4  and  C_21
REMARK    3  A    between atoms: N_8  and  C_11
REMARK    4  A    between atoms: C_11  and  C_12
REMARK    5  A    between atoms: N_20  and  C_23
REMARK    6  A    between atoms: C_23  and  C_24
REMARK                            x       y       z     vdW  Elec       q    Type
REMARK                         _______ _______ _______ _____ _____    ______ ____
ROOT
ATOM      1  N   UNL     1      32.110 -25.180 -13.553  0.00  0.00    -0.244 NA
ATOM      2  N   UNL     1      30.810 -24.462 -15.450  0.00  0.00    -0.244 NA
ATOM      3  C   UNL     1      33.118 -24.399 -13.995  0.00  0.00    +0.115 C 
ATOM      4  C   UNL     1      31.861 -23.720 -15.807  0.00  0.00    +0.115 C 
ATOM      5  C   UNL     1      33.048 -23.632 -15.140  0.00  0.00    +0.100 C 
ATOM      6  C   UNL     1      31.002 -25.163 -14.318  0.00  0.00    +0.250 C 
ENDROOT
BRANCH   3   9
ATOM      7  O   UNL     1      34.384 -23.734 -12.137  0.00  0.00    -0.269 OA
ATOM      8  N   UNL     1      35.385 -25.203 -13.627  0.00  0.00    -0.296 N 
ATOM      9  C   UNL     1      34.324 -24.403 -13.185  0.00  0.00    +0.260 C 
ATOM     10  H   UNL     1      35.272 -25.706 -14.465  0.00  0.00    +0.150 HD
BRANCH   8  11
ATOM     11  C   UNL     1      36.639 -25.330 -12.919  0.00  0.00    +0.117 C 
BRANCH  11  12
ATOM     12  C   UNL     1      37.819 -25.191 -13.837  0.00  0.00    -0.003 C 
ATOM     13  C   UNL     1      38.938 -25.991 -13.644  0.00  0.00    -0.007 C 
ATOM     14  C   UNL     1      40.033 -25.863 -14.498  0.00  0.00    -0.022 C 
ATOM     15  C   UNL     1      37.780 -24.262 -14.871  0.00  0.00    -0.003 C 
ATOM     16  C   UNL     1      40.003 -24.933 -15.538  0.00  0.00    -0.004 C 
ATOM     17  C   UNL     1      38.875 -24.133 -15.724  0.00  0.00    -0.001 C 
ATOM     18  C   UNL     1      41.240 -26.717 -14.298  0.00  0.00    +0.031 C 
ENDBRANCH  11  12
ENDBRANCH   8  11
ENDBRANCH   3   9
BRANCH   4  21
ATOM     19  O   UNL     1      30.574 -22.436 -17.287  0.00  0.00    -0.269 OA
ATOM     20  N   UNL     1      32.787 -22.813 -17.870  0.00  0.00    -0.296 N 
ATOM     21  C   UNL     1      31.671 -22.938 -17.054  0.00  0.00    +0.260 C 
ATOM     22  H   UNL     1      33.624 -23.253 -17.597  0.00  0.00    +0.150 HD
BRANCH  20  23
ATOM     23  C   UNL     1      32.768 -22.064 -19.101  0.00  0.00    +0.117 C 
BRANCH  23  24
ATOM     24  C   UNL     1      34.129 -21.616 -19.513  0.00  0.00    -0.003 C 
ATOM     25  C   UNL     1      34.274 -20.684 -20.541  0.00  0.00    -0.007 C 
ATOM     26  C   UNL     1      35.549 -20.263 -20.926  0.00  0.00    -0.022 C 
ATOM     27  C   UNL     1      35.257 -22.127 -18.871  0.00  0.00    -0.003 C 
ATOM     28  C   UNL     1      36.675 -20.775 -20.283  0.00  0.00    -0.004 C 
ATOM     29  C   UNL     1      36.530 -21.707 -19.255  0.00  0.00    -0.001 C 
ATOM     30  C   UNL     1      35.705 -19.267 -22.025  0.00  0.00    +0.031 C 
ENDBRANCH  23  24
ENDBRANCH  20  23
ENDBRANCH   4  21
TORSDOF 6
ENDMDL
MODEL 4
REMARK VINA RESULT:     -11.3      1.955      9.853
REMARK  Name = 5289109
REMARK  6 active torsions:
REMARK  status: ('A' for Active; 'I' for Inactive)
REMARK    1  A    between atoms: C_3  and  C_9
REMARK    2  A    between atoms: C_4  and  C_21
REMARK    3  A    between atoms: N_8  and  C_11
REMARK    4  A    between atoms: C_11  and  C_12
REMARK    5  A    between atoms: N_20  and  C_23
REMARK    6  A    between atoms: C_23  and  C_24
REMARK                            x       y       z     vdW  Elec       q    Type
REMARK                         _______ _______ _______ _____ _____    ______ ____
ROOT
ATOM      1  N   UNL     1      34.391 -14.433 -21.801  0.00  0.00    -0.244 NA
ATOM      2  N   UNL     1      35.185 -16.518 -20.892  0.00  0.00    -0.244 NA
ATOM      3  C   UNL     1      34.669 -14.908 -23.034  0.00  0.00    +0.115 C 
ATOM      4  C   UNL     1      35.426 -16.899 -22.148  0.00  0.00    +0.115 C 
ATOM      5  C   UNL     1      35.199 -16.160 -23.272  0.00  0.00    +0.100 C 
ATOM      6  C   UNL     1      34.669 -15.279 -20.791  0.00  0.00    +0.250 C 
ENDROOT
BRANCH   3   9
ATOM      7  O   UNL     1      33.927 -14.454 -25.211  0.00  0.00    -0.269 OA
ATOM      8  N   UNL     1      34.601 -12.645 -23.926  0.00  0.00    -0.296 N 
ATOM      9  C   UNL     1      34.376 -14.011 -24.139  0.00  0.00    +0.260 C 
ATOM     10  H   UNL     1      34.958 -12.362 -23.053  0.00  0.00    +0.150 HD
BRANCH   8  11
ATOM     11  C   UNL     1      34.336 -11.627 -24.917  0.00  0.00    +0.117 C 
BRANCH  11  12
ATOM     12  C   UNL     1      34.226 -10.261 -24.305  0.00  0.00    -0.003 C 
ATOM     13  C   UNL     1      33.108  -9.936 -23.547  0.00  0.00    -0.007 C 
ATOM     14  C   UNL     1      33.006  -8.667 -22.975  0.00  0.00    -0.022 C 
ATOM     15  C   UNL     1      35.244  -9.335 -24.501  0.00  0.00    -0.003 C 
ATOM     16  C   UNL     1      34.023  -7.732 -23.168  0.00  0.00    -0.004 C 
ATOM     17  C   UNL     1      35.142  -8.066 -23.931  0.00  0.00    -0.001 C 
ATOM     18  C   UNL     1      31.809  -8.309 -22.161  0.00  0.00    +0.031 C 
ENDBRANCH  11  12
ENDBRANCH   8  11
ENDBRANCH   3   9
BRANCH   4  21
ATOM     19  O   UNL     1      36.721 -18.521 -23.240  0.00  0.00    -0.269 OA
ATOM     20  N   UNL     1      35.674 -19.159 -21.270  0.00  0.00    -0.296 N 
ATOM     21  C   UNL     1      35.996 -18.264 -22.281  0.00  0.00    +0.260 C 
ATOM     22  H   UNL     1      35.084 -18.858 -20.542  0.00  0.00    +0.150 HD
BRANCH  20  23
ATOM     23  C   UNL     1      36.170 -20.512 -21.245  0.00  0.00    +0.117 C 
BRANCH  23  24
ATOM     24  C   UNL     1      35.747 -21.248 -20.019  0.00  0.00    -0.003 C 
ATOM     25  C   UNL     1      36.659 -21.461 -18.985  0.00  0.00    -0.007 C 
ATOM     26  C   UNL     1      36.264 -22.149 -17.837  0.00  0.00    -0.022 C 
ATOM     27  C   UNL     1      34.440 -21.722 -19.905  0.00  0.00    -0.003 C 
ATOM     28  C   UNL     1      34.957 -22.622 -17.724  0.00  0.00    -0.004 C 
ATOM     29  C   UNL     1      34.045 -22.409 -18.757  0.00  0.00    -0.001 C 
ATOM     30  C   UNL     1      37.238 -22.378 -16.732  0.00  0.00    +0.031 C 
ENDBRANCH  23  24
ENDBRANCH  20  23
ENDBRANCH   4  21
TORSDOF 6
ENDMDL
MODEL 5
REMARK VINA RESULT:     -11.3      2.007      2.883
REMARK  Name = 5289109
REMARK  6 active torsions:
REMARK  status: ('A' for Active; 'I' for Inactive)
REMARK    1  A    between atoms: C_3  and  C_9
REMARK    2  A    between atoms: C_4  and  C_21
REMARK    3  A    between atoms: N_8  and  C_11
REMARK    4  A    between atoms: C_11  and  C_12
REMARK    5  A    between atoms: N_20  and  C_23
REMARK    6  A    between atoms: C_23  and  C_24
REMARK                            x       y       z     vdW  Elec       q    Type
REMARK                         _______ _______ _______ _____ _____    ______ ____
ROOT
ATOM      1  N   UNL     1      35.107 -16.384 -20.895  0.00  0.00    -0.244 NA
ATOM      2  N   UNL     1      34.343 -14.300 -21.834  0.00  0.00    -0.244 NA
ATOM      3  C   UNL     1      35.395 -16.798 -22.147  0.00  0.00    +0.115 C 
ATOM      4  C   UNL     1      34.660 -14.798 -23.031  0.00  0.00    +0.115 C 
ATOM      5  C   UNL     1      35.187 -16.032 -23.276  0.00  0.00    +0.100 C 
ATOM      6  C   UNL     1      34.592 -15.142 -20.814  0.00  0.00    +0.250 C 
ENDROOT
BRANCH   3   9
ATOM      7  O   UNL     1      36.267 -18.600 -23.369  0.00  0.00    -0.269 OA
ATOM      8  N   UNL     1      36.134 -18.850 -21.067  0.00  0.00    -0.296 N 
ATOM      9  C   UNL     1      35.953 -18.135 -22.258  0.00  0.00    +0.260 C 
ATOM     10  H   UNL     1      35.863 -18.424 -20.222  0.00  0.00    +0.150 HD
BRANCH   8  11
ATOM     11  C   UNL     1      36.699 -20.179 -21.011  0.00  0.00    +0.117 C 
BRANCH  11  12
ATOM     12  C   UNL     1      36.021 -21.034 -19.979  0.00  0.00    -0.003 C 
ATOM     13  C   UNL     1      36.721 -21.428 -18.846  0.00  0.00    -0.007 C 
ATOM     14  C   UNL     1      36.091 -22.220 -17.886  0.00  0.00    -0.022 C 
ATOM     15  C   UNL     1      34.699 -21.422 -20.168  0.00  0.00    -0.003 C 
ATOM     16  C   UNL     1      34.765 -22.614 -18.068  0.00  0.00    -0.004 C 
ATOM     17  C   UNL     1      34.069 -22.214 -19.209  0.00  0.00    -0.001 C 
ATOM     18  C   UNL     1      36.835 -22.649 -16.666  0.00  0.00    +0.031 C 
ENDBRANCH  11  12
ENDBRANCH   8  11
ENDBRANCH   3   9
BRANCH   4  21
ATOM     19  O   UNL     1      33.977 -14.351 -25.229  0.00  0.00    -0.269 OA
ATOM     20  N   UNL     1      34.617 -12.535 -23.934  0.00  0.00    -0.296 N 
ATOM     21  C   UNL     1      34.392 -13.885 -24.170  0.00  0.00    +0.260 C 
ATOM     22  H   UNL     1      34.951 -12.259 -23.051  0.00  0.00    +0.150 HD
BRANCH  20  23
ATOM     23  C   UNL     1      34.379 -11.523 -24.933  0.00  0.00    +0.117 C 
BRANCH  23  24
ATOM     24  C   UNL     1      34.252 -10.161 -24.339  0.00  0.00    -0.003 C 
ATOM     25  C   UNL     1      33.109  -9.819 -23.617  0.00  0.00    -0.007 C 
ATOM     26  C   UNL     1      32.990  -8.544 -23.061  0.00  0.00    -0.022 C 
ATOM     27  C   UNL     1      35.277  -9.229 -24.505  0.00  0.00    -0.003 C 
ATOM     28  C   UNL     1      34.015  -7.614 -23.227  0.00  0.00    -0.004 C 
ATOM     29  C   UNL     1      35.158  -7.955 -23.949  0.00  0.00    -0.001 C 
ATOM     30  C   UNL     1      31.767  -8.178 -22.290  0.00  0.00    +0.031 C 
ENDBRANCH  23  24
ENDBRANCH  20  23
ENDBRANCH   4  21
TORSDOF 6
ENDMDL
MODEL 6
REMARK VINA RESULT:     -11.3      2.092      3.677
REMARK  Name = 5289109
REMARK  6 active torsions:
REMARK  status: ('A' for Active; 'I' for Inactive)
REMARK    1  A    between atoms: C_3  and  C_9
REMARK    2  A    between atoms: C_4  and  C_21
REMARK    3  A    between atoms: N_8  and  C_11
REMARK    4  A    between atoms: C_11  and  C_12
REMARK    5  A    between atoms: N_20  and  C_23
REMARK    6  A    between atoms: C_23  and  C_24
REMARK                            x       y       z     vdW  Elec       q    Type
REMARK                         _______ _______ _______ _____ _____    ______ ____
ROOT
ATOM      1  N   UNL     1      33.881 -14.797 -27.006  0.00  0.00    -0.244 NA
ATOM      2  N   UNL     1      33.690 -12.603 -26.029  0.00  0.00    -0.244 NA
ATOM      3  C   UNL     1      33.862 -15.313 -25.759  0.00  0.00    +0.115 C 
ATOM      4  C   UNL     1      33.680 -13.206 -24.839  0.00  0.00    +0.115 C 
ATOM      5  C   UNL     1      33.761 -14.549 -24.614  0.00  0.00    +0.100 C 
ATOM      6  C   UNL     1      33.792 -13.455 -27.066  0.00  0.00    +0.250 C 
ENDROOT
BRANCH   3   9
ATOM      7  O   UNL     1      33.147 -17.486 -26.277  0.00  0.00    -0.269 OA
ATOM      8  N   UNL     1      35.003 -17.284 -24.902  0.00  0.00    -0.296 N 
ATOM      9  C   UNL     1      33.956 -16.760 -25.672  0.00  0.00    +0.260 C 
ATOM     10  H   UNL     1      35.609 -16.654 -24.449  0.00  0.00    +0.150 HD
BRANCH   8  11
ATOM     11  C   UNL     1      35.244 -18.700 -24.737  0.00  0.00    +0.117 C 
BRANCH  11  12
ATOM     12  C   UNL     1      35.650 -19.041 -23.333  0.00  0.00    -0.003 C 
ATOM     13  C   UNL     1      34.781 -19.761 -22.522  0.00  0.00    -0.007 C 
ATOM     14  C   UNL     1      35.159 -20.080 -21.218  0.00  0.00    -0.022 C 
ATOM     15  C   UNL     1      36.892 -18.634 -22.858  0.00  0.00    -0.003 C 
ATOM     16  C   UNL     1      36.403 -19.675 -20.733  0.00  0.00    -0.004 C 
ATOM     17  C   UNL     1      37.269 -18.952 -21.554  0.00  0.00    -0.001 C 
ATOM     18  C   UNL     1      34.232 -20.851 -20.340  0.00  0.00    +0.031 C 
ENDBRANCH  11  12
ENDBRANCH   8  11
ENDBRANCH   3   9
BRANCH   4  21
ATOM     19  O   UNL     1      33.558 -12.747 -22.542  0.00  0.00    -0.269 OA
ATOM     20  N   UNL     1      33.506 -10.931 -23.984  0.00  0.00    -0.296 N 
ATOM     21  C   UNL     1      33.568 -12.284 -23.680  0.00  0.00    +0.260 C 
ATOM     22  H   UNL     1      33.521 -10.657 -24.929  0.00  0.00    +0.150 HD
BRANCH  20  23
ATOM     23  C   UNL     1      33.421  -9.911 -22.969  0.00  0.00    +0.117 C 
BRANCH  23  24
ATOM     24  C   UNL     1      33.068  -8.577 -23.534  0.00  0.00    -0.003 C 
ATOM     25  C   UNL     1      34.073  -7.730 -24.001  0.00  0.00    -0.007 C 
ATOM     26  C   UNL     1      33.742  -6.481 -24.531  0.00  0.00    -0.022 C 
ATOM     27  C   UNL     1      31.733  -8.176 -23.596  0.00  0.00    -0.003 C 
ATOM     28  C   UNL     1      32.408  -6.082 -24.593  0.00  0.00    -0.004 C 
ATOM     29  C   UNL     1      31.403  -6.929 -24.125  0.00  0.00    -0.001 C 
ATOM     30  C   UNL     1      34.816  -5.575 -25.031  0.00  0.00    +0.031 C 
ENDBRANCH  23  24
ENDBRANCH  20  23
ENDBRANCH   4  21
TORSDOF 6
ENDMDL
MODEL 7
REMARK VINA RESULT:     -11.3      2.941      9.640
REMARK  Name = 5289109
REMARK  6 active torsions:
REMARK  status: ('A' for Active; 'I' for Inactive)
REMARK    1  A    between atoms: C_3  and  C_9
REMARK    2  A    between atoms: C_4  and  C_21
REMARK    3  A    between atoms: N_8  and  C_11
REMARK    4  A    between atoms: C_11  and  C_12
REMARK    5  A    between atoms: N_20  and  C_23
REMARK    6  A    between atoms: C_23  and  C_24
REMARK                            x       y       z     vdW  Elec       q    Type
REMARK                         _______ _______ _______ _____ _____    ______ ____
ROOT
ATOM      1  N   UNL     1      36.943 -18.692 -21.816  0.00  0.00    -0.244 NA
ATOM      2  N   UNL     1      36.310 -20.407 -20.246  0.00  0.00    -0.244 NA
ATOM      3  C   UNL     1      35.678 -18.708 -22.286  0.00  0.00    +0.115 C 
ATOM      4  C   UNL     1      35.087 -20.350 -20.778  0.00  0.00    +0.115 C 
ATOM      5  C   UNL     1      34.688 -19.535 -21.795  0.00  0.00    +0.100 C 
ATOM      6  C   UNL     1      37.185 -19.553 -20.810  0.00  0.00    +0.250 C 
ENDROOT
BRANCH   3   9
ATOM      7  O   UNL     1      34.995 -18.206 -24.473  0.00  0.00    -0.269 OA
ATOM      8  N   UNL     1      35.567 -16.420 -23.108  0.00  0.00    -0.296 N 
ATOM      9  C   UNL     1      35.394 -17.785 -23.372  0.00  0.00    +0.260 C 
ATOM     10  H   UNL     1      35.886 -16.155 -22.216  0.00  0.00    +0.150 HD
BRANCH   8  11
ATOM     11  C   UNL     1      35.304 -15.380 -24.076  0.00  0.00    +0.117 C 
BRANCH  11  12
ATOM     12  C   UNL     1      34.445 -14.288 -23.508  0.00  0.00    -0.003 C 
ATOM     13  C   UNL     1      33.847 -14.461 -22.265  0.00  0.00    -0.007 C 
ATOM     14  C   UNL     1      33.050 -13.445 -21.736  0.00  0.00    -0.022 C 
ATOM     15  C   UNL     1      34.256 -13.115 -24.230  0.00  0.00    -0.003 C 
ATOM     16  C   UNL     1      32.855 -12.265 -22.454  0.00  0.00    -0.004 C 
ATOM     17  C   UNL     1      33.459 -12.100 -23.701  0.00  0.00    -0.001 C 
ATOM     18  C   UNL     1      32.403 -13.622 -20.403  0.00  0.00    +0.031 C 
ENDBRANCH  11  12
ENDBRANCH   8  11
ENDBRANCH   3   9
BRANCH   4  21
ATOM     19  O   UNL     1      32.920 -20.967 -20.128  0.00  0.00    -0.269 OA
ATOM     20  N   UNL     1      34.619 -22.488 -19.705  0.00  0.00    -0.296 N 
ATOM     21  C   UNL     1      34.106 -21.285 -20.170  0.00  0.00    +0.260 C 
ATOM     22  H   UNL     1      35.587 -22.652 -19.784  0.00  0.00    +0.150 HD
BRANCH  20  23
ATOM     23  C   UNL     1      33.790 -23.508 -19.113  0.00  0.00    +0.117 C 
BRANCH  23  24
ATOM     24  C   UNL     1      33.644 -23.334 -17.639  0.00  0.00    -0.003 C 
ATOM     25  C   UNL     1      32.374 -23.231 -17.072  0.00  0.00    -0.007 C 
ATOM     26  C   UNL     1      32.237 -23.069 -15.692  0.00  0.00    -0.022 C 
ATOM     27  C   UNL     1      34.777 -23.275 -16.827  0.00  0.00    -0.003 C 
ATOM     28  C   UNL     1      33.370 -23.010 -14.882  0.00  0.00    -0.004 C 
ATOM     29  C   UNL     1      34.640 -23.113 -15.449  0.00  0.00    -0.001 C 
ATOM     30  C   UNL     1      30.879 -22.958 -15.086  0.00  0.00    +0.031 C 
ENDBRANCH  23  24
ENDBRANCH  20  23
ENDBRANCH   4  21
TORSDOF 6
ENDMDL
MODEL 8
REMARK VINA RESULT:     -11.2      2.088      9.617
REMARK  Name = 5289109
REMARK  6 active torsions:
REMARK  status: ('A' for Active; 'I' for Inactive)
REMARK    1  A    between atoms: C_3  and  C_9
REMARK    2  A    between atoms: C_4  and  C_21
REMARK    3  A    between atoms: N_8  and  C_11
REMARK    4  A    between atoms: C_11  and  C_12
REMARK    5  A    between atoms: N_20  and  C_23
REMARK    6  A    between atoms: C_23  and  C_24
REMARK                            x       y       z     vdW  Elec       q    Type
REMARK                         _______ _______ _______ _____ _____    ______ ____
ROOT
ATOM      1  N   UNL     1      33.766 -12.603 -26.031  0.00  0.00    -0.244 NA
ATOM      2  N   UNL     1      33.909 -14.799 -27.014  0.00  0.00    -0.244 NA
ATOM      3  C   UNL     1      33.752 -13.189 -24.816  0.00  0.00    +0.115 C 
ATOM      4  C   UNL     1      33.889 -15.285 -25.771  0.00  0.00    +0.115 C 
ATOM      5  C   UNL     1      33.811 -14.555 -24.622  0.00  0.00    +0.100 C 
ATOM      6  C   UNL     1      33.845 -13.455 -27.071  0.00  0.00    +0.250 C 
ENDROOT
BRANCH   3   9
ATOM      7  O   UNL     1      33.853 -12.707 -22.523  0.00  0.00    -0.269 OA
ATOM      8  N   UNL     1      33.393 -10.942 -23.955  0.00  0.00    -0.296 N 
ATOM      9  C   UNL     1      33.667 -12.288 -23.680  0.00  0.00    +0.260 C 
ATOM     10  H   UNL     1      33.256 -10.676 -24.892  0.00  0.00    +0.150 HD
BRANCH   8  11
ATOM     11  C   UNL     1      33.301  -9.920 -22.936  0.00  0.00    +0.117 C 
BRANCH  11  12
ATOM     12  C   UNL     1      32.976  -8.575 -23.517  0.00  0.00    -0.003 C 
ATOM     13  C   UNL     1      34.003  -7.749 -23.954  0.00  0.00    -0.007 C 
ATOM     14  C   UNL     1      33.701  -6.499 -24.497  0.00  0.00    -0.022 C 
ATOM     15  C   UNL     1      31.649  -8.170 -23.613  0.00  0.00    -0.003 C 
ATOM     16  C   UNL     1      32.373  -6.084 -24.596  0.00  0.00    -0.004 C 
ATOM     17  C   UNL     1      31.347  -6.921 -24.154  0.00  0.00    -0.001 C 
ATOM     18  C   UNL     1      34.798  -5.605 -24.967  0.00  0.00    +0.031 C 
ENDBRANCH  11  12
ENDBRANCH   8  11
ENDBRANCH   3   9
BRANCH   4  21
ATOM     19  O   UNL     1      33.166 -17.442 -26.338  0.00  0.00    -0.269 OA
ATOM     20  N   UNL     1      34.954 -17.282 -24.869  0.00  0.00    -0.296 N 
ATOM     21  C   UNL     1      33.958 -16.765 -25.685  0.00  0.00    +0.260 C 
ATOM     22  H   UNL     1      35.541 -16.657 -24.385  0.00  0.00    +0.150 HD
BRANCH  20  23
ATOM     23  C   UNL     1      35.164 -18.698 -24.703  0.00  0.00    +0.117 C 
BRANCH  23  24
ATOM     24  C   UNL     1      35.611 -19.046 -23.323  0.00  0.00    -0.003 C 
ATOM     25  C   UNL     1      34.781 -19.796 -22.490  0.00  0.00    -0.007 C 
ATOM     26  C   UNL     1      35.200 -20.123 -21.199  0.00  0.00    -0.022 C 
ATOM     27  C   UNL     1      36.859 -18.623 -22.866  0.00  0.00    -0.003 C 
ATOM     28  C   UNL     1      36.448 -19.699 -20.743  0.00  0.00    -0.004 C 
ATOM     29  C   UNL     1      37.278 -18.949 -21.576  0.00  0.00    -0.001 C 
ATOM     30  C   UNL     1      34.312 -20.925 -20.308  0.00  0.00    +0.031 C 
ENDBRANCH  23  24
ENDBRANCH  20  23
ENDBRANCH   4  21
TORSDOF 6
ENDMDL
MODEL 9
REMARK VINA RESULT:     -11.2      1.759      3.207
REMARK  Name = 5289109
REMARK  6 active torsions:
REMARK  status: ('A' for Active; 'I' for Inactive)
REMARK    1  A    between atoms: C_3  and  C_9
REMARK    2  A    between atoms: C_4  and  C_21
REMARK    3  A    between atoms: N_8  and  C_11
REMARK    4  A    between atoms: C_11  and  C_12
REMARK    5  A    between atoms: N_20  and  C_23
REMARK    6  A    between atoms: C_23  and  C_24
REMARK                            x       y       z     vdW  Elec       q    Type
REMARK                         _______ _______ _______ _____ _____    ______ ____
ROOT
ATOM      1  N   UNL     1      34.347 -15.116 -25.235  0.00  0.00    -0.244 NA
ATOM      2  N   UNL     1      33.218 -13.249 -24.213  0.00  0.00    -0.244 NA
ATOM      3  C   UNL     1      34.540 -15.627 -24.000  0.00  0.00    +0.115 C 
ATOM      4  C   UNL     1      33.457 -13.832 -23.037  0.00  0.00    +0.115 C 
ATOM      5  C   UNL     1      34.108 -15.014 -22.841  0.00  0.00    +0.100 C 
ATOM      6  C   UNL     1      33.688 -13.943 -25.267  0.00  0.00    +0.250 C 
ENDROOT
BRANCH   3   9
ATOM      7  O   UNL     1      35.313 -17.630 -24.943  0.00  0.00    -0.269 OA
ATOM      8  N   UNL     1      35.865 -17.223 -22.728  0.00  0.00    -0.296 N 
ATOM      9  C   UNL     1      35.249 -16.893 -23.942  0.00  0.00    +0.260 C 
ATOM     10  H   UNL     1      35.776 -16.596 -21.975  0.00  0.00    +0.150 HD
BRANCH   8  11
ATOM     11  C   UNL     1      36.626 -18.434 -22.520  0.00  0.00    +0.117 C 
BRANCH  11  12
ATOM     12  C   UNL     1      35.901 -19.409 -21.639  0.00  0.00    -0.003 C 
ATOM     13  C   UNL     1      36.606 -20.123 -20.679  0.00  0.00    -0.007 C 
ATOM     14  C   UNL     1      35.932 -21.028 -19.858  0.00  0.00    -0.022 C 
ATOM     15  C   UNL     1      34.530 -19.587 -21.793  0.00  0.00    -0.003 C 
ATOM     16  C   UNL     1      34.557 -21.213 -20.006  0.00  0.00    -0.004 C 
ATOM     17  C   UNL     1      33.856 -20.491 -20.973  0.00  0.00    -0.001 C 
ATOM     18  C   UNL     1      36.681 -21.800 -18.825  0.00  0.00    +0.031 C 
ENDBRANCH  11  12
ENDBRANCH   8  11
ENDBRANCH   3   9
BRANCH   4  21
ATOM     19  O   UNL     1      33.008 -13.598 -20.747  0.00  0.00    -0.269 OA
ATOM     20  N   UNL     1      32.448 -11.813 -22.119  0.00  0.00    -0.296 N 
ATOM     21  C   UNL     1      32.946 -13.082 -21.861  0.00  0.00    +0.260 C 
ATOM     22  H   UNL     1      32.441 -11.487 -23.047  0.00  0.00    +0.150 HD
BRANCH  20  23
ATOM     23  C   UNL     1      31.940 -10.953 -21.079  0.00  0.00    +0.117 C 
BRANCH  23  24
ATOM     24  C   UNL     1      32.077  -9.508 -21.422  0.00  0.00    -0.003 C 
ATOM     25  C   UNL     1      31.671  -9.048 -22.674  0.00  0.00    -0.007 C 
ATOM     26  C   UNL     1      31.799  -7.695 -22.995  0.00  0.00    -0.022 C 
ATOM     27  C   UNL     1      32.611  -8.617 -20.490  0.00  0.00    -0.003 C 
ATOM     28  C   UNL     1      32.332  -6.805 -22.063  0.00  0.00    -0.004 C 
ATOM     29  C   UNL     1      32.738  -7.266 -20.810  0.00  0.00    -0.001 C 
ATOM     30  C   UNL     1      31.366  -7.202 -24.334  0.00  0.00    +0.031 C 
ENDBRANCH  23  24
ENDBRANCH  20  23
ENDBRANCH   4  21
TORSDOF 6
ENDMDL
