MODEL 1
REMARK VINA RESULT:     -11.7      0.000      0.000
REMARK  Name = 46207733
REMARK  4 active torsions:
REMARK  status: ('A' for Active; 'I' for Inactive)
REMARK    1  A    between atoms: N_2  and  C_16
REMARK    2  A    between atoms: C_10  and  C_24
REMARK    3  A    between atoms: C_17  and  O_22
REMARK    4  A    between atoms: C_24  and  C_26
REMARK                            x       y       z     vdW  Elec       q    Type
REMARK                         _______ _______ _______ _____ _____    ______ ____
ROOT
ATOM      1  O   UNL     1      36.637 -22.289 -18.612  0.00  0.00    -0.274 OA
ATOM      2  N   UNL     1      34.826 -21.422 -19.791  0.00  0.00    -0.257 N 
ATOM      3  N   UNL     1      32.607 -21.749 -19.014  0.00  0.00    -0.252 NA
ATOM      4  C   UNL     1      35.428 -22.122 -18.744  0.00  0.00    +0.236 C 
ATOM      5  C   UNL     1      33.456 -21.277 -19.865  0.00  0.00    +0.222 C 
ATOM      6  C   UNL     1      34.485 -22.679 -17.745  0.00  0.00    +0.138 C 
ATOM      7  C   UNL     1      33.106 -22.476 -17.914  0.00  0.00    +0.068 C 
ATOM      8  C   UNL     1      32.201 -23.010 -16.958  0.00  0.00    +0.014 C 
ATOM      9  C   UNL     1      34.977 -23.399 -16.656  0.00  0.00    -0.015 C 
ATOM     10  C   UNL     1      34.093 -23.923 -15.719  0.00  0.00    -0.021 C 
ATOM     11  C   UNL     1      32.709 -23.739 -15.854  0.00  0.00    -0.003 C 
ATOM     12  C   UNL     1      30.801 -22.848 -17.056  0.00  0.00    +0.001 C 
ATOM     13  C   UNL     1      31.825 -24.274 -14.901  0.00  0.00    -0.000 C 
ATOM     14  C   UNL     1      29.937 -23.386 -16.101  0.00  0.00    +0.000 C 
ATOM     15  C   UNL     1      30.449 -24.099 -15.025  0.00  0.00    -0.000 C 
ENDROOT
BRANCH   2  16
ATOM     16  C   UNL     1      35.656 -20.837 -20.821  0.00  0.00    +0.104 C 
ATOM     17  C   UNL     1      36.450 -19.648 -20.264  0.00  0.00    +0.129 C 
ATOM     18  C   UNL     1      34.796 -20.429 -22.020  0.00  0.00    +0.022 C 
ATOM     19  C   UNL     1      37.250 -18.939 -21.357  0.00  0.00    +0.031 C 
ATOM     20  C   UNL     1      35.615 -19.731 -23.100  0.00  0.00    +0.002 C 
ATOM     21  C   UNL     1      36.375 -18.534 -22.536  0.00  0.00    +0.003 C 
BRANCH  17  22
ATOM     22  O   UNL     1      37.357 -20.123 -19.270  0.00  0.00    -0.383 OA
ATOM     23  H   UNL     1      37.380 -19.499 -18.528  0.00  0.00    +0.210 HD
ENDBRANCH  17  22
ENDBRANCH   2  16
BRANCH  10  24
ATOM     24  C   UNL     1      34.688 -24.684 -14.574  0.00  0.00    +0.054 C 
BRANCH  24  26
ATOM     25  N   UNL     1      38.435 -24.102 -14.510  0.00  0.00    -0.248 NA
ATOM     26  C   UNL     1      36.173 -24.932 -14.715  0.00  0.00    +0.001 C 
ATOM     27  C   UNL     1      36.655 -26.159 -15.160  0.00  0.00    -0.001 C 
ATOM     28  C   UNL     1      37.095 -23.946 -14.405  0.00  0.00    +0.094 C 
ATOM     29  C   UNL     1      38.026 -26.358 -15.280  0.00  0.00    +0.014 C 
ATOM     30  C   UNL     1      38.866 -25.308 -14.945  0.00  0.00    +0.059 C 
ATOM     31  C   UNL     1      40.344 -25.485 -15.062  0.00  0.00    +0.052 C 
ENDBRANCH  24  26
ENDBRANCH  10  24
TORSDOF 4
ENDMDL
MODEL 2
REMARK VINA RESULT:     -11.4      1.843      6.808
REMARK  Name = 46207733
REMARK  4 active torsions:
REMARK  status: ('A' for Active; 'I' for Inactive)
REMARK    1  A    between atoms: N_2  and  C_16
REMARK    2  A    between atoms: C_10  and  C_24
REMARK    3  A    between atoms: C_17  and  O_22
REMARK    4  A    between atoms: C_24  and  C_26
REMARK                            x       y       z     vdW  Elec       q    Type
REMARK                         _______ _______ _______ _____ _____    ______ ____
ROOT
ATOM      1  O   UNL     1      36.696 -23.325 -16.589  0.00  0.00    -0.274 OA
ATOM      2  N   UNL     1      35.921 -24.060 -14.520  0.00  0.00    -0.257 N 
ATOM      3  N   UNL     1      33.596 -24.104 -14.044  0.00  0.00    -0.252 NA
ATOM      4  C   UNL     1      35.772 -23.562 -15.815  0.00  0.00    +0.236 C 
ATOM      5  C   UNL     1      34.828 -24.301 -13.713  0.00  0.00    +0.222 C 
ATOM      6  C   UNL     1      34.371 -23.322 -16.233  0.00  0.00    +0.138 C 
ATOM      7  C   UNL     1      33.328 -23.600 -15.333  0.00  0.00    +0.068 C 
ATOM      8  C   UNL     1      31.985 -23.370 -15.731  0.00  0.00    +0.014 C 
ATOM      9  C   UNL     1      34.104 -22.823 -17.508  0.00  0.00    -0.015 C 
ATOM     10  C   UNL     1      32.789 -22.597 -17.900  0.00  0.00    -0.021 C 
ATOM     11  C   UNL     1      31.723 -22.863 -17.029  0.00  0.00    -0.003 C 
ATOM     12  C   UNL     1      30.882 -23.624 -14.886  0.00  0.00    +0.001 C 
ATOM     13  C   UNL     1      30.398 -22.631 -17.436  0.00  0.00    -0.000 C 
ATOM     14  C   UNL     1      29.572 -23.388 -15.306  0.00  0.00    +0.000 C 
ATOM     15  C   UNL     1      29.330 -22.891 -16.580  0.00  0.00    -0.000 C 
ENDROOT
BRANCH   2  16
ATOM     16  C   UNL     1      37.248 -24.329 -14.013  0.00  0.00    +0.104 C 
ATOM     17  C   UNL     1      37.646 -25.785 -14.286  0.00  0.00    +0.129 C 
ATOM     18  C   UNL     1      37.317 -23.996 -12.520  0.00  0.00    +0.022 C 
ATOM     19  C   UNL     1      38.998 -26.130 -13.661  0.00  0.00    +0.031 C 
ATOM     20  C   UNL     1      38.676 -24.341 -11.920  0.00  0.00    +0.002 C 
ATOM     21  C   UNL     1      39.043 -25.800 -12.175  0.00  0.00    +0.003 C 
BRANCH  17  22
ATOM     22  O   UNL     1      37.732 -25.984 -15.697  0.00  0.00    -0.383 OA
ATOM     23  H   UNL     1      37.802 -26.933 -15.886  0.00  0.00    +0.210 HD
ENDBRANCH  17  22
ENDBRANCH   2  16
BRANCH  10  24
ATOM     24  C   UNL     1      32.574 -22.061 -19.282  0.00  0.00    +0.054 C 
BRANCH  24  26
ATOM     25  N   UNL     1      34.680 -19.527 -21.161  0.00  0.00    -0.248 NA
ATOM     26  C   UNL     1      33.782 -21.353 -19.856  0.00  0.00    +0.001 C 
ATOM     27  C   UNL     1      35.067 -21.836 -19.631  0.00  0.00    -0.001 C 
ATOM     28  C   UNL     1      33.643 -20.206 -20.620  0.00  0.00    +0.094 C 
ATOM     29  C   UNL     1      36.159 -21.165 -20.172  0.00  0.00    +0.014 C 
ATOM     30  C   UNL     1      35.914 -20.025 -20.922  0.00  0.00    +0.059 C 
ATOM     31  C   UNL     1      37.062 -19.279 -21.517  0.00  0.00    +0.052 C 
ENDBRANCH  24  26
ENDBRANCH  10  24
TORSDOF 4
ENDMDL
MODEL 3
REMARK VINA RESULT:     -11.2      2.618      7.066
REMARK  Name = 46207733
REMARK  4 active torsions:
REMARK  status: ('A' for Active; 'I' for Inactive)
REMARK    1  A    between atoms: N_2  and  C_16
REMARK    2  A    between atoms: C_10  and  C_24
REMARK    3  A    between atoms: C_17  and  O_22
REMARK    4  A    between atoms: C_24  and  C_26
REMARK                            x       y       z     vdW  Elec       q    Type
REMARK                         _______ _______ _______ _____ _____    ______ ____
ROOT
ATOM      1  O   UNL     1      32.094 -22.950 -16.872  0.00  0.00    -0.274 OA
ATOM      2  N   UNL     1      31.406 -23.920 -14.870  0.00  0.00    -0.257 N 
ATOM      3  N   UNL     1      32.992 -24.539 -13.217  0.00  0.00    -0.252 NA
ATOM      4  C   UNL     1      32.352 -23.430 -15.772  0.00  0.00    +0.236 C 
ATOM      5  C   UNL     1      31.780 -24.445 -13.650  0.00  0.00    +0.222 C 
ATOM      6  C   UNL     1      33.758 -23.521 -15.310  0.00  0.00    +0.138 C 
ATOM      7  C   UNL     1      34.032 -24.073 -14.048  0.00  0.00    +0.068 C 
ATOM      8  C   UNL     1      35.378 -24.161 -13.604  0.00  0.00    +0.014 C 
ATOM      9  C   UNL     1      34.787 -23.061 -16.132  0.00  0.00    -0.015 C 
ATOM     10  C   UNL     1      36.106 -23.147 -15.699  0.00  0.00    -0.021 C 
ATOM     11  C   UNL     1      36.418 -23.692 -14.445  0.00  0.00    -0.003 C 
ATOM     12  C   UNL     1      35.736 -24.703 -12.349  0.00  0.00    +0.001 C 
ATOM     13  C   UNL     1      37.754 -23.773 -14.018  0.00  0.00    -0.000 C 
ATOM     14  C   UNL     1      37.068 -24.777 -11.941  0.00  0.00    +0.000 C 
ATOM     15  C   UNL     1      38.077 -24.313 -12.775  0.00  0.00    -0.000 C 
ENDROOT
BRANCH   2  16
ATOM     16  C   UNL     1      30.004 -23.879 -15.224  0.00  0.00    +0.104 C 
ATOM     17  C   UNL     1      29.749 -24.676 -16.509  0.00  0.00    +0.129 C 
ATOM     18  C   UNL     1      29.540 -22.426 -15.358  0.00  0.00    +0.022 C 
ATOM     19  C   UNL     1      28.295 -24.556 -16.971  0.00  0.00    +0.031 C 
ATOM     20  C   UNL     1      28.087 -22.331 -15.812  0.00  0.00    +0.002 C 
ATOM     21  C   UNL     1      27.856 -23.104 -17.106  0.00  0.00    +0.003 C 
BRANCH  17  22
ATOM     22  O   UNL     1      30.037 -26.052 -16.265  0.00  0.00    -0.383 OA
ATOM     23  H   UNL     1      29.229 -26.577 -16.381  0.00  0.00    +0.210 HD
ENDBRANCH  17  22
ENDBRANCH   2  16
BRANCH  10  24
ATOM     24  C   UNL     1      37.162 -22.635 -16.630  0.00  0.00    +0.054 C 
BRANCH  24  26
ATOM     25  N   UNL     1      36.801 -20.340 -19.628  0.00  0.00    -0.248 NA
ATOM     26  C   UNL     1      36.609 -22.014 -17.894  0.00  0.00    +0.001 C 
ATOM     27  C   UNL     1      35.448 -22.503 -18.483  0.00  0.00    -0.001 C 
ATOM     28  C   UNL     1      37.243 -20.941 -18.500  0.00  0.00    +0.094 C 
ATOM     29  C   UNL     1      34.963 -21.911 -19.645  0.00  0.00    +0.014 C 
ATOM     30  C   UNL     1      35.670 -20.843 -20.173  0.00  0.00    +0.059 C 
ATOM     31  C   UNL     1      35.179 -20.183 -21.419  0.00  0.00    +0.052 C 
ENDBRANCH  24  26
ENDBRANCH  10  24
TORSDOF 4
ENDMDL
MODEL 4
REMARK VINA RESULT:     -11.1      1.845      5.444
REMARK  Name = 46207733
REMARK  4 active torsions:
REMARK  status: ('A' for Active; 'I' for Inactive)
REMARK    1  A    between atoms: N_2  and  C_16
REMARK    2  A    between atoms: C_10  and  C_24
REMARK    3  A    between atoms: C_17  and  O_22
REMARK    4  A    between atoms: C_24  and  C_26
REMARK                            x       y       z     vdW  Elec       q    Type
REMARK                         _______ _______ _______ _____ _____    ______ ____
ROOT
ATOM      1  O   UNL     1      32.859 -22.454 -19.112  0.00  0.00    -0.274 OA
ATOM      2  N   UNL     1      35.122 -21.933 -18.948  0.00  0.00    -0.257 N 
ATOM      3  N   UNL     1      36.345 -22.455 -16.982  0.00  0.00    -0.252 NA
ATOM      4  C   UNL     1      33.912 -22.448 -18.481  0.00  0.00    +0.236 C 
ATOM      5  C   UNL     1      36.264 -21.966 -18.174  0.00  0.00    +0.222 C 
ATOM      6  C   UNL     1      33.964 -23.019 -17.114  0.00  0.00    +0.138 C 
ATOM      7  C   UNL     1      35.179 -23.003 -16.409  0.00  0.00    +0.068 C 
ATOM      8  C   UNL     1      35.231 -23.549 -15.099  0.00  0.00    +0.014 C 
ATOM      9  C   UNL     1      32.811 -23.561 -16.546  0.00  0.00    -0.015 C 
ATOM     10  C   UNL     1      32.860 -24.096 -15.263  0.00  0.00    -0.021 C 
ATOM     11  C   UNL     1      34.055 -24.098 -14.529  0.00  0.00    -0.003 C 
ATOM     12  C   UNL     1      36.413 -23.571 -14.326  0.00  0.00    +0.001 C 
ATOM     13  C   UNL     1      34.092 -24.641 -13.234  0.00  0.00    -0.000 C 
ATOM     14  C   UNL     1      36.432 -24.114 -13.040  0.00  0.00    +0.000 C 
ATOM     15  C   UNL     1      35.273 -24.648 -12.494  0.00  0.00    -0.000 C 
ENDROOT
BRANCH   2  16
ATOM     16  C   UNL     1      35.180 -21.352 -20.271  0.00  0.00    +0.104 C 
ATOM     17  C   UNL     1      36.429 -20.473 -20.420  0.00  0.00    +0.129 C 
ATOM     18  C   UNL     1      33.898 -20.563 -20.554  0.00  0.00    +0.022 C 
ATOM     19  C   UNL     1      36.457 -19.753 -21.769  0.00  0.00    +0.031 C 
ATOM     20  C   UNL     1      33.946 -19.861 -21.907  0.00  0.00    +0.002 C 
ATOM     21  C   UNL     1      35.178 -18.969 -22.027  0.00  0.00    +0.003 C 
BRANCH  17  22
ATOM     22  O   UNL     1      37.589 -21.297 -20.318  0.00  0.00    -0.383 OA
ATOM     23  H   UNL     1      37.521 -22.031 -20.948  0.00  0.00    +0.210 HD
ENDBRANCH  17  22
ENDBRANCH   2  16
BRANCH  10  24
ATOM     24  C   UNL     1      31.586 -24.662 -14.713  0.00  0.00    +0.054 C 
BRANCH  24  26
ATOM     25  N   UNL     1      28.845 -22.151 -15.468  0.00  0.00    -0.248 NA
ATOM     26  C   UNL     1      30.340 -24.045 -15.309  0.00  0.00    +0.001 C 
ATOM     27  C   UNL     1      29.552 -24.753 -16.210  0.00  0.00    -0.001 C 
ATOM     28  C   UNL     1      29.947 -22.760 -14.973  0.00  0.00    +0.094 C 
ATOM     29  C   UNL     1      28.411 -24.161 -16.741  0.00  0.00    +0.014 C 
ATOM     30  C   UNL     1      28.104 -22.870 -16.342  0.00  0.00    +0.059 C 
ATOM     31  C   UNL     1      26.886 -22.203 -16.891  0.00  0.00    +0.052 C 
ENDBRANCH  24  26
ENDBRANCH  10  24
TORSDOF 4
ENDMDL
MODEL 5
REMARK VINA RESULT:     -10.9      5.077      8.935
REMARK  Name = 46207733
REMARK  4 active torsions:
REMARK  status: ('A' for Active; 'I' for Inactive)
REMARK    1  A    between atoms: N_2  and  C_16
REMARK    2  A    between atoms: C_10  and  C_24
REMARK    3  A    between atoms: C_17  and  O_22
REMARK    4  A    between atoms: C_24  and  C_26
REMARK                            x       y       z     vdW  Elec       q    Type
REMARK                         _______ _______ _______ _____ _____    ______ ____
ROOT
ATOM      1  O   UNL     1      35.141 -14.185 -21.085  0.00  0.00    -0.274 OA
ATOM      2  N   UNL     1      34.049 -13.782 -23.102  0.00  0.00    -0.257 N 
ATOM      3  N   UNL     1      33.850 -15.495 -24.733  0.00  0.00    -0.252 NA
ATOM      4  C   UNL     1      34.749 -14.567 -22.184  0.00  0.00    +0.236 C 
ATOM      5  C   UNL     1      33.642 -14.290 -24.319  0.00  0.00    +0.222 C 
ATOM      6  C   UNL     1      35.008 -15.959 -22.624  0.00  0.00    +0.138 C 
ATOM      7  C   UNL     1      34.550 -16.377 -23.884  0.00  0.00    +0.068 C 
ATOM      8  C   UNL     1      34.797 -17.709 -24.308  0.00  0.00    +0.014 C 
ATOM      9  C   UNL     1      35.700 -16.833 -21.786  0.00  0.00    -0.015 C 
ATOM     10  C   UNL     1      35.944 -18.138 -22.199  0.00  0.00    -0.021 C 
ATOM     11  C   UNL     1      35.502 -18.591 -23.450  0.00  0.00    -0.003 C 
ATOM     12  C   UNL     1      34.370 -18.206 -25.560  0.00  0.00    +0.001 C 
ATOM     13  C   UNL     1      35.754 -19.912 -23.857  0.00  0.00    -0.000 C 
ATOM     14  C   UNL     1      34.629 -19.521 -25.948  0.00  0.00    +0.000 C 
ATOM     15  C   UNL     1      35.321 -20.374 -25.098  0.00  0.00    -0.000 C 
ENDROOT
BRANCH   2  16
ATOM     16  C   UNL     1      33.746 -12.408 -22.771  0.00  0.00    +0.104 C 
ATOM     17  C   UNL     1      32.338 -12.296 -22.170  0.00  0.00    +0.129 C 
ATOM     18  C   UNL     1      33.902 -11.523 -24.011  0.00  0.00    +0.022 C 
ATOM     19  C   UNL     1      31.945 -10.840 -21.916  0.00  0.00    +0.031 C 
ATOM     20  C   UNL     1      33.511 -10.075 -23.732  0.00  0.00    +0.002 C 
ATOM     21  C   UNL     1      32.100  -9.979 -23.163  0.00  0.00    +0.003 C 
BRANCH  17  22
ATOM     22  O   UNL     1      32.308 -12.999 -20.929  0.00  0.00    -0.383 OA
ATOM     23  H   UNL     1      31.518 -12.740 -20.429  0.00  0.00    +0.210 HD
ENDBRANCH  17  22
ENDBRANCH   2  16
BRANCH  10  24
ATOM     24  C   UNL     1      36.693 -19.023 -21.250  0.00  0.00    +0.054 C 
BRANCH  24  26
ATOM     25  N   UNL     1      35.701 -22.119 -19.297  0.00  0.00    -0.248 NA
ATOM     26  C   UNL     1      35.837 -20.099 -20.618  0.00  0.00    +0.001 C 
ATOM     27  C   UNL     1      34.454 -20.087 -20.757  0.00  0.00    -0.001 C 
ATOM     28  C   UNL     1      36.408 -21.127 -19.886  0.00  0.00    +0.094 C 
ATOM     29  C   UNL     1      33.693 -21.090 -20.165  0.00  0.00    +0.014 C 
ATOM     30  C   UNL     1      34.359 -22.074 -19.452  0.00  0.00    +0.059 C 
ATOM     31  C   UNL     1      33.574 -23.167 -18.804  0.00  0.00    +0.052 C 
ENDBRANCH  24  26
ENDBRANCH  10  24
TORSDOF 4
ENDMDL
MODEL 6
REMARK VINA RESULT:     -10.0      6.034     11.711
REMARK  Name = 46207733
REMARK  4 active torsions:
REMARK  status: ('A' for Active; 'I' for Inactive)
REMARK    1  A    between atoms: N_2  and  C_16
REMARK    2  A    between atoms: C_10  and  C_24
REMARK    3  A    between atoms: C_17  and  O_22
REMARK    4  A    between atoms: C_24  and  C_26
REMARK                            x       y       z     vdW  Elec       q    Type
REMARK                         _______ _______ _______ _____ _____    ______ ____
ROOT
ATOM      1  O   UNL     1      35.170 -15.989 -20.711  0.00  0.00    -0.274 OA
ATOM      2  N   UNL     1      35.212 -17.720 -22.267  0.00  0.00    -0.257 N 
ATOM      3  N   UNL     1      34.771 -17.296 -24.561  0.00  0.00    -0.252 NA
ATOM      4  C   UNL     1      35.051 -16.393 -21.864  0.00  0.00    +0.236 C 
ATOM      5  C   UNL     1      35.063 -18.092 -23.587  0.00  0.00    +0.222 C 
ATOM      6  C   UNL     1      34.715 -15.447 -22.954  0.00  0.00    +0.138 C 
ATOM      7  C   UNL     1      34.585 -15.929 -24.267  0.00  0.00    +0.068 C 
ATOM      8  C   UNL     1      34.263 -15.025 -25.313  0.00  0.00    +0.014 C 
ATOM      9  C   UNL     1      34.531 -14.095 -22.665  0.00  0.00    -0.015 C 
ATOM     10  C   UNL     1      34.215 -13.207 -23.688  0.00  0.00    -0.021 C 
ATOM     11  C   UNL     1      34.077 -13.652 -25.010  0.00  0.00    -0.003 C 
ATOM     12  C   UNL     1      34.115 -15.431 -26.657  0.00  0.00    +0.001 C 
ATOM     13  C   UNL     1      33.758 -12.746 -26.035  0.00  0.00    -0.000 C 
ATOM     14  C   UNL     1      33.797 -14.518 -27.664  0.00  0.00    +0.000 C 
ATOM     15  C   UNL     1      33.618 -13.176 -27.353  0.00  0.00    -0.000 C 
ENDROOT
BRANCH   2  16
ATOM     16  C   UNL     1      35.541 -18.724 -21.281  0.00  0.00    +0.104 C 
ATOM     17  C   UNL     1      36.886 -19.384 -21.610  0.00  0.00    +0.129 C 
ATOM     18  C   UNL     1      34.413 -19.757 -21.188  0.00  0.00    +0.022 C 
ATOM     19  C   UNL     1      37.205 -20.530 -20.649  0.00  0.00    +0.031 C 
ATOM     20  C   UNL     1      34.751 -20.885 -20.218  0.00  0.00    +0.002 C 
ATOM     21  C   UNL     1      36.076 -21.549 -20.577  0.00  0.00    +0.003 C 
BRANCH  17  22
ATOM     22  O   UNL     1      37.918 -18.405 -21.510  0.00  0.00    -0.383 OA
ATOM     23  H   UNL     1      38.775 -18.815 -21.707  0.00  0.00    +0.210 HD
ENDBRANCH  17  22
ENDBRANCH   2  16
BRANCH  10  24
ATOM     24  C   UNL     1      34.031 -11.769 -23.308  0.00  0.00    +0.054 C 
BRANCH  24  26
ATOM     25  N   UNL     1      31.529 -10.065 -21.023  0.00  0.00    -0.248 NA
ATOM     26  C   UNL     1      33.025 -11.557 -22.198  0.00  0.00    +0.001 C 
ATOM     27  C   UNL     1      32.668 -12.598 -21.347  0.00  0.00    -0.001 C 
ATOM     28  C   UNL     1      32.432 -10.322 -21.996  0.00  0.00    +0.094 C 
ATOM     29  C   UNL     1      31.741 -12.373 -20.335  0.00  0.00    +0.014 C 
ATOM     30  C   UNL     1      31.205 -11.101 -20.216  0.00  0.00    +0.059 C 
ATOM     31  C   UNL     1      30.208 -10.823 -19.141  0.00  0.00    +0.052 C 
ENDBRANCH  24  26
ENDBRANCH  10  24
TORSDOF 4
ENDMDL
MODEL 7
REMARK VINA RESULT:     -10.0     11.488     17.010
REMARK  Name = 46207733
REMARK  4 active torsions:
REMARK  status: ('A' for Active; 'I' for Inactive)
REMARK    1  A    between atoms: N_2  and  C_16
REMARK    2  A    between atoms: C_10  and  C_24
REMARK    3  A    between atoms: C_17  and  O_22
REMARK    4  A    between atoms: C_24  and  C_26
REMARK                            x       y       z     vdW  Elec       q    Type
REMARK                         _______ _______ _______ _____ _____    ______ ____
ROOT
ATOM      1  O   UNL     1      35.749 -10.768 -25.689  0.00  0.00    -0.274 OA
ATOM      2  N   UNL     1      34.126 -11.894 -24.456  0.00  0.00    -0.257 N 
ATOM      3  N   UNL     1      32.691 -10.713 -22.980  0.00  0.00    -0.252 NA
ATOM      4  C   UNL     1      34.830 -10.764 -24.875  0.00  0.00    +0.236 C 
ATOM      5  C   UNL     1      33.102 -11.803 -23.536  0.00  0.00    +0.222 C 
ATOM      6  C   UNL     1      34.387  -9.491 -24.258  0.00  0.00    +0.138 C 
ATOM      7  C   UNL     1      33.333  -9.507 -23.330  0.00  0.00    +0.068 C 
ATOM      8  C   UNL     1      32.908  -8.289 -22.737  0.00  0.00    +0.014 C 
ATOM      9  C   UNL     1      35.022  -8.297 -24.603  0.00  0.00    -0.015 C 
ATOM     10  C   UNL     1      34.607  -7.103 -24.023  0.00  0.00    -0.021 C 
ATOM     11  C   UNL     1      33.558  -7.080 -23.093  0.00  0.00    -0.003 C 
ATOM     12  C   UNL     1      31.856  -8.222 -21.797  0.00  0.00    +0.001 C 
ATOM     13  C   UNL     1      33.148  -5.868 -22.514  0.00  0.00    -0.000 C 
ATOM     14  C   UNL     1      31.461  -7.008 -21.231  0.00  0.00    +0.000 C 
ATOM     15  C   UNL     1      32.107  -5.832 -21.589  0.00  0.00    -0.000 C 
ENDROOT
BRANCH   2  16
ATOM     16  C   UNL     1      34.479 -13.188 -24.997  0.00  0.00    +0.104 C 
ATOM     17  C   UNL     1      33.485 -13.606 -26.089  0.00  0.00    +0.129 C 
ATOM     18  C   UNL     1      34.551 -14.225 -23.872  0.00  0.00    +0.022 C 
ATOM     19  C   UNL     1      33.766 -15.020 -26.599  0.00  0.00    +0.031 C 
ATOM     20  C   UNL     1      34.839 -15.625 -24.404  0.00  0.00    +0.002 C 
ATOM     21  C   UNL     1      33.825 -16.036 -25.467  0.00  0.00    +0.003 C 
BRANCH  17  22
ATOM     22  O   UNL     1      33.592 -12.696 -27.183  0.00  0.00    -0.383 OA
ATOM     23  H   UNL     1      33.225 -11.836 -26.927  0.00  0.00    +0.210 HD
ENDBRANCH  17  22
ENDBRANCH   2  16
BRANCH  10  24
ATOM     24  C   UNL     1      35.331  -5.858 -24.438  0.00  0.00    +0.054 C 
BRANCH  24  26
ATOM     25  N   UNL     1      35.633  -4.676 -28.029  0.00  0.00    -0.248 NA
ATOM     26  C   UNL     1      34.946  -5.362 -25.815  0.00  0.00    +0.001 C 
ATOM     27  C   UNL     1      33.615  -5.133 -26.148  0.00  0.00    -0.001 C 
ATOM     28  C   UNL     1      35.908  -5.120 -26.782  0.00  0.00    +0.094 C 
ATOM     29  C   UNL     1      33.292  -4.676 -27.421  0.00  0.00    +0.014 C 
ATOM     30  C   UNL     1      34.328  -4.466 -28.317  0.00  0.00    +0.059 C 
ATOM     31  C   UNL     1      34.019  -3.975 -29.693  0.00  0.00    +0.052 C 
ENDBRANCH  24  26
ENDBRANCH  10  24
TORSDOF 4
ENDMDL
MODEL 8
REMARK VINA RESULT:      -9.8      2.384      8.076
REMARK  Name = 46207733
REMARK  4 active torsions:
REMARK  status: ('A' for Active; 'I' for Inactive)
REMARK    1  A    between atoms: N_2  and  C_16
REMARK    2  A    between atoms: C_10  and  C_24
REMARK    3  A    between atoms: C_17  and  O_22
REMARK    4  A    between atoms: C_24  and  C_26
REMARK                            x       y       z     vdW  Elec       q    Type
REMARK                         _______ _______ _______ _____ _____    ______ ____
ROOT
ATOM      1  O   UNL     1      38.549 -22.456 -16.806  0.00  0.00    -0.274 OA
ATOM      2  N   UNL     1      36.531 -23.329 -16.040  0.00  0.00    -0.257 N 
ATOM      3  N   UNL     1      34.514 -22.940 -17.229  0.00  0.00    -0.252 NA
ATOM      4  C   UNL     1      37.336 -22.607 -16.922  0.00  0.00    +0.236 C 
ATOM      5  C   UNL     1      35.172 -23.452 -16.243  0.00  0.00    +0.222 C 
ATOM      6  C   UNL     1      36.617 -22.002 -18.068  0.00  0.00    +0.138 C 
ATOM      7  C   UNL     1      35.229 -22.188 -18.184  0.00  0.00    +0.068 C 
ATOM      8  C   UNL     1      34.538 -21.609 -19.281  0.00  0.00    +0.014 C 
ATOM      9  C   UNL     1      37.323 -21.258 -19.014  0.00  0.00    -0.015 C 
ATOM     10  C   UNL     1      36.648 -20.689 -20.089  0.00  0.00    -0.021 C 
ATOM     11  C   UNL     1      35.263 -20.853 -20.237  0.00  0.00    -0.003 C 
ATOM     12  C   UNL     1      33.145 -21.749 -19.468  0.00  0.00    +0.001 C 
ATOM     13  C   UNL     1      34.592 -20.275 -21.327  0.00  0.00    -0.000 C 
ATOM     14  C   UNL     1      32.494 -21.167 -20.557  0.00  0.00    +0.000 C 
ATOM     15  C   UNL     1      33.217 -20.430 -21.485  0.00  0.00    -0.000 C 
ENDROOT
BRANCH   2  16
ATOM     16  C   UNL     1      37.134 -23.960 -14.886  0.00  0.00    +0.104 C 
ATOM     17  C   UNL     1      36.744 -25.442 -14.816  0.00  0.00    +0.129 C 
ATOM     18  C   UNL     1      36.736 -23.210 -13.611  0.00  0.00    +0.022 C 
ATOM     19  C   UNL     1      37.273 -26.107 -13.545  0.00  0.00    +0.031 C 
ATOM     20  C   UNL     1      37.281 -23.888 -12.358  0.00  0.00    +0.002 C 
ATOM     21  C   UNL     1      36.860 -25.352 -12.289  0.00  0.00    +0.003 C 
BRANCH  17  22
ATOM     22  O   UNL     1      37.292 -26.118 -15.947  0.00  0.00    -0.383 OA
ATOM     23  H   UNL     1      36.606 -26.665 -16.361  0.00  0.00    +0.210 HD
ENDBRANCH  17  22
ENDBRANCH   2  16
BRANCH  10  24
ATOM     24  C   UNL     1      37.466 -19.903 -21.067  0.00  0.00    +0.054 C 
BRANCH  24  26
ATOM     25  N   UNL     1      35.453 -16.710 -21.435  0.00  0.00    -0.248 NA
ATOM     26  C   UNL     1      36.715 -18.754 -21.704  0.00  0.00    +0.001 C 
ATOM     27  C   UNL     1      36.584 -18.664 -23.085  0.00  0.00    -0.001 C 
ATOM     28  C   UNL     1      36.137 -17.762 -20.930  0.00  0.00    +0.094 C 
ATOM     29  C   UNL     1      35.888 -17.597 -23.643  0.00  0.00    +0.014 C 
ATOM     30  C   UNL     1      35.347 -16.655 -22.782  0.00  0.00    +0.059 C 
ATOM     31  C   UNL     1      34.592 -15.496 -23.345  0.00  0.00    +0.052 C 
ENDBRANCH  24  26
ENDBRANCH  10  24
TORSDOF 4
ENDMDL
MODEL 9
REMARK VINA RESULT:      -9.8     14.221     19.498
REMARK  Name = 46207733
REMARK  4 active torsions:
REMARK  status: ('A' for Active; 'I' for Inactive)
REMARK    1  A    between atoms: N_2  and  C_16
REMARK    2  A    between atoms: C_10  and  C_24
REMARK    3  A    between atoms: C_17  and  O_22
REMARK    4  A    between atoms: C_24  and  C_26
REMARK                            x       y       z     vdW  Elec       q    Type
REMARK                         _______ _______ _______ _____ _____    ______ ____
ROOT
ATOM      1  O   UNL     1      33.784  -8.703 -23.943  0.00  0.00    -0.274 OA
ATOM      2  N   UNL     1      32.552  -7.908 -22.135  0.00  0.00    -0.257 N 
ATOM      3  N   UNL     1      31.658  -5.709 -22.153  0.00  0.00    -0.252 NA
ATOM      4  C   UNL     1      33.144  -7.810 -23.395  0.00  0.00    +0.236 C 
ATOM      5  C   UNL     1      31.847  -6.855 -21.589  0.00  0.00    +0.222 C 
ATOM      6  C   UNL     1      32.949  -6.508 -24.076  0.00  0.00    +0.138 C 
ATOM      7  C   UNL     1      32.213  -5.500 -23.432  0.00  0.00    +0.068 C 
ATOM      8  C   UNL     1      32.026  -4.251 -24.082  0.00  0.00    +0.014 C 
ATOM      9  C   UNL     1      33.498  -6.299 -25.341  0.00  0.00    -0.015 C 
ATOM     10  C   UNL     1      33.317  -5.076 -25.979  0.00  0.00    -0.021 C 
ATOM     11  C   UNL     1      32.587  -4.047 -25.367  0.00  0.00    -0.003 C 
ATOM     12  C   UNL     1      31.299  -3.188 -23.501  0.00  0.00    +0.001 C 
ATOM     13  C   UNL     1      32.410  -2.816 -26.022  0.00  0.00    -0.000 C 
ATOM     14  C   UNL     1      31.133  -1.971 -24.165  0.00  0.00    +0.000 C 
ATOM     15  C   UNL     1      31.688  -1.786 -25.424  0.00  0.00    -0.000 C 
ENDROOT
BRANCH   2  16
ATOM     16  C   UNL     1      32.683  -9.137 -21.385  0.00  0.00    +0.104 C 
ATOM     17  C   UNL     1      31.649 -10.168 -21.856  0.00  0.00    +0.129 C 
ATOM     18  C   UNL     1      32.555  -8.853 -19.885  0.00  0.00    +0.022 C 
ATOM     19  C   UNL     1      31.687 -11.438 -21.003  0.00  0.00    +0.031 C 
ATOM     20  C   UNL     1      32.603 -10.132 -19.056  0.00  0.00    +0.002 C 
ATOM     21  C   UNL     1      31.550 -11.135 -19.518  0.00  0.00    +0.003 C 
BRANCH  17  22
ATOM     22  O   UNL     1      31.930 -10.520 -23.210  0.00  0.00    -0.383 OA
ATOM     23  H   UNL     1      31.571  -9.840 -23.802  0.00  0.00    +0.210 HD
ENDBRANCH  17  22
ENDBRANCH   2  16
BRANCH  10  24
ATOM     24  C   UNL     1      33.933  -4.919 -27.336  0.00  0.00    +0.054 C 
BRANCH  24  26
ATOM     25  N   UNL     1      36.633  -2.274 -27.649  0.00  0.00    -0.248 NA
ATOM     26  C   UNL     1      35.294  -4.259 -27.313  0.00  0.00    +0.001 C 
ATOM     27  C   UNL     1      36.431  -4.976 -26.956  0.00  0.00    -0.001 C 
ATOM     28  C   UNL     1      35.446  -2.924 -27.648  0.00  0.00    +0.094 C 
ATOM     29  C   UNL     1      37.669  -4.343 -26.945  0.00  0.00    +0.014 C 
ATOM     30  C   UNL     1      37.716  -3.003 -27.296  0.00  0.00    +0.059 C 
ATOM     31  C   UNL     1      39.028  -2.291 -27.296  0.00  0.00    +0.052 C 
ENDBRANCH  24  26
ENDBRANCH  10  24
TORSDOF 4
ENDMDL
