MODEL 1
REMARK VINA RESULT:     -11.8      0.000      0.000
REMARK  Name = 72734520
REMARK  6 active torsions:
REMARK  status: ('A' for Active; 'I' for Inactive)
REMARK    1  A    between atoms: N_1  and  C_19
REMARK    2  A    between atoms: C_8  and  O_28
REMARK    3  A    between atoms: C_14  and  N_20
REMARK    4  A    between atoms: O_28  and  C_29
REMARK    5  A    between atoms: C_32  and  N_36
REMARK    6  A    between atoms: C_37  and  C_39
REMARK                            x       y       z     vdW  Elec       q    Type
REMARK                         _______ _______ _______ _____ _____    ______ ____
ROOT
ATOM      1  N   UNL     1      34.748 -18.013 -24.521  0.00  0.00    -0.238 N 
ATOM      2  N   UNL     1      34.171 -16.396 -26.102  0.00  0.00    -0.316 NA
ATOM      3  N   UNL     1      34.773 -15.782 -23.824  0.00  0.00    -0.294 NA
ATOM      4  N   UNL     1      33.628 -14.491 -27.476  0.00  0.00    -0.289 N 
ATOM      5  C   UNL     1      34.553 -16.653 -24.835  0.00  0.00    +0.207 C 
ATOM      6  C   UNL     1      34.199 -14.068 -25.361  0.00  0.00    +0.181 C 
ATOM      7  C   UNL     1      34.010 -15.076 -26.299  0.00  0.00    +0.188 C 
ATOM      8  C   UNL     1      34.595 -14.467 -24.085  0.00  0.00    +0.281 C 
ATOM      9  C   UNL     1      33.916 -12.840 -26.012  0.00  0.00    +0.008 C 
ATOM     10  C   UNL     1      33.566 -13.131 -27.313  0.00  0.00    +0.060 C 
ATOM     11  H   UNL     1      34.580 -18.622 -25.277  0.00  0.00    +0.166 HD
ATOM     12  H   UNL     1      33.427 -14.972 -28.312  0.00  0.00    +0.154 HD
ENDROOT
BRANCH   1  19
ATOM     13  F   UNL     1      33.679 -20.752 -20.736  0.00  0.00    -0.203 F 
ATOM     14  C   UNL     1      35.910 -19.978 -20.995  0.00  0.00    +0.076 C 
ATOM     15  C   UNL     1      34.588 -20.055 -21.433  0.00  0.00    +0.155 C 
ATOM     16  C   UNL     1      36.845 -19.248 -21.728  0.00  0.00    +0.018 C 
ATOM     17  C   UNL     1      34.202 -19.403 -22.604  0.00  0.00    +0.046 C 
ATOM     18  C   UNL     1      36.460 -18.596 -22.899  0.00  0.00    +0.017 C 
ATOM     19  C   UNL     1      35.138 -18.673 -23.337  0.00  0.00    +0.061 C 
BRANCH  14  20
ATOM     20  N   UNL     1      36.299 -20.631 -19.820  0.00  0.00    -0.310 N 
ATOM     21  N   UNL     1      37.230 -22.126 -17.571  0.00  0.00    +0.388 N 
ATOM     22  C   UNL     1      35.842 -22.010 -19.613  0.00  0.00    +0.068 C 
ATOM     23  C   UNL     1      37.573 -20.282 -19.182  0.00  0.00    +0.068 C 
ATOM     24  C   UNL     1      35.895 -22.377 -18.129  0.00  0.00    -0.056 C 
ATOM     25  C   UNL     1      37.570 -20.705 -17.711  0.00  0.00    -0.056 C 
ATOM     26  C   UNL     1      37.283 -22.531 -16.167  0.00  0.00    -0.101 C 
ATOM     27  H   UNL     1      37.911 -22.680 -18.088  0.00  0.00    -0.080 HD
ENDBRANCH  14  20
ENDBRANCH   1  19
BRANCH   8  28
ATOM     28  O   UNL     1      34.815 -13.570 -23.071  0.00  0.00    -0.429 OA
BRANCH  28  29
ATOM     29  C   UNL     1      33.706 -13.030 -22.452  0.00  0.00    +0.149 C 
ATOM     30  C   UNL     1      33.211 -11.793 -22.866  0.00  0.00    +0.052 C 
ATOM     31  C   UNL     1      33.079 -13.720 -21.415  0.00  0.00    +0.038 C 
ATOM     32  C   UNL     1      32.089 -11.246 -22.243  0.00  0.00    +0.054 C 
ATOM     33  C   UNL     1      31.462 -11.936 -21.206  0.00  0.00    +0.015 C 
ATOM     34  C   UNL     1      31.956 -13.174 -20.793  0.00  0.00    +0.004 C 
BRANCH  32  36
ATOM     35  O   UNL     1      33.118  -8.471 -21.737  0.00  0.00    -0.270 OA
ATOM     36  N   UNL     1      31.594 -10.009 -22.658  0.00  0.00    -0.280 N 
ATOM     37  C   UNL     1      32.117  -8.736 -22.392  0.00  0.00    +0.250 C 
ATOM     38  H   UNL     1      30.777 -10.034 -23.206  0.00  0.00    +0.155 HD
BRANCH  37  39
ATOM     39  C   UNL     1      31.294  -7.661 -23.017  0.00  0.00    +0.058 C 
ATOM     40  C   UNL     1      31.410  -7.387 -24.319  0.00  0.00    +0.005 C 
ENDBRANCH  37  39
ENDBRANCH  32  36
ENDBRANCH  28  29
ENDBRANCH   8  28
TORSDOF 6
ENDMDL
MODEL 2
REMARK VINA RESULT:     -11.1      5.250     11.326
REMARK  Name = 72734520
REMARK  6 active torsions:
REMARK  status: ('A' for Active; 'I' for Inactive)
REMARK    1  A    between atoms: N_1  and  C_19
REMARK    2  A    between atoms: C_8  and  O_28
REMARK    3  A    between atoms: C_14  and  N_20
REMARK    4  A    between atoms: O_28  and  C_29
REMARK    5  A    between atoms: C_32  and  N_36
REMARK    6  A    between atoms: C_37  and  C_39
REMARK                            x       y       z     vdW  Elec       q    Type
REMARK                         _______ _______ _______ _____ _____    ______ ____
ROOT
ATOM      1  N   UNL     1      37.295 -21.290 -18.224  0.00  0.00    -0.238 N 
ATOM      2  N   UNL     1      37.495 -22.685 -16.363  0.00  0.00    -0.316 NA
ATOM      3  N   UNL     1      35.496 -22.705 -17.752  0.00  0.00    -0.294 NA
ATOM      4  N   UNL     1      37.379 -24.240 -14.524  0.00  0.00    -0.289 N 
ATOM      5  C   UNL     1      36.731 -22.284 -17.399  0.00  0.00    +0.207 C 
ATOM      6  C   UNL     1      35.608 -24.158 -15.878  0.00  0.00    +0.181 C 
ATOM      7  C   UNL     1      36.870 -23.629 -15.639  0.00  0.00    +0.188 C 
ATOM      8  C   UNL     1      34.920 -23.658 -16.983  0.00  0.00    +0.281 C 
ATOM      9  C   UNL     1      35.363 -25.119 -14.865  0.00  0.00    +0.008 C 
ATOM     10  C   UNL     1      36.471 -25.148 -14.044  0.00  0.00    +0.060 C 
ATOM     11  H   UNL     1      38.193 -21.004 -17.941  0.00  0.00    +0.166 HD
ATOM     12  H   UNL     1      38.261 -24.056 -14.128  0.00  0.00    +0.154 HD
ENDROOT
BRANCH   1  19
ATOM     13  F   UNL     1      33.874 -20.551 -21.498  0.00  0.00    -0.203 F 
ATOM     14  C   UNL     1      35.895 -19.314 -21.656  0.00  0.00    +0.076 C 
ATOM     15  C   UNL     1      35.093 -20.262 -21.022  0.00  0.00    +0.155 C 
ATOM     16  C   UNL     1      37.163 -19.024 -21.152  0.00  0.00    +0.018 C 
ATOM     17  C   UNL     1      35.557 -20.918 -19.881  0.00  0.00    +0.046 C 
ATOM     18  C   UNL     1      37.627 -19.679 -20.012  0.00  0.00    +0.017 C 
ATOM     19  C   UNL     1      36.825 -20.626 -19.376  0.00  0.00    +0.061 C 
BRANCH  14  20
ATOM     20  N   UNL     1      35.433 -18.655 -22.801  0.00  0.00    -0.310 N 
ATOM     21  N   UNL     1      34.736 -17.302 -25.218  0.00  0.00    +0.388 N 
ATOM     22  C   UNL     1      35.855 -17.266 -23.015  0.00  0.00    +0.068 C 
ATOM     23  C   UNL     1      35.142 -19.424 -24.015  0.00  0.00    +0.068 C 
ATOM     24  C   UNL     1      34.892 -16.551 -23.965  0.00  0.00    -0.056 C 
ATOM     25  C   UNL     1      34.202 -18.639 -24.935  0.00  0.00    -0.056 C 
ATOM     26  C   UNL     1      33.856 -16.583 -26.140  0.00  0.00    -0.101 C 
ATOM     27  H   UNL     1      35.649 -17.399 -25.659  0.00  0.00    -0.080 HD
ENDBRANCH  14  20
ENDBRANCH   1  19
BRANCH   8  28
ATOM     28  O   UNL     1      33.667 -24.098 -17.329  0.00  0.00    -0.429 OA
BRANCH  28  29
ATOM     29  C   UNL     1      32.606 -23.640 -16.574  0.00  0.00    +0.149 C 
ATOM     30  C   UNL     1      31.419 -23.259 -17.201  0.00  0.00    +0.052 C 
ATOM     31  C   UNL     1      32.719 -23.558 -15.187  0.00  0.00    +0.038 C 
ATOM     32  C   UNL     1      30.345 -22.797 -16.439  0.00  0.00    +0.054 C 
ATOM     33  C   UNL     1      30.458 -22.716 -15.052  0.00  0.00    +0.015 C 
ATOM     34  C   UNL     1      31.645 -23.097 -14.425  0.00  0.00    +0.004 C 
BRANCH  32  36
ATOM     35  O   UNL     1      28.062 -24.464 -17.453  0.00  0.00    -0.270 OA
ATOM     36  N   UNL     1      29.157 -22.417 -17.066  0.00  0.00    -0.280 N 
ATOM     37  C   UNL     1      28.119 -23.242 -17.521  0.00  0.00    +0.250 C 
ATOM     38  H   UNL     1      29.033 -21.451 -17.205  0.00  0.00    +0.155 HD
BRANCH  37  39
ATOM     39  C   UNL     1      27.017 -22.448 -18.138  0.00  0.00    +0.058 C 
ATOM     40  C   UNL     1      26.339 -21.551 -17.416  0.00  0.00    +0.005 C 
ENDBRANCH  37  39
ENDBRANCH  32  36
ENDBRANCH  28  29
ENDBRANCH   8  28
TORSDOF 6
ENDMDL
MODEL 3
REMARK VINA RESULT:     -10.9      2.427      4.004
REMARK  Name = 72734520
REMARK  6 active torsions:
REMARK  status: ('A' for Active; 'I' for Inactive)
REMARK    1  A    between atoms: N_1  and  C_19
REMARK    2  A    between atoms: C_8  and  O_28
REMARK    3  A    between atoms: C_14  and  N_20
REMARK    4  A    between atoms: O_28  and  C_29
REMARK    5  A    between atoms: C_32  and  N_36
REMARK    6  A    between atoms: C_37  and  C_39
REMARK                            x       y       z     vdW  Elec       q    Type
REMARK                         _______ _______ _______ _____ _____    ______ ____
ROOT
ATOM      1  N   UNL     1      35.245 -20.960 -21.695  0.00  0.00    -0.238 N 
ATOM      2  N   UNL     1      35.091 -19.614 -23.596  0.00  0.00    -0.316 NA
ATOM      3  N   UNL     1      35.344 -18.648 -21.376  0.00  0.00    -0.294 NA
ATOM      4  N   UNL     1      34.959 -17.951 -25.336  0.00  0.00    -0.289 N 
ATOM      5  C   UNL     1      35.226 -19.668 -22.255  0.00  0.00    +0.207 C 
ATOM      6  C   UNL     1      35.193 -17.198 -23.249  0.00  0.00    +0.181 C 
ATOM      7  C   UNL     1      35.081 -18.342 -24.029  0.00  0.00    +0.188 C 
ATOM      8  C   UNL     1      35.328 -17.390 -21.874  0.00  0.00    +0.281 C 
ATOM      9  C   UNL     1      35.134 -16.089 -24.130  0.00  0.00    +0.008 C 
ATOM     10  C   UNL     1      34.989 -16.582 -25.409  0.00  0.00    +0.060 C 
ATOM     11  H   UNL     1      35.157 -21.681 -22.360  0.00  0.00    +0.166 HD
ATOM     12  H   UNL     1      34.864 -18.558 -26.105  0.00  0.00    +0.154 HD
ENDROOT
BRANCH   1  19
ATOM     13  F   UNL     1      33.349 -23.063 -17.828  0.00  0.00    -0.203 F 
ATOM     14  C   UNL     1      35.610 -22.342 -17.745  0.00  0.00    +0.076 C 
ATOM     15  C   UNL     1      34.401 -22.487 -18.425  0.00  0.00    +0.155 C 
ATOM     16  C   UNL     1      36.697 -21.738 -18.377  0.00  0.00    +0.018 C 
ATOM     17  C   UNL     1      34.280 -22.028 -19.738  0.00  0.00    +0.046 C 
ATOM     18  C   UNL     1      36.577 -21.280 -19.688  0.00  0.00    +0.017 C 
ATOM     19  C   UNL     1      35.368 -21.425 -20.369  0.00  0.00    +0.061 C 
BRANCH  14  20
ATOM     20  N   UNL     1      35.734 -22.800 -16.429  0.00  0.00    -0.310 N 
ATOM     21  N   UNL     1      35.994 -23.485 -13.668  0.00  0.00    +0.388 N 
ATOM     22  C   UNL     1      36.981 -22.506 -15.711  0.00  0.00    +0.068 C 
ATOM     23  C   UNL     1      34.539 -22.940 -15.591  0.00  0.00    +0.068 C 
ATOM     24  C   UNL     1      37.172 -23.478 -14.545  0.00  0.00    -0.056 C 
ATOM     25  C   UNL     1      34.808 -23.898 -14.427  0.00  0.00    -0.056 C 
ATOM     26  C   UNL     1      36.209 -24.375 -12.527  0.00  0.00    -0.101 C 
ATOM     27  H   UNL     1      35.844 -22.542 -13.311  0.00  0.00    -0.080 HD
ENDBRANCH  14  20
ENDBRANCH   1  19
BRANCH   8  28
ATOM     28  O   UNL     1      35.449 -16.344 -20.995  0.00  0.00    -0.429 OA
BRANCH  28  29
ATOM     29  C   UNL     1      34.582 -15.281 -21.154  0.00  0.00    +0.149 C 
ATOM     30  C   UNL     1      34.874 -14.277 -22.078  0.00  0.00    +0.052 C 
ATOM     31  C   UNL     1      33.415 -15.211 -20.394  0.00  0.00    +0.038 C 
ATOM     32  C   UNL     1      33.999 -13.204 -22.241  0.00  0.00    +0.054 C 
ATOM     33  C   UNL     1      32.832 -13.134 -21.481  0.00  0.00    +0.015 C 
ATOM     34  C   UNL     1      32.539 -14.138 -20.558  0.00  0.00    +0.004 C 
BRANCH  32  36
ATOM     35  O   UNL     1      33.811 -13.206 -25.238  0.00  0.00    -0.270 OA
ATOM     36  N   UNL     1      34.290 -12.200 -23.166  0.00  0.00    -0.280 N 
ATOM     37  C   UNL     1      34.184 -12.255 -24.562  0.00  0.00    +0.250 C 
ATOM     38  H   UNL     1      34.610 -11.348 -22.790  0.00  0.00    +0.155 HD
BRANCH  37  39
ATOM     39  C   UNL     1      34.592 -10.967 -25.196  0.00  0.00    +0.058 C 
ATOM     40  C   UNL     1      34.957  -9.925 -24.443  0.00  0.00    +0.005 C 
ENDBRANCH  37  39
ENDBRANCH  32  36
ENDBRANCH  28  29
ENDBRANCH   8  28
TORSDOF 6
ENDMDL
MODEL 4
REMARK VINA RESULT:     -10.6      1.630      2.692
REMARK  Name = 72734520
REMARK  6 active torsions:
REMARK  status: ('A' for Active; 'I' for Inactive)
REMARK    1  A    between atoms: N_1  and  C_19
REMARK    2  A    between atoms: C_8  and  O_28
REMARK    3  A    between atoms: C_14  and  N_20
REMARK    4  A    between atoms: O_28  and  C_29
REMARK    5  A    between atoms: C_32  and  N_36
REMARK    6  A    between atoms: C_37  and  C_39
REMARK                            x       y       z     vdW  Elec       q    Type
REMARK                         _______ _______ _______ _____ _____    ______ ____
ROOT
ATOM      1  N   UNL     1      35.206 -19.979 -22.538  0.00  0.00    -0.238 N 
ATOM      2  N   UNL     1      34.908 -18.461 -24.286  0.00  0.00    -0.316 NA
ATOM      3  N   UNL     1      35.239 -17.706 -21.995  0.00  0.00    -0.294 NA
ATOM      4  N   UNL     1      34.630 -16.643 -25.845  0.00  0.00    -0.289 N 
ATOM      5  C   UNL     1      35.113 -18.640 -22.965  0.00  0.00    +0.207 C 
ATOM      6  C   UNL     1      34.943 -16.088 -23.706  0.00  0.00    +0.181 C 
ATOM      7  C   UNL     1      34.832 -17.154 -24.590  0.00  0.00    +0.188 C 
ATOM      8  C   UNL     1      35.154 -16.408 -22.366  0.00  0.00    +0.281 C 
ATOM      9  C   UNL     1      34.800 -14.901 -24.469  0.00  0.00    +0.008 C 
ATOM     10  C   UNL     1      34.608 -15.273 -25.783  0.00  0.00    +0.060 C 
ATOM     11  H   UNL     1      35.110 -20.635 -23.267  0.00  0.00    +0.166 HD
ATOM     12  H   UNL     1      34.518 -17.176 -26.665  0.00  0.00    +0.154 HD
ENDROOT
BRANCH   1  19
ATOM     13  F   UNL     1      33.516 -22.304 -18.703  0.00  0.00    -0.203 F 
ATOM     14  C   UNL     1      35.818 -21.724 -18.766  0.00  0.00    +0.076 C 
ATOM     15  C   UNL     1      34.548 -21.738 -19.343  0.00  0.00    +0.155 C 
ATOM     16  C   UNL     1      36.884 -21.130 -19.442  0.00  0.00    +0.018 C 
ATOM     17  C   UNL     1      34.345 -21.159 -20.596  0.00  0.00    +0.046 C 
ATOM     18  C   UNL     1      36.681 -20.551 -20.695  0.00  0.00    +0.017 C 
ATOM     19  C   UNL     1      35.412 -20.565 -21.272  0.00  0.00    +0.061 C 
BRANCH  14  20
ATOM     20  N   UNL     1      36.025 -22.303 -17.509  0.00  0.00    -0.310 N 
ATOM     21  N   UNL     1      36.393 -23.251 -14.841  0.00  0.00    +0.388 N 
ATOM     22  C   UNL     1      37.156 -21.821 -16.707  0.00  0.00    +0.068 C 
ATOM     23  C   UNL     1      34.883 -22.821 -16.750  0.00  0.00    +0.068 C 
ATOM     24  C   UNL     1      37.551 -22.862 -15.656  0.00  0.00    -0.056 C 
ATOM     25  C   UNL     1      35.351 -23.828 -15.697  0.00  0.00    -0.056 C 
ATOM     26  C   UNL     1      36.793 -24.205 -13.805  0.00  0.00    -0.101 C 
ATOM     27  H   UNL     1      36.020 -22.421 -14.382  0.00  0.00    -0.080 HD
ENDBRANCH  14  20
ENDBRANCH   1  19
BRANCH   8  28
ATOM     28  O   UNL     1      35.282 -15.448 -21.393  0.00  0.00    -0.429 OA
BRANCH  28  29
ATOM     29  C   UNL     1      34.165 -14.692 -21.101  0.00  0.00    +0.149 C 
ATOM     30  C   UNL     1      33.886 -13.545 -21.846  0.00  0.00    +0.052 C 
ATOM     31  C   UNL     1      33.315 -15.073 -20.063  0.00  0.00    +0.038 C 
ATOM     32  C   UNL     1      32.757 -12.781 -21.553  0.00  0.00    +0.054 C 
ATOM     33  C   UNL     1      31.907 -13.162 -20.515  0.00  0.00    +0.015 C 
ATOM     34  C   UNL     1      32.185 -14.308 -19.771  0.00  0.00    +0.004 C 
BRANCH  32  36
ATOM     35  O   UNL     1      32.011 -10.013 -20.659  0.00  0.00    -0.270 OA
ATOM     36  N   UNL     1      32.478 -11.635 -22.299  0.00  0.00    -0.280 N 
ATOM     37  C   UNL     1      32.133 -10.360 -21.827  0.00  0.00    +0.250 C 
ATOM     38  H   UNL     1      32.530 -11.734 -23.277  0.00  0.00    +0.155 HD
BRANCH  37  39
ATOM     39  C   UNL     1      31.913  -9.401 -22.948  0.00  0.00    +0.058 C 
ATOM     40  C   UNL     1      31.811  -8.090 -22.709  0.00  0.00    +0.005 C 
ENDBRANCH  37  39
ENDBRANCH  32  36
ENDBRANCH  28  29
ENDBRANCH   8  28
TORSDOF 6
ENDMDL
MODEL 5
REMARK VINA RESULT:     -10.5      5.100     12.692
REMARK  Name = 72734520
REMARK  6 active torsions:
REMARK  status: ('A' for Active; 'I' for Inactive)
REMARK    1  A    between atoms: N_1  and  C_19
REMARK    2  A    between atoms: C_8  and  O_28
REMARK    3  A    between atoms: C_14  and  N_20
REMARK    4  A    between atoms: O_28  and  C_29
REMARK    5  A    between atoms: C_32  and  N_36
REMARK    6  A    between atoms: C_37  and  C_39
REMARK                            x       y       z     vdW  Elec       q    Type
REMARK                         _______ _______ _______ _____ _____    ______ ____
ROOT
ATOM      1  N   UNL     1      32.929  -7.034 -21.244  0.00  0.00    -0.238 N 
ATOM      2  N   UNL     1      32.567  -8.642 -19.592  0.00  0.00    -0.316 NA
ATOM      3  N   UNL     1      32.265  -9.160 -21.952  0.00  0.00    -0.294 NA
ATOM      4  N   UNL     1      32.111 -10.521 -18.151  0.00  0.00    -0.289 N 
ATOM      5  C   UNL     1      32.567  -8.354 -20.910  0.00  0.00    +0.207 C 
ATOM      6  C   UNL     1      31.872 -10.860 -20.344  0.00  0.00    +0.181 C 
ATOM      7  C   UNL     1      32.208  -9.920 -19.378  0.00  0.00    +0.188 C 
ATOM      8  C   UNL     1      31.911 -10.435 -21.671  0.00  0.00    +0.281 C 
ATOM      9  C   UNL     1      31.564 -12.064 -19.659  0.00  0.00    +0.008 C 
ATOM     10  C   UNL     1      31.719 -11.825 -18.310  0.00  0.00    +0.060 C 
ATOM     11  H   UNL     1      33.143  -6.472 -20.465  0.00  0.00    +0.166 HD
ATOM     12  H   UNL     1      32.293 -10.084 -17.288  0.00  0.00    +0.154 HD
ENDROOT
BRANCH   1  19
ATOM     13  F   UNL     1      31.230  -3.916 -24.464  0.00  0.00    -0.203 F 
ATOM     14  C   UNL     1      33.279  -5.028 -24.919  0.00  0.00    +0.076 C 
ATOM     15  C   UNL     1      32.181  -4.786 -24.094  0.00  0.00    +0.155 C 
ATOM     16  C   UNL     1      34.260  -5.937 -24.523  0.00  0.00    +0.018 C 
ATOM     17  C   UNL     1      32.065  -5.452 -22.873  0.00  0.00    +0.046 C 
ATOM     18  C   UNL     1      34.145  -6.603 -23.303  0.00  0.00    +0.017 C 
ATOM     19  C   UNL     1      33.047  -6.360 -22.478  0.00  0.00    +0.061 C 
BRANCH  14  20
ATOM     20  N   UNL     1      33.398  -4.363 -26.144  0.00  0.00    -0.310 N 
ATOM     21  N   UNL     1      33.809  -2.846 -28.528  0.00  0.00    +0.388 N 
ATOM     22  C   UNL     1      32.932  -2.973 -26.221  0.00  0.00    +0.068 C 
ATOM     23  C   UNL     1      34.481  -4.721 -27.065  0.00  0.00    +0.068 C 
ATOM     24  C   UNL     1      32.646  -2.582 -27.673  0.00  0.00    -0.056 C 
ATOM     25  C   UNL     1      34.145  -4.274 -28.489  0.00  0.00    -0.056 C 
ATOM     26  C   UNL     1      33.543  -2.418 -29.902  0.00  0.00    -0.101 C 
ATOM     27  H   UNL     1      34.603  -2.311 -28.177  0.00  0.00    -0.080 HD
ENDBRANCH  14  20
ENDBRANCH   1  19
BRANCH   8  28
ATOM     28  O   UNL     1      31.603 -11.267 -22.718  0.00  0.00    -0.429 OA
BRANCH  28  29
ATOM     29  C   UNL     1      32.648 -11.708 -23.503  0.00  0.00    +0.149 C 
ATOM     30  C   UNL     1      32.893 -13.076 -23.632  0.00  0.00    +0.052 C 
ATOM     31  C   UNL     1      33.458 -10.789 -24.170  0.00  0.00    +0.038 C 
ATOM     32  C   UNL     1      33.949 -13.523 -24.427  0.00  0.00    +0.054 C 
ATOM     33  C   UNL     1      34.759 -12.604 -25.093  0.00  0.00    +0.015 C 
ATOM     34  C   UNL     1      34.513 -11.237 -24.965  0.00  0.00    +0.004 C 
BRANCH  32  36
ATOM     35  O   UNL     1      33.786 -15.309 -26.835  0.00  0.00    -0.270 OA
ATOM     36  N   UNL     1      34.193 -14.891 -24.556  0.00  0.00    -0.280 N 
ATOM     37  C   UNL     1      34.102 -15.680 -25.711  0.00  0.00    +0.250 C 
ATOM     38  H   UNL     1      34.464 -15.360 -23.733  0.00  0.00    +0.155 HD
BRANCH  37  39
ATOM     39  C   UNL     1      34.446 -17.104 -25.433  0.00  0.00    +0.058 C 
ATOM     40  C   UNL     1      35.161 -17.433 -24.353  0.00  0.00    +0.005 C 
ENDBRANCH  37  39
ENDBRANCH  32  36
ENDBRANCH  28  29
ENDBRANCH   8  28
TORSDOF 6
ENDMDL
MODEL 6
REMARK VINA RESULT:     -10.3      4.538     12.693
REMARK  Name = 72734520
REMARK  6 active torsions:
REMARK  status: ('A' for Active; 'I' for Inactive)
REMARK    1  A    between atoms: N_1  and  C_19
REMARK    2  A    between atoms: C_8  and  O_28
REMARK    3  A    between atoms: C_14  and  N_20
REMARK    4  A    between atoms: O_28  and  C_29
REMARK    5  A    between atoms: C_32  and  N_36
REMARK    6  A    between atoms: C_37  and  C_39
REMARK                            x       y       z     vdW  Elec       q    Type
REMARK                         _______ _______ _______ _____ _____    ______ ____
ROOT
ATOM      1  N   UNL     1      32.743  -6.834 -21.177  0.00  0.00    -0.238 N 
ATOM      2  N   UNL     1      32.380  -8.453 -19.536  0.00  0.00    -0.316 NA
ATOM      3  N   UNL     1      32.135  -8.970 -21.902  0.00  0.00    -0.294 NA
ATOM      4  N   UNL     1      31.932 -10.344 -18.109  0.00  0.00    -0.289 N 
ATOM      5  C   UNL     1      32.401  -8.161 -20.852  0.00  0.00    +0.207 C 
ATOM      6  C   UNL     1      31.742 -10.682 -20.306  0.00  0.00    +0.181 C 
ATOM      7  C   UNL     1      32.041  -9.738 -19.332  0.00  0.00    +0.188 C 
ATOM      8  C   UNL     1      31.800 -10.252 -21.631  0.00  0.00    +0.281 C 
ATOM      9  C   UNL     1      31.445 -11.893 -19.630  0.00  0.00    +0.008 C 
ATOM     10  C   UNL     1      31.569 -11.655 -18.278  0.00  0.00    +0.060 C 
ATOM     11  H   UNL     1      32.930  -6.270 -20.392  0.00  0.00    +0.166 HD
ATOM     12  H   UNL     1      32.089  -9.906 -17.241  0.00  0.00    +0.154 HD
ENDROOT
BRANCH   1  19
ATOM     13  F   UNL     1      35.116  -6.038 -25.265  0.00  0.00    -0.203 F 
ATOM     14  C   UNL     1      33.128  -4.811 -24.839  0.00  0.00    +0.076 C 
ATOM     15  C   UNL     1      34.077  -5.762 -24.464  0.00  0.00    +0.155 C 
ATOM     16  C   UNL     1      32.052  -4.531 -23.996  0.00  0.00    +0.018 C 
ATOM     17  C   UNL     1      33.948  -6.434 -23.248  0.00  0.00    +0.046 C 
ATOM     18  C   UNL     1      31.924  -5.203 -22.780  0.00  0.00    +0.017 C 
ATOM     19  C   UNL     1      32.872  -6.154 -22.407  0.00  0.00    +0.061 C 
BRANCH  14  20
ATOM     20  N   UNL     1      33.254  -4.134 -26.057  0.00  0.00    -0.310 N 
ATOM     21  N   UNL     1      33.305  -2.887 -28.626  0.00  0.00    +0.388 N 
ATOM     22  C   UNL     1      33.593  -4.920 -27.250  0.00  0.00    +0.068 C 
ATOM     23  C   UNL     1      32.470  -2.919 -26.299  0.00  0.00    +0.068 C 
ATOM     24  C   UNL     1      34.191  -4.020 -28.333  0.00  0.00    -0.056 C 
ATOM     25  C   UNL     1      33.105  -2.084 -27.414  0.00  0.00    -0.056 C 
ATOM     26  C   UNL     1      33.861  -2.064 -29.700  0.00  0.00    -0.101 C 
ATOM     27  H   UNL     1      32.403  -3.246 -28.935  0.00  0.00    -0.080 HD
ENDBRANCH  14  20
ENDBRANCH   1  19
BRANCH   8  28
ATOM     28  O   UNL     1      31.528 -11.087 -22.686  0.00  0.00    -0.429 OA
BRANCH  28  29
ATOM     29  C   UNL     1      32.601 -11.708 -23.294  0.00  0.00    +0.149 C 
ATOM     30  C   UNL     1      33.000 -12.977 -22.874  0.00  0.00    +0.052 C 
ATOM     31  C   UNL     1      33.285 -11.068 -24.327  0.00  0.00    +0.038 C 
ATOM     32  C   UNL     1      34.083 -13.606 -23.488  0.00  0.00    +0.054 C 
ATOM     33  C   UNL     1      34.767 -12.966 -24.522  0.00  0.00    +0.015 C 
ATOM     34  C   UNL     1      34.367 -11.697 -24.942  0.00  0.00    +0.004 C 
BRANCH  32  36
ATOM     35  O   UNL     1      34.899 -14.590 -20.771  0.00  0.00    -0.270 OA
ATOM     36  N   UNL     1      34.482 -14.876 -23.069  0.00  0.00    -0.280 N 
ATOM     37  C   UNL     1      34.854 -15.283 -21.780  0.00  0.00    +0.250 C 
ATOM     38  H   UNL     1      34.504 -15.572 -23.765  0.00  0.00    +0.155 HD
BRANCH  37  39
ATOM     39  C   UNL     1      35.215 -16.730 -21.743  0.00  0.00    +0.058 C 
ATOM     40  C   UNL     1      35.568 -17.371 -22.860  0.00  0.00    +0.005 C 
ENDBRANCH  37  39
ENDBRANCH  32  36
ENDBRANCH  28  29
ENDBRANCH   8  28
TORSDOF 6
ENDMDL
MODEL 7
REMARK VINA RESULT:     -10.3      3.939     12.124
REMARK  Name = 72734520
REMARK  6 active torsions:
REMARK  status: ('A' for Active; 'I' for Inactive)
REMARK    1  A    between atoms: N_1  and  C_19
REMARK    2  A    between atoms: C_8  and  O_28
REMARK    3  A    between atoms: C_14  and  N_20
REMARK    4  A    between atoms: O_28  and  C_29
REMARK    5  A    between atoms: C_32  and  N_36
REMARK    6  A    between atoms: C_37  and  C_39
REMARK                            x       y       z     vdW  Elec       q    Type
REMARK                         _______ _______ _______ _____ _____    ______ ____
ROOT
ATOM      1  N   UNL     1      31.794  -9.189 -22.132  0.00  0.00    -0.238 N 
ATOM      2  N   UNL     1      31.732 -11.241 -21.023  0.00  0.00    -0.316 NA
ATOM      3  N   UNL     1      33.146 -10.899 -22.975  0.00  0.00    -0.294 NA
ATOM      4  N   UNL     1      31.901 -13.470 -20.119  0.00  0.00    -0.289 N 
ATOM      5  C   UNL     1      32.250 -10.518 -22.037  0.00  0.00    +0.207 C 
ATOM      6  C   UNL     1      33.148 -13.022 -21.913  0.00  0.00    +0.181 C 
ATOM      7  C   UNL     1      32.227 -12.492 -21.019  0.00  0.00    +0.188 C 
ATOM      8  C   UNL     1      33.607 -12.170 -22.917  0.00  0.00    +0.281 C 
ATOM      9  C   UNL     1      33.375 -14.367 -21.525  0.00  0.00    +0.008 C 
ATOM     10  C   UNL     1      32.593 -14.616 -20.417  0.00  0.00    +0.060 C 
ATOM     11  H   UNL     1      31.143  -8.942 -21.436  0.00  0.00    +0.166 HD
ATOM     12  H   UNL     1      31.267 -13.368 -19.372  0.00  0.00    +0.154 HD
ENDROOT
BRANCH   1  19
ATOM     13  F   UNL     1      34.869  -5.967 -23.904  0.00  0.00    -0.203 F 
ATOM     14  C   UNL     1      32.673  -6.067 -24.802  0.00  0.00    +0.076 C 
ATOM     15  C   UNL     1      33.648  -6.521 -23.915  0.00  0.00    +0.155 C 
ATOM     16  C   UNL     1      31.405  -6.650 -24.802  0.00  0.00    +0.018 C 
ATOM     17  C   UNL     1      33.357  -7.558 -23.028  0.00  0.00    +0.046 C 
ATOM     18  C   UNL     1      31.114  -7.687 -23.916  0.00  0.00    +0.017 C 
ATOM     19  C   UNL     1      32.089  -8.141 -23.029  0.00  0.00    +0.061 C 
BRANCH  14  20
ATOM     20  N   UNL     1      32.962  -5.026 -25.692  0.00  0.00    -0.310 N 
ATOM     21  N   UNL     1      33.725  -2.816 -27.332  0.00  0.00    +0.388 N 
ATOM     22  C   UNL     1      32.639  -3.656 -25.277  0.00  0.00    +0.068 C 
ATOM     23  C   UNL     1      34.084  -5.158 -26.626  0.00  0.00    +0.068 C 
ATOM     24  C   UNL     1      32.520  -2.739 -26.496  0.00  0.00    -0.056 C 
ATOM     25  C   UNL     1      33.919  -4.192 -27.802  0.00  0.00    -0.056 C 
ATOM     26  C   UNL     1      33.623  -1.896 -28.465  0.00  0.00    -0.101 C 
ATOM     27  H   UNL     1      34.531  -2.543 -26.772  0.00  0.00    -0.080 HD
ENDBRANCH  14  20
ENDBRANCH   1  19
BRANCH   8  28
ATOM     28  O   UNL     1      34.518 -12.571 -23.862  0.00  0.00    -0.429 OA
BRANCH  28  29
ATOM     29  C   UNL     1      34.421 -13.868 -24.323  0.00  0.00    +0.149 C 
ATOM     30  C   UNL     1      35.202 -14.872 -23.750  0.00  0.00    +0.052 C 
ATOM     31  C   UNL     1      33.541 -14.176 -25.361  0.00  0.00    +0.038 C 
ATOM     32  C   UNL     1      35.103 -16.183 -24.215  0.00  0.00    +0.054 C 
ATOM     33  C   UNL     1      34.224 -16.491 -25.253  0.00  0.00    +0.015 C 
ATOM     34  C   UNL     1      33.442 -15.488 -25.825  0.00  0.00    +0.004 C 
BRANCH  32  36
ATOM     35  O   UNL     1      35.354 -17.054 -21.352  0.00  0.00    -0.270 OA
ATOM     36  N   UNL     1      35.884 -17.187 -23.641  0.00  0.00    -0.280 N 
ATOM     37  C   UNL     1      35.963 -17.554 -22.290  0.00  0.00    +0.250 C 
ATOM     38  H   UNL     1      36.449 -17.702 -24.262  0.00  0.00    +0.155 HD
BRANCH  37  39
ATOM     39  C   UNL     1      36.917 -18.681 -22.081  0.00  0.00    +0.058 C 
ATOM     40  C   UNL     1      36.644 -19.649 -21.201  0.00  0.00    +0.005 C 
ENDBRANCH  37  39
ENDBRANCH  32  36
ENDBRANCH  28  29
ENDBRANCH   8  28
TORSDOF 6
ENDMDL
MODEL 8
REMARK VINA RESULT:      -9.3      4.797      9.388
REMARK  Name = 72734520
REMARK  6 active torsions:
REMARK  status: ('A' for Active; 'I' for Inactive)
REMARK    1  A    between atoms: N_1  and  C_19
REMARK    2  A    between atoms: C_8  and  O_28
REMARK    3  A    between atoms: C_14  and  N_20
REMARK    4  A    between atoms: O_28  and  C_29
REMARK    5  A    between atoms: C_32  and  N_36
REMARK    6  A    between atoms: C_37  and  C_39
REMARK                            x       y       z     vdW  Elec       q    Type
REMARK                         _______ _______ _______ _____ _____    ______ ____
ROOT
ATOM      1  N   UNL     1      31.348  -8.756 -22.648  0.00  0.00    -0.238 N 
ATOM      2  N   UNL     1      30.818  -6.483 -22.661  0.00  0.00    -0.316 NA
ATOM      3  N   UNL     1      32.951  -7.292 -23.512  0.00  0.00    -0.294 NA
ATOM      4  N   UNL     1      30.589  -4.088 -22.818  0.00  0.00    -0.289 N 
ATOM      5  C   UNL     1      31.726  -7.435 -22.958  0.00  0.00    +0.207 C 
ATOM      6  C   UNL     1      32.502  -4.962 -23.565  0.00  0.00    +0.181 C 
ATOM      7  C   UNL     1      31.272  -5.262 -22.992  0.00  0.00    +0.188 C 
ATOM      8  C   UNL     1      33.351  -6.038 -23.823  0.00  0.00    +0.281 C 
ATOM      9  C   UNL     1      32.546  -3.555 -23.736  0.00  0.00    +0.008 C 
ATOM     10  C   UNL     1      31.355  -3.043 -23.266  0.00  0.00    +0.060 C 
ATOM     11  H   UNL     1      30.452  -8.828 -22.246  0.00  0.00    +0.166 HD
ATOM     12  H   UNL     1      29.688  -4.007 -22.431  0.00  0.00    +0.154 HD
ENDROOT
BRANCH   1  19
ATOM     13  F   UNL     1      31.889 -13.357 -21.416  0.00  0.00    -0.203 F 
ATOM     14  C   UNL     1      33.293 -12.452 -23.104  0.00  0.00    +0.076 C 
ATOM     15  C   UNL     1      32.265 -12.316 -22.172  0.00  0.00    +0.155 C 
ATOM     16  C   UNL     1      33.676 -11.360 -23.884  0.00  0.00    +0.018 C 
ATOM     17  C   UNL     1      31.618 -11.088 -22.021  0.00  0.00    +0.046 C 
ATOM     18  C   UNL     1      33.030 -10.133 -23.733  0.00  0.00    +0.017 C 
ATOM     19  C   UNL     1      32.001  -9.997 -22.801  0.00  0.00    +0.061 C 
BRANCH  14  20
ATOM     20  N   UNL     1      33.944 -13.680 -23.258  0.00  0.00    -0.310 N 
ATOM     21  N   UNL     1      35.481 -16.055 -23.652  0.00  0.00    +0.388 N 
ATOM     22  C   UNL     1      34.322 -14.096 -24.614  0.00  0.00    +0.068 C 
ATOM     23  C   UNL     1      34.792 -14.195 -22.178  0.00  0.00    +0.068 C 
ATOM     24  C   UNL     1      34.526 -15.611 -24.675  0.00  0.00    -0.056 C 
ATOM     25  C   UNL     1      34.981 -15.707 -22.317  0.00  0.00    -0.056 C 
ATOM     26  C   UNL     1      35.709 -17.497 -23.755  0.00  0.00    -0.101 C 
ATOM     27  H   UNL     1      36.370 -15.581 -23.805  0.00  0.00    -0.080 HD
ENDBRANCH  14  20
ENDBRANCH   1  19
BRANCH   8  28
ATOM     28  O   UNL     1      34.591  -5.875 -24.387  0.00  0.00    -0.429 OA
BRANCH  28  29
ATOM     29  C   UNL     1      34.641  -5.357 -25.665  0.00  0.00    +0.149 C 
ATOM     30  C   UNL     1      35.868  -4.996 -26.222  0.00  0.00    +0.052 C 
ATOM     31  C   UNL     1      33.467  -5.196 -26.400  0.00  0.00    +0.038 C 
ATOM     32  C   UNL     1      35.920  -4.473 -27.515  0.00  0.00    +0.054 C 
ATOM     33  C   UNL     1      34.746  -4.312 -28.250  0.00  0.00    +0.015 C 
ATOM     34  C   UNL     1      33.519  -4.675 -27.693  0.00  0.00    +0.004 C 
BRANCH  32  36
ATOM     35  O   UNL     1      37.700  -5.957 -29.424  0.00  0.00    -0.270 OA
ATOM     36  N   UNL     1      37.148  -4.112 -28.072  0.00  0.00    -0.280 N 
ATOM     37  C   UNL     1      37.941  -4.847 -28.964  0.00  0.00    +0.250 C 
ATOM     38  H   UNL     1      37.499  -3.232 -27.807  0.00  0.00    +0.155 HD
BRANCH  37  39
ATOM     39  C   UNL     1      39.186  -4.112 -29.328  0.00  0.00    +0.058 C 
ATOM     40  C   UNL     1      40.258  -4.156 -28.532  0.00  0.00    +0.005 C 
ENDBRANCH  37  39
ENDBRANCH  32  36
ENDBRANCH  28  29
ENDBRANCH   8  28
TORSDOF 6
ENDMDL
MODEL 9
REMARK VINA RESULT:      -9.2      5.921     12.193
REMARK  Name = 72734520
REMARK  6 active torsions:
REMARK  status: ('A' for Active; 'I' for Inactive)
REMARK    1  A    between atoms: N_1  and  C_19
REMARK    2  A    between atoms: C_8  and  O_28
REMARK    3  A    between atoms: C_14  and  N_20
REMARK    4  A    between atoms: O_28  and  C_29
REMARK    5  A    between atoms: C_32  and  N_36
REMARK    6  A    between atoms: C_37  and  C_39
REMARK                            x       y       z     vdW  Elec       q    Type
REMARK                         _______ _______ _______ _____ _____    ______ ____
ROOT
ATOM      1  N   UNL     1      38.061 -22.144 -16.441  0.00  0.00    -0.238 N 
ATOM      2  N   UNL     1      38.322 -23.448 -14.523  0.00  0.00    -0.316 NA
ATOM      3  N   UNL     1      36.353 -23.658 -15.940  0.00  0.00    -0.294 NA
ATOM      4  N   UNL     1      38.278 -24.935 -12.626  0.00  0.00    -0.289 N 
ATOM      5  C   UNL     1      37.551 -23.140 -15.586  0.00  0.00    +0.207 C 
ATOM      6  C   UNL     1      36.529 -25.026 -14.009  0.00  0.00    +0.181 C 
ATOM      7  C   UNL     1      37.748 -24.404 -13.772  0.00  0.00    +0.188 C 
ATOM      8  C   UNL     1      35.829 -24.617 -15.143  0.00  0.00    +0.281 C 
ATOM      9  C   UNL     1      36.332 -25.962 -12.961  0.00  0.00    +0.008 C 
ATOM     10  C   UNL     1      37.424 -25.883 -12.124  0.00  0.00    +0.060 C 
ATOM     11  H   UNL     1      38.933 -21.786 -16.157  0.00  0.00    +0.166 HD
ATOM     12  H   UNL     1      39.138 -24.676 -12.224  0.00  0.00    +0.154 HD
ENDROOT
BRANCH   1  19
ATOM     13  F   UNL     1      35.201 -22.299 -20.284  0.00  0.00    -0.203 F 
ATOM     14  C   UNL     1      36.594 -20.401 -19.971  0.00  0.00    +0.076 C 
ATOM     15  C   UNL     1      36.122 -21.648 -19.560  0.00  0.00    +0.155 C 
ATOM     16  C   UNL     1      37.554 -19.734 -19.209  0.00  0.00    +0.018 C 
ATOM     17  C   UNL     1      36.609 -22.226 -18.387  0.00  0.00    +0.046 C 
ATOM     18  C   UNL     1      38.040 -20.312 -18.037  0.00  0.00    +0.017 C 
ATOM     19  C   UNL     1      37.568 -21.558 -17.626  0.00  0.00    +0.061 C 
BRANCH  14  20
ATOM     20  N   UNL     1      36.108 -19.819 -21.147  0.00  0.00    -0.310 N 
ATOM     21  N   UNL     1      35.009 -18.447 -23.398  0.00  0.00    +0.388 N 
ATOM     22  C   UNL     1      34.654 -19.779 -21.346  0.00  0.00    +0.068 C 
ATOM     23  C   UNL     1      36.867 -18.745 -21.794  0.00  0.00    +0.068 C 
ATOM     24  C   UNL     1      34.320 -19.613 -22.831  0.00  0.00    -0.056 C 
ATOM     25  C   UNL     1      36.461 -18.611 -23.264  0.00  0.00    -0.056 C 
ATOM     26  C   UNL     1      34.640 -18.266 -24.802  0.00  0.00    -0.101 C 
ATOM     27  H   UNL     1      34.723 -17.614 -22.884  0.00  0.00    -0.080 HD
ENDBRANCH  14  20
ENDBRANCH   1  19
BRANCH   8  28
ATOM     28  O   UNL     1      34.615 -25.154 -15.490  0.00  0.00    -0.429 OA
BRANCH  28  29
ATOM     29  C   UNL     1      33.489 -24.590 -14.924  0.00  0.00    +0.149 C 
ATOM     30  C   UNL     1      32.294 -24.551 -15.642  0.00  0.00    +0.052 C 
ATOM     31  C   UNL     1      33.546 -24.062 -13.634  0.00  0.00    +0.038 C 
ATOM     32  C   UNL     1      31.155 -23.983 -15.070  0.00  0.00    +0.054 C 
ATOM     33  C   UNL     1      31.212 -23.454 -13.781  0.00  0.00    +0.015 C 
ATOM     34  C   UNL     1      32.407 -23.494 -13.062  0.00  0.00    +0.004 C 
BRANCH  32  36
ATOM     35  O   UNL     1      30.318 -22.230 -17.359  0.00  0.00    -0.270 OA
ATOM     36  N   UNL     1      29.959 -23.944 -15.788  0.00  0.00    -0.280 N 
ATOM     37  C   UNL     1      29.619 -23.100 -16.854  0.00  0.00    +0.250 C 
ATOM     38  H   UNL     1      29.270 -24.590 -15.511  0.00  0.00    +0.155 HD
BRANCH  37  39
ATOM     39  C   UNL     1      28.240 -23.373 -17.354  0.00  0.00    +0.058 C 
ATOM     40  C   UNL     1      27.311 -22.414 -17.340  0.00  0.00    +0.005 C 
ENDBRANCH  37  39
ENDBRANCH  32  36
ENDBRANCH  28  29
ENDBRANCH   8  28
TORSDOF 6
ENDMDL
