MODEL 1
REMARK VINA RESULT:     -12.1      0.000      0.000
REMARK  Name = 46207586
REMARK  7 active torsions:
REMARK  status: ('A' for Active; 'I' for Inactive)
REMARK    1  A    between atoms: C_6  and  C_13
REMARK    2  A    between atoms: C_7  and  C_34
REMARK    3  A    between atoms: C_16  and  N_20
REMARK    4  A    between atoms: N_21  and  C_26
REMARK    5  A    between atoms: N_32  and  C_37
REMARK    6  A    between atoms: C_37  and  C_38
REMARK    7  A    between atoms: C_38  and  O_39
REMARK                            x       y       z     vdW  Elec       q    Type
REMARK                         _______ _______ _______ _____ _____    ______ ____
ROOT
ATOM      1  S   UNL     1      37.594 -22.374 -16.993  0.00  0.00    -0.086 S 
ATOM      2  N   UNL     1      33.296 -23.450 -17.654  0.00  0.00    -0.230 NA
ATOM      3  N   UNL     1      33.266 -21.999 -19.520  0.00  0.00    -0.343 N 
ATOM      4  C   UNL     1      35.313 -22.268 -18.207  0.00  0.00    +0.038 C 
ATOM      5  C   UNL     1      35.952 -22.880 -17.124  0.00  0.00    +0.034 C 
ATOM      6  C   UNL     1      36.207 -21.388 -18.905  0.00  0.00    +0.010 C 
ATOM      7  C   UNL     1      35.272 -23.782 -16.296  0.00  0.00    +0.028 C 
ATOM      8  C   UNL     1      33.967 -22.581 -18.444  0.00  0.00    +0.126 C 
ATOM      9  C   UNL     1      37.466 -21.355 -18.353  0.00  0.00    +0.036 C 
ATOM     10  C   UNL     1      33.948 -24.018 -16.621  0.00  0.00    +0.101 C 
ATOM     11  H   UNL     1      32.321 -22.229 -19.675  0.00  0.00    +0.144 HD
ATOM     12  H   UNL     1      33.722 -21.363 -20.117  0.00  0.00    +0.144 HD
ENDROOT
BRANCH   6  13
ATOM     13  C   UNL     1      35.935 -20.579 -20.067  0.00  0.00    +0.001 C 
ATOM     14  C   UNL     1      34.661 -20.578 -20.635  0.00  0.00    +0.001 C 
ATOM     15  C   UNL     1      36.947 -19.796 -20.623  0.00  0.00    +0.001 C 
ATOM     16  C   UNL     1      35.410 -19.012 -22.315  0.00  0.00    +0.052 C 
ATOM     17  C   UNL     1      34.398 -19.794 -21.759  0.00  0.00    +0.015 C 
ATOM     18  C   UNL     1      36.684 -19.012 -21.748  0.00  0.00    +0.015 C 
BRANCH  16  20
ATOM     19  O   UNL     1      34.829 -16.090 -22.533  0.00  0.00    -0.252 OA
ATOM     20  N   UNL     1      35.148 -18.227 -23.438  0.00  0.00    -0.268 N 
ATOM     21  N   UNL     1      34.668 -16.453 -24.837  0.00  0.00    -0.268 N 
ATOM     22  C   UNL     1      34.875 -16.839 -23.503  0.00  0.00    +0.308 C 
ATOM     23  H   UNL     1      35.152 -18.702 -24.301  0.00  0.00    +0.156 HD
ATOM     24  H   UNL     1      34.737 -17.168 -25.510  0.00  0.00    +0.156 HD
BRANCH  21  26
ATOM     25  F   UNL     1      34.481 -11.691 -24.249  0.00  0.00    -0.204 F 
ATOM     26  C   UNL     1      34.371 -15.162 -25.334  0.00  0.00    +0.054 C 
ATOM     27  C   UNL     1      34.577 -14.041 -24.530  0.00  0.00    +0.044 C 
ATOM     28  C   UNL     1      33.871 -15.011 -26.628  0.00  0.00    +0.015 C 
ATOM     29  C   UNL     1      34.283 -12.768 -25.020  0.00  0.00    +0.141 C 
ATOM     30  C   UNL     1      33.577 -13.738 -27.117  0.00  0.00    +0.004 C 
ATOM     31  C   UNL     1      33.783 -12.617 -26.313  0.00  0.00    +0.030 C 
ENDBRANCH  21  26
ENDBRANCH  16  20
ENDBRANCH   6  13
BRANCH   7  34
ATOM     32  N   UNL     1      36.761 -24.744 -13.198  0.00  0.00    -0.208 N 
ATOM     33  N   UNL     1      36.950 -25.923 -13.816  0.00  0.00    -0.176 NA
ATOM     34  C   UNL     1      35.910 -24.419 -15.184  0.00  0.00    +0.039 C 
ATOM     35  C   UNL     1      36.143 -23.809 -13.975  0.00  0.00    +0.086 C 
ATOM     36  C   UNL     1      36.428 -25.718 -15.027  0.00  0.00    +0.119 C 
BRANCH  32  37
ATOM     37  C   UNL     1      37.205 -24.569 -11.837  0.00  0.00    +0.148 C 
BRANCH  37  38
ATOM     38  C   UNL     1      36.052 -24.275 -10.883  0.00  0.00    +0.161 C 
BRANCH  38  39
ATOM     39  O   UNL     1      35.407 -25.491 -10.523  0.00  0.00    -0.380 OA
ATOM     40  H   UNL     1      34.548 -25.546 -10.970  0.00  0.00    +0.211 HD
ENDBRANCH  38  39
ENDBRANCH  37  38
ENDBRANCH  32  37
ENDBRANCH   7  34
TORSDOF 7
ENDMDL
MODEL 2
REMARK VINA RESULT:     -12.1      5.719      9.676
REMARK  Name = 46207586
REMARK  7 active torsions:
REMARK  status: ('A' for Active; 'I' for Inactive)
REMARK    1  A    between atoms: C_6  and  C_13
REMARK    2  A    between atoms: C_7  and  C_34
REMARK    3  A    between atoms: C_16  and  N_20
REMARK    4  A    between atoms: N_21  and  C_26
REMARK    5  A    between atoms: N_32  and  C_37
REMARK    6  A    between atoms: C_37  and  C_38
REMARK    7  A    between atoms: C_38  and  O_39
REMARK                            x       y       z     vdW  Elec       q    Type
REMARK                         _______ _______ _______ _____ _____    ______ ____
ROOT
ATOM      1  S   UNL     1      34.910 -15.574 -20.791  0.00  0.00    -0.086 S 
ATOM      2  N   UNL     1      34.707 -16.157 -25.228  0.00  0.00    -0.230 NA
ATOM      3  N   UNL     1      33.821 -13.974 -25.430  0.00  0.00    -0.343 N 
ATOM      4  C   UNL     1      34.391 -14.870 -23.225  0.00  0.00    +0.038 C 
ATOM      5  C   UNL     1      34.891 -15.939 -22.476  0.00  0.00    +0.034 C 
ATOM      6  C   UNL     1      34.035 -13.766 -22.378  0.00  0.00    +0.010 C 
ATOM      7  C   UNL     1      35.303 -17.127 -23.092  0.00  0.00    +0.028 C 
ATOM      8  C   UNL     1      34.313 -15.016 -24.618  0.00  0.00    +0.126 C 
ATOM      9  C   UNL     1      34.266 -14.017 -21.046  0.00  0.00    +0.036 C 
ATOM     10  C   UNL     1      35.182 -17.164 -24.470  0.00  0.00    +0.101 C 
ATOM     11  H   UNL     1      33.772 -14.092 -26.406  0.00  0.00    +0.144 HD
ATOM     12  H   UNL     1      33.526 -13.129 -25.020  0.00  0.00    +0.144 HD
ENDROOT
BRANCH   6  13
ATOM     13  C   UNL     1      33.490 -12.488 -22.762  0.00  0.00    +0.001 C 
ATOM     14  C   UNL     1      34.134 -11.715 -23.728  0.00  0.00    +0.001 C 
ATOM     15  C   UNL     1      32.317 -12.024 -22.166  0.00  0.00    +0.001 C 
ATOM     16  C   UNL     1      32.433 -10.015 -23.503  0.00  0.00    +0.052 C 
ATOM     17  C   UNL     1      33.606 -10.478 -24.098  0.00  0.00    +0.015 C 
ATOM     18  C   UNL     1      31.788 -10.787 -22.537  0.00  0.00    +0.015 C 
BRANCH  16  20
ATOM     19  O   UNL     1      33.577  -7.269 -23.234  0.00  0.00    -0.252 OA
ATOM     20  N   UNL     1      31.904  -8.778 -23.874  0.00  0.00    -0.268 N 
ATOM     21  N   UNL     1      31.604  -6.517 -24.238  0.00  0.00    -0.268 N 
ATOM     22  C   UNL     1      32.478  -7.491 -23.730  0.00  0.00    +0.308 C 
ATOM     23  H   UNL     1      31.012  -8.803 -24.292  0.00  0.00    +0.156 HD
ATOM     24  H   UNL     1      30.753  -6.849 -24.606  0.00  0.00    +0.156 HD
BRANCH  21  26
ATOM     25  F   UNL     1      30.661  -2.113 -22.573  0.00  0.00    -0.204 F 
ATOM     26  C   UNL     1      31.795  -5.115 -24.286  0.00  0.00    +0.054 C 
ATOM     27  C   UNL     1      31.120  -4.289 -23.388  0.00  0.00    +0.044 C 
ATOM     28  C   UNL     1      32.656  -4.561 -25.234  0.00  0.00    +0.015 C 
ATOM     29  C   UNL     1      31.307  -2.907 -23.436  0.00  0.00    +0.141 C 
ATOM     30  C   UNL     1      32.843  -3.180 -25.282  0.00  0.00    +0.004 C 
ATOM     31  C   UNL     1      32.168  -2.353 -24.383  0.00  0.00    +0.030 C 
ENDBRANCH  21  26
ENDBRANCH  16  20
ENDBRANCH   6  13
BRANCH   7  34
ATOM     32  N   UNL     1      35.898 -20.044 -21.124  0.00  0.00    -0.208 N 
ATOM     33  N   UNL     1      37.193 -19.735 -21.309  0.00  0.00    -0.176 NA
ATOM     34  C   UNL     1      35.818 -18.232 -22.342  0.00  0.00    +0.039 C 
ATOM     35  C   UNL     1      35.034 -19.175 -21.722  0.00  0.00    +0.086 C 
ATOM     36  C   UNL     1      37.137 -18.628 -22.054  0.00  0.00    +0.119 C 
BRANCH  32  37
ATOM     37  C   UNL     1      35.543 -21.208 -20.348  0.00  0.00    +0.148 C 
BRANCH  37  38
ATOM     38  C   UNL     1      36.663 -21.643 -19.409  0.00  0.00    +0.161 C 
BRANCH  38  39
ATOM     39  O   UNL     1      37.089 -20.535 -18.625  0.00  0.00    -0.380 OA
ATOM     40  H   UNL     1      38.058 -20.483 -18.639  0.00  0.00    +0.211 HD
ENDBRANCH  38  39
ENDBRANCH  37  38
ENDBRANCH  32  37
ENDBRANCH   7  34
TORSDOF 7
ENDMDL
MODEL 3
REMARK VINA RESULT:     -12.0      0.786      1.148
REMARK  Name = 46207586
REMARK  7 active torsions:
REMARK  status: ('A' for Active; 'I' for Inactive)
REMARK    1  A    between atoms: C_6  and  C_13
REMARK    2  A    between atoms: C_7  and  C_34
REMARK    3  A    between atoms: C_16  and  N_20
REMARK    4  A    between atoms: N_21  and  C_26
REMARK    5  A    between atoms: N_32  and  C_37
REMARK    6  A    between atoms: C_37  and  C_38
REMARK    7  A    between atoms: C_38  and  O_39
REMARK                            x       y       z     vdW  Elec       q    Type
REMARK                         _______ _______ _______ _____ _____    ______ ____
ROOT
ATOM      1  S   UNL     1      37.422 -22.303 -17.166  0.00  0.00    -0.086 S 
ATOM      2  N   UNL     1      33.131 -23.351 -17.912  0.00  0.00    -0.230 NA
ATOM      3  N   UNL     1      33.143 -21.888 -19.769  0.00  0.00    -0.343 N 
ATOM      4  C   UNL     1      35.165 -22.177 -18.420  0.00  0.00    +0.038 C 
ATOM      5  C   UNL     1      35.780 -22.800 -17.331  0.00  0.00    +0.034 C 
ATOM      6  C   UNL     1      36.075 -21.297 -19.097  0.00  0.00    +0.010 C 
ATOM      7  C   UNL     1      35.081 -23.703 -16.521  0.00  0.00    +0.028 C 
ATOM      8  C   UNL     1      33.821 -22.481 -18.685  0.00  0.00    +0.126 C 
ATOM      9  C   UNL     1      37.324 -21.275 -18.522  0.00  0.00    +0.036 C 
ATOM     10  C   UNL     1      33.762 -23.930 -16.872  0.00  0.00    +0.101 C 
ATOM     11  H   UNL     1      32.199 -22.111 -19.942  0.00  0.00    +0.144 HD
ATOM     12  H   UNL     1      33.613 -21.251 -20.353  0.00  0.00    +0.144 HD
ENDROOT
BRANCH   6  13
ATOM     13  C   UNL     1      35.829 -20.479 -20.258  0.00  0.00    +0.001 C 
ATOM     14  C   UNL     1      36.842 -19.668 -20.769  0.00  0.00    +0.001 C 
ATOM     15  C   UNL     1      34.576 -20.499 -20.871  0.00  0.00    +0.001 C 
ATOM     16  C   UNL     1      35.350 -18.897 -22.505  0.00  0.00    +0.052 C 
ATOM     17  C   UNL     1      36.603 -18.877 -21.893  0.00  0.00    +0.015 C 
ATOM     18  C   UNL     1      34.336 -19.708 -21.995  0.00  0.00    +0.015 C 
BRANCH  16  20
ATOM     19  O   UNL     1      34.727 -15.984 -22.717  0.00  0.00    -0.252 OA
ATOM     20  N   UNL     1      35.111 -18.107 -23.630  0.00  0.00    -0.268 N 
ATOM     21  N   UNL     1      34.647 -16.328 -25.028  0.00  0.00    -0.268 N 
ATOM     22  C   UNL     1      34.817 -16.723 -23.692  0.00  0.00    +0.308 C 
ATOM     23  H   UNL     1      35.151 -18.574 -24.497  0.00  0.00    +0.156 HD
ATOM     24  H   UNL     1      34.750 -17.036 -25.705  0.00  0.00    +0.156 HD
BRANCH  21  26
ATOM     25  F   UNL     1      34.356 -11.576 -24.404  0.00  0.00    -0.204 F 
ATOM     26  C   UNL     1      34.344 -15.037 -25.524  0.00  0.00    +0.054 C 
ATOM     27  C   UNL     1      34.503 -13.921 -24.704  0.00  0.00    +0.044 C 
ATOM     28  C   UNL     1      33.886 -14.882 -26.833  0.00  0.00    +0.015 C 
ATOM     29  C   UNL     1      34.204 -12.648 -25.191  0.00  0.00    +0.141 C 
ATOM     30  C   UNL     1      33.587 -13.611 -27.321  0.00  0.00    +0.004 C 
ATOM     31  C   UNL     1      33.746 -12.494 -26.500  0.00  0.00    +0.030 C 
ENDBRANCH  21  26
ENDBRANCH  16  20
ENDBRANCH   6  13
BRANCH   7  34
ATOM     32  N   UNL     1      36.415 -24.733 -13.375  0.00  0.00    -0.208 N 
ATOM     33  N   UNL     1      36.784 -25.836 -14.050  0.00  0.00    -0.176 NA
ATOM     34  C   UNL     1      35.695 -24.351 -15.402  0.00  0.00    +0.039 C 
ATOM     35  C   UNL     1      35.760 -23.813 -14.140  0.00  0.00    +0.086 C 
ATOM     36  C   UNL     1      36.341 -25.596 -15.287  0.00  0.00    +0.119 C 
BRANCH  32  37
ATOM     37  C   UNL     1      36.726 -24.615 -11.971  0.00  0.00    +0.148 C 
BRANCH  37  38
ATOM     38  C   UNL     1      37.239 -23.226 -11.605  0.00  0.00    +0.161 C 
BRANCH  38  39
ATOM     39  O   UNL     1      38.659 -23.203 -11.685  0.00  0.00    -0.380 OA
ATOM     40  H   UNL     1      38.938 -23.510 -12.562  0.00  0.00    +0.211 HD
ENDBRANCH  38  39
ENDBRANCH  37  38
ENDBRANCH  32  37
ENDBRANCH   7  34
TORSDOF 7
ENDMDL
MODEL 4
REMARK VINA RESULT:     -12.0      5.680      9.527
REMARK  Name = 46207586
REMARK  7 active torsions:
REMARK  status: ('A' for Active; 'I' for Inactive)
REMARK    1  A    between atoms: C_6  and  C_13
REMARK    2  A    between atoms: C_7  and  C_34
REMARK    3  A    between atoms: C_16  and  N_20
REMARK    4  A    between atoms: N_21  and  C_26
REMARK    5  A    between atoms: N_32  and  C_37
REMARK    6  A    between atoms: C_37  and  C_38
REMARK    7  A    between atoms: C_38  and  O_39
REMARK                            x       y       z     vdW  Elec       q    Type
REMARK                         _______ _______ _______ _____ _____    ______ ____
ROOT
ATOM      1  S   UNL     1      34.943 -15.625 -20.755  0.00  0.00    -0.086 S 
ATOM      2  N   UNL     1      34.731 -16.253 -25.185  0.00  0.00    -0.230 NA
ATOM      3  N   UNL     1      33.846 -14.072 -25.407  0.00  0.00    -0.343 N 
ATOM      4  C   UNL     1      34.420 -14.945 -23.194  0.00  0.00    +0.038 C 
ATOM      5  C   UNL     1      34.920 -16.007 -22.436  0.00  0.00    +0.034 C 
ATOM      6  C   UNL     1      34.066 -13.833 -22.359  0.00  0.00    +0.010 C 
ATOM      7  C   UNL     1      35.330 -17.202 -23.041  0.00  0.00    +0.028 C 
ATOM      8  C   UNL     1      34.339 -15.106 -24.586  0.00  0.00    +0.126 C 
ATOM      9  C   UNL     1      34.300 -14.070 -21.025  0.00  0.00    +0.036 C 
ATOM     10  C   UNL     1      35.206 -17.252 -24.418  0.00  0.00    +0.101 C 
ATOM     11  H   UNL     1      33.794 -14.200 -26.383  0.00  0.00    +0.144 HD
ATOM     12  H   UNL     1      33.552 -13.223 -25.006  0.00  0.00    +0.144 HD
ENDROOT
BRANCH   6  13
ATOM     13  C   UNL     1      33.521 -12.558 -22.754  0.00  0.00    +0.001 C 
ATOM     14  C   UNL     1      32.335 -12.097 -22.182  0.00  0.00    +0.001 C 
ATOM     15  C   UNL     1      34.180 -11.784 -23.709  0.00  0.00    +0.001 C 
ATOM     16  C   UNL     1      32.468 -10.091 -23.520  0.00  0.00    +0.052 C 
ATOM     17  C   UNL     1      31.809 -10.863 -22.565  0.00  0.00    +0.015 C 
ATOM     18  C   UNL     1      33.654 -10.550 -24.092  0.00  0.00    +0.015 C 
BRANCH  16  20
ATOM     19  O   UNL     1      33.535  -7.331 -23.110  0.00  0.00    -0.252 OA
ATOM     20  N   UNL     1      31.942  -8.856 -23.902  0.00  0.00    -0.268 N 
ATOM     21  N   UNL     1      31.624  -6.593 -24.238  0.00  0.00    -0.268 N 
ATOM     22  C   UNL     1      32.479  -7.562 -23.689  0.00  0.00    +0.308 C 
ATOM     23  H   UNL     1      31.084  -8.888 -24.383  0.00  0.00    +0.156 HD
ATOM     24  H   UNL     1      30.809  -6.932 -24.674  0.00  0.00    +0.156 HD
BRANCH  21  26
ATOM     25  F   UNL     1      33.626  -2.628 -26.063  0.00  0.00    -0.204 F 
ATOM     26  C   UNL     1      31.790  -5.187 -24.242  0.00  0.00    +0.054 C 
ATOM     27  C   UNL     1      32.643  -4.590 -25.169  0.00  0.00    +0.044 C 
ATOM     28  C   UNL     1      31.100  -4.401 -23.319  0.00  0.00    +0.015 C 
ATOM     29  C   UNL     1      32.807  -3.204 -25.173  0.00  0.00    +0.141 C 
ATOM     30  C   UNL     1      31.265  -3.016 -23.323  0.00  0.00    +0.004 C 
ATOM     31  C   UNL     1      32.118  -2.418 -24.250  0.00  0.00    +0.030 C 
ENDBRANCH  21  26
ENDBRANCH  16  20
ENDBRANCH   6  13
BRANCH   7  34
ATOM     32  N   UNL     1      35.931 -20.139 -21.105  0.00  0.00    -0.208 N 
ATOM     33  N   UNL     1      37.218 -19.757 -21.181  0.00  0.00    -0.176 NA
ATOM     34  C   UNL     1      35.845 -18.299 -22.280  0.00  0.00    +0.039 C 
ATOM     35  C   UNL     1      35.069 -19.299 -21.746  0.00  0.00    +0.086 C 
ATOM     36  C   UNL     1      37.158 -18.634 -21.900  0.00  0.00    +0.119 C 
BRANCH  32  37
ATOM     37  C   UNL     1      35.582 -21.341 -20.388  0.00  0.00    +0.148 C 
BRANCH  37  38
ATOM     38  C   UNL     1      36.482 -21.579 -19.180  0.00  0.00    +0.161 C 
BRANCH  38  39
ATOM     39  O   UNL     1      35.824 -22.433 -18.252  0.00  0.00    -0.380 OA
ATOM     40  H   UNL     1      35.444 -23.190 -18.724  0.00  0.00    +0.211 HD
ENDBRANCH  38  39
ENDBRANCH  37  38
ENDBRANCH  32  37
ENDBRANCH   7  34
TORSDOF 7
ENDMDL
MODEL 5
REMARK VINA RESULT:     -11.2      7.213     15.595
REMARK  Name = 46207586
REMARK  7 active torsions:
REMARK  status: ('A' for Active; 'I' for Inactive)
REMARK    1  A    between atoms: C_6  and  C_13
REMARK    2  A    between atoms: C_7  and  C_34
REMARK    3  A    between atoms: C_16  and  N_20
REMARK    4  A    between atoms: N_21  and  C_26
REMARK    5  A    between atoms: N_32  and  C_37
REMARK    6  A    between atoms: C_37  and  C_38
REMARK    7  A    between atoms: C_38  and  O_39
REMARK                            x       y       z     vdW  Elec       q    Type
REMARK                         _______ _______ _______ _____ _____    ______ ____
ROOT
ATOM      1  S   UNL     1      31.174  -8.024 -22.931  0.00  0.00    -0.086 S 
ATOM      2  N   UNL     1      35.292  -7.366 -24.569  0.00  0.00    -0.230 NA
ATOM      3  N   UNL     1      35.679  -9.693 -24.409  0.00  0.00    -0.343 N 
ATOM      4  C   UNL     1      33.526  -8.756 -23.720  0.00  0.00    +0.038 C 
ATOM      5  C   UNL     1      32.724  -7.621 -23.569  0.00  0.00    +0.034 C 
ATOM      6  C   UNL     1      32.831  -9.940 -23.301  0.00  0.00    +0.010 C 
ATOM      7  C   UNL     1      33.195  -6.348 -23.914  0.00  0.00    +0.028 C 
ATOM      8  C   UNL     1      34.822  -8.588 -24.231  0.00  0.00    +0.126 C 
ATOM      9  C   UNL     1      31.556  -9.683 -22.856  0.00  0.00    +0.036 C 
ATOM     10  C   UNL     1      34.487  -6.298 -24.407  0.00  0.00    +0.101 C 
ATOM     11  H   UNL     1      36.586  -9.560 -24.768  0.00  0.00    +0.144 HD
ATOM     12  H   UNL     1      35.370 -10.598 -24.174  0.00  0.00    +0.144 HD
ENDROOT
BRANCH   6  13
ATOM     13  C   UNL     1      33.307 -11.301 -23.302  0.00  0.00    +0.001 C 
ATOM     14  C   UNL     1      33.069 -12.125 -22.202  0.00  0.00    +0.001 C 
ATOM     15  C   UNL     1      34.006 -11.794 -24.404  0.00  0.00    +0.001 C 
ATOM     16  C   UNL     1      34.228 -13.934 -23.305  0.00  0.00    +0.052 C 
ATOM     17  C   UNL     1      33.530 -13.442 -22.203  0.00  0.00    +0.015 C 
ATOM     18  C   UNL     1      34.467 -13.112 -24.406  0.00  0.00    +0.015 C 
BRANCH  16  20
ATOM     19  O   UNL     1      34.774 -15.789 -21.028  0.00  0.00    -0.252 OA
ATOM     20  N   UNL     1      34.688 -15.252 -23.307  0.00  0.00    -0.268 N 
ATOM     21  N   UNL     1      35.393 -17.352 -22.654  0.00  0.00    -0.268 N 
ATOM     22  C   UNL     1      34.937 -16.103 -22.203  0.00  0.00    +0.308 C 
ATOM     23  H   UNL     1      34.864 -15.641 -24.194  0.00  0.00    +0.156 HD
ATOM     24  H   UNL     1      35.473 -17.457 -23.629  0.00  0.00    +0.156 HD
BRANCH  21  26
ATOM     25  F   UNL     1      34.201 -21.414 -20.387  0.00  0.00    -0.204 F 
ATOM     26  C   UNL     1      35.752 -18.480 -21.878  0.00  0.00    +0.054 C 
ATOM     27  C   UNL     1      34.780 -19.409 -21.508  0.00  0.00    +0.044 C 
ATOM     28  C   UNL     1      37.078 -18.662 -21.484  0.00  0.00    +0.015 C 
ATOM     29  C   UNL     1      35.133 -20.521 -20.743  0.00  0.00    +0.141 C 
ATOM     30  C   UNL     1      37.431 -19.774 -20.719  0.00  0.00    +0.004 C 
ATOM     31  C   UNL     1      36.459 -20.703 -20.349  0.00  0.00    +0.030 C 
ENDBRANCH  21  26
ENDBRANCH  16  20
ENDBRANCH   6  13
BRANCH   7  34
ATOM     32  N   UNL     1      31.599  -3.160 -24.066  0.00  0.00    -0.208 N 
ATOM     33  N   UNL     1      30.821  -3.659 -23.089  0.00  0.00    -0.176 NA
ATOM     34  C   UNL     1      32.389  -5.175 -23.767  0.00  0.00    +0.039 C 
ATOM     35  C   UNL     1      32.554  -4.028 -24.506  0.00  0.00    +0.086 C 
ATOM     36  C   UNL     1      31.308  -4.889 -22.912  0.00  0.00    +0.119 C 
BRANCH  32  37
ATOM     37  C   UNL     1      31.375  -1.817 -24.544  0.00  0.00    +0.148 C 
BRANCH  37  38
ATOM     38  C   UNL     1      30.632  -1.791 -25.876  0.00  0.00    +0.161 C 
BRANCH  38  39
ATOM     39  O   UNL     1      29.274  -2.165 -25.674  0.00  0.00    -0.380 OA
ATOM     40  H   UNL     1      29.095  -2.230 -24.723  0.00  0.00    +0.211 HD
ENDBRANCH  38  39
ENDBRANCH  37  38
ENDBRANCH  32  37
ENDBRANCH   7  34
TORSDOF 7
ENDMDL
MODEL 6
REMARK VINA RESULT:     -10.7      6.455     14.560
REMARK  Name = 46207586
REMARK  7 active torsions:
REMARK  status: ('A' for Active; 'I' for Inactive)
REMARK    1  A    between atoms: C_6  and  C_13
REMARK    2  A    between atoms: C_7  and  C_34
REMARK    3  A    between atoms: C_16  and  N_20
REMARK    4  A    between atoms: N_21  and  C_26
REMARK    5  A    between atoms: N_32  and  C_37
REMARK    6  A    between atoms: C_37  and  C_38
REMARK    7  A    between atoms: C_38  and  O_39
REMARK                            x       y       z     vdW  Elec       q    Type
REMARK                         _______ _______ _______ _____ _____    ______ ____
ROOT
ATOM      1  S   UNL     1      34.721  -8.944 -24.873  0.00  0.00    -0.086 S 
ATOM      2  N   UNL     1      31.200  -9.776 -22.232  0.00  0.00    -0.230 NA
ATOM      3  N   UNL     1      31.856 -12.046 -22.147  0.00  0.00    -0.343 N 
ATOM      4  C   UNL     1      33.168 -10.436 -23.442  0.00  0.00    +0.038 C 
ATOM      5  C   UNL     1      33.331  -9.115 -23.868  0.00  0.00    +0.034 C 
ATOM      6  C   UNL     1      34.205 -11.280 -23.962  0.00  0.00    +0.010 C 
ATOM      7  C   UNL     1      32.433  -8.111 -23.483  0.00  0.00    +0.028 C 
ATOM      8  C   UNL     1      32.075 -10.734 -22.613  0.00  0.00    +0.126 C 
ATOM      9  C   UNL     1      35.106 -10.600 -24.747  0.00  0.00    +0.036 C 
ATOM     10  C   UNL     1      31.393  -8.516 -22.665  0.00  0.00    +0.101 C 
ATOM     11  H   UNL     1      31.084 -12.240 -21.567  0.00  0.00    +0.144 HD
ATOM     12  H   UNL     1      32.473 -12.769 -22.404  0.00  0.00    +0.144 HD
ENDROOT
BRANCH   6  13
ATOM     13  C   UNL     1      34.392 -12.695 -23.755  0.00  0.00    +0.001 C 
ATOM     14  C   UNL     1      34.192 -13.587 -24.808  0.00  0.00    +0.001 C 
ATOM     15  C   UNL     1      34.773 -13.172 -22.501  0.00  0.00    +0.001 C 
ATOM     16  C   UNL     1      34.754 -15.432 -23.353  0.00  0.00    +0.052 C 
ATOM     17  C   UNL     1      34.373 -14.956 -24.607  0.00  0.00    +0.015 C 
ATOM     18  C   UNL     1      34.954 -14.540 -22.299  0.00  0.00    +0.015 C 
BRANCH  16  20
ATOM     19  O   UNL     1      35.051 -16.986 -20.820  0.00  0.00    -0.252 OA
ATOM     20  N   UNL     1      34.936 -16.801 -23.152  0.00  0.00    -0.268 N 
ATOM     21  N   UNL     1      35.239 -18.875 -22.184  0.00  0.00    -0.268 N 
ATOM     22  C   UNL     1      35.074 -17.504 -21.931  0.00  0.00    +0.308 C 
ATOM     23  H   UNL     1      34.975 -17.351 -23.968  0.00  0.00    +0.156 HD
ATOM     24  H   UNL     1      35.236 -19.144 -23.131  0.00  0.00    +0.156 HD
BRANCH  21  26
ATOM     25  F   UNL     1      33.399 -22.315 -19.383  0.00  0.00    -0.204 F 
ATOM     26  C   UNL     1      35.409 -19.921 -21.244  0.00  0.00    +0.054 C 
ATOM     27  C   UNL     1      34.298 -20.616 -20.768  0.00  0.00    +0.044 C 
ATOM     28  C   UNL     1      36.687 -20.253 -20.795  0.00  0.00    +0.015 C 
ATOM     29  C   UNL     1      34.465 -21.646 -19.841  0.00  0.00    +0.141 C 
ATOM     30  C   UNL     1      36.854 -21.282 -19.868  0.00  0.00    +0.004 C 
ATOM     31  C   UNL     1      35.743 -21.979 -19.392  0.00  0.00    +0.030 C 
ENDBRANCH  21  26
ENDBRANCH  16  20
ENDBRANCH   6  13
BRANCH   7  34
ATOM     32  N   UNL     1      32.118  -4.675 -24.392  0.00  0.00    -0.208 N 
ATOM     33  N   UNL     1      33.427  -4.774 -24.679  0.00  0.00    -0.176 NA
ATOM     34  C   UNL     1      32.586  -6.753 -23.909  0.00  0.00    +0.039 C 
ATOM     35  C   UNL     1      31.566  -5.833 -23.928  0.00  0.00    +0.086 C 
ATOM     36  C   UNL     1      33.707  -6.046 -24.381  0.00  0.00    +0.119 C 
BRANCH  32  37
ATOM     37  C   UNL     1      31.435  -3.419 -24.588  0.00  0.00    +0.148 C 
BRANCH  37  38
ATOM     38  C   UNL     1      31.548  -2.500 -23.376  0.00  0.00    +0.161 C 
BRANCH  38  39
ATOM     39  O   UNL     1      30.440  -2.711 -22.510  0.00  0.00    -0.380 OA
ATOM     40  H   UNL     1      30.279  -3.663 -22.417  0.00  0.00    +0.211 HD
ENDBRANCH  38  39
ENDBRANCH  37  38
ENDBRANCH  32  37
ENDBRANCH   7  34
TORSDOF 7
ENDMDL
MODEL 7
REMARK VINA RESULT:     -10.6      7.314     15.063
REMARK  Name = 46207586
REMARK  7 active torsions:
REMARK  status: ('A' for Active; 'I' for Inactive)
REMARK    1  A    between atoms: C_6  and  C_13
REMARK    2  A    between atoms: C_7  and  C_34
REMARK    3  A    between atoms: C_16  and  N_20
REMARK    4  A    between atoms: N_21  and  C_26
REMARK    5  A    between atoms: N_32  and  C_37
REMARK    6  A    between atoms: C_37  and  C_38
REMARK    7  A    between atoms: C_38  and  O_39
REMARK                            x       y       z     vdW  Elec       q    Type
REMARK                         _______ _______ _______ _____ _____    ______ ____
ROOT
ATOM      1  S   UNL     1      32.184  -7.781 -24.339  0.00  0.00    -0.086 S 
ATOM      2  N   UNL     1      32.233  -8.472 -19.913  0.00  0.00    -0.230 NA
ATOM      3  N   UNL     1      32.914 -10.700 -20.313  0.00  0.00    -0.343 N 
ATOM      4  C   UNL     1      32.525  -9.180 -22.190  0.00  0.00    +0.038 C 
ATOM      5  C   UNL     1      32.159  -7.900 -22.619  0.00  0.00    +0.034 C 
ATOM      6  C   UNL     1      32.820 -10.035 -23.305  0.00  0.00    +0.010 C 
ATOM      7  C   UNL     1      31.826  -6.894 -21.703  0.00  0.00    +0.028 C 
ATOM      8  C   UNL     1      32.552  -9.433 -20.811  0.00  0.00    +0.126 C 
ATOM      9  C   UNL     1      32.675  -9.403 -24.517  0.00  0.00    +0.036 C 
ATOM     10  C   UNL     1      31.886  -7.253 -20.369  0.00  0.00    +0.101 C 
ATOM     11  H   UNL     1      32.928 -10.864 -19.342  0.00  0.00    +0.144 HD
ATOM     12  H   UNL     1      33.153 -11.424 -20.937  0.00  0.00    +0.144 HD
ENDROOT
BRANCH   6  13
ATOM     13  C   UNL     1      33.232 -11.416 -23.284  0.00  0.00    +0.001 C 
ATOM     14  C   UNL     1      32.558 -12.335 -22.479  0.00  0.00    +0.001 C 
ATOM     15  C   UNL     1      34.306 -11.835 -24.070  0.00  0.00    +0.001 C 
ATOM     16  C   UNL     1      34.031 -14.089 -23.246  0.00  0.00    +0.052 C 
ATOM     17  C   UNL     1      32.957 -13.672 -22.460  0.00  0.00    +0.015 C 
ATOM     18  C   UNL     1      34.706 -13.172 -24.051  0.00  0.00    +0.015 C 
BRANCH  16  20
ATOM     19  O   UNL     1      34.899 -15.811 -20.965  0.00  0.00    -0.252 OA
ATOM     20  N   UNL     1      34.430 -15.426 -23.228  0.00  0.00    -0.268 N 
ATOM     21  N   UNL     1      35.155 -17.511 -22.549  0.00  0.00    -0.268 N 
ATOM     22  C   UNL     1      34.837 -16.213 -22.122  0.00  0.00    +0.308 C 
ATOM     23  H   UNL     1      34.429 -15.884 -24.100  0.00  0.00    +0.156 HD
ATOM     24  H   UNL     1      35.055 -17.686 -23.513  0.00  0.00    +0.156 HD
BRANCH  21  26
ATOM     25  F   UNL     1      34.263 -21.584 -20.167  0.00  0.00    -0.204 F 
ATOM     26  C   UNL     1      35.601 -18.602 -21.765  0.00  0.00    +0.054 C 
ATOM     27  C   UNL     1      34.694 -19.575 -21.345  0.00  0.00    +0.044 C 
ATOM     28  C   UNL     1      36.946 -18.703 -21.411  0.00  0.00    +0.015 C 
ATOM     29  C   UNL     1      35.133 -20.649 -20.570  0.00  0.00    +0.141 C 
ATOM     30  C   UNL     1      37.385 -19.777 -20.637  0.00  0.00    +0.004 C 
ATOM     31  C   UNL     1      36.478 -20.750 -20.217  0.00  0.00    +0.030 C 
ENDBRANCH  21  26
ENDBRANCH  16  20
ENDBRANCH   6  13
BRANCH   7  34
ATOM     32  N   UNL     1      31.518  -3.621 -23.090  0.00  0.00    -0.208 N 
ATOM     33  N   UNL     1      30.334  -3.614 -22.453  0.00  0.00    -0.176 NA
ATOM     34  C   UNL     1      31.450  -5.579 -22.124  0.00  0.00    +0.039 C 
ATOM     35  C   UNL     1      32.225  -4.775 -22.924  0.00  0.00    +0.086 C 
ATOM     36  C   UNL     1      30.299  -4.813 -21.866  0.00  0.00    +0.119 C 
BRANCH  32  37
ATOM     37  C   UNL     1      31.926  -2.468 -23.856  0.00  0.00    +0.148 C 
BRANCH  37  38
ATOM     38  C   UNL     1      31.266  -2.421 -25.230  0.00  0.00    +0.161 C 
BRANCH  38  39
ATOM     39  O   UNL     1      29.879  -2.142 -25.086  0.00  0.00    -0.380 OA
ATOM     40  H   UNL     1      29.765  -1.257 -24.705  0.00  0.00    +0.211 HD
ENDBRANCH  38  39
ENDBRANCH  37  38
ENDBRANCH  32  37
ENDBRANCH   7  34
TORSDOF 7
ENDMDL
MODEL 8
REMARK VINA RESULT:     -10.2      4.331     12.524
REMARK  Name = 46207586
REMARK  7 active torsions:
REMARK  status: ('A' for Active; 'I' for Inactive)
REMARK    1  A    between atoms: C_6  and  C_13
REMARK    2  A    between atoms: C_7  and  C_34
REMARK    3  A    between atoms: C_16  and  N_20
REMARK    4  A    between atoms: N_21  and  C_26
REMARK    5  A    between atoms: N_32  and  C_37
REMARK    6  A    between atoms: C_37  and  C_38
REMARK    7  A    between atoms: C_38  and  O_39
REMARK                            x       y       z     vdW  Elec       q    Type
REMARK                         _______ _______ _______ _____ _____    ______ ____
ROOT
ATOM      1  S   UNL     1      35.024 -15.256 -22.785  0.00  0.00    -0.086 S 
ATOM      2  N   UNL     1      34.501 -18.612 -25.706  0.00  0.00    -0.230 NA
ATOM      3  N   UNL     1      35.119 -20.131 -24.003  0.00  0.00    -0.343 N 
ATOM      4  C   UNL     1      35.036 -17.730 -23.536  0.00  0.00    +0.038 C 
ATOM      5  C   UNL     1      34.783 -16.441 -24.013  0.00  0.00    +0.034 C 
ATOM      6  C   UNL     1      35.425 -17.704 -22.154  0.00  0.00    +0.010 C 
ATOM      7  C   UNL     1      34.388 -16.221 -25.339  0.00  0.00    +0.028 C 
ATOM      8  C   UNL     1      34.882 -18.806 -24.422  0.00  0.00    +0.126 C 
ATOM      9  C   UNL     1      35.457 -16.433 -21.631  0.00  0.00    +0.036 C 
ATOM     10  C   UNL     1      34.268 -17.353 -26.125  0.00  0.00    +0.101 C 
ATOM     11  H   UNL     1      35.008 -20.876 -24.637  0.00  0.00    +0.144 HD
ATOM     12  H   UNL     1      35.398 -20.311 -23.076  0.00  0.00    +0.144 HD
ENDROOT
BRANCH   6  13
ATOM     13  C   UNL     1      35.767 -18.816 -21.303  0.00  0.00    +0.001 C 
ATOM     14  C   UNL     1      37.074 -18.969 -20.843  0.00  0.00    +0.001 C 
ATOM     15  C   UNL     1      34.787 -19.740 -20.937  0.00  0.00    +0.001 C 
ATOM     16  C   UNL     1      36.424 -20.969 -19.654  0.00  0.00    +0.052 C 
ATOM     17  C   UNL     1      37.404 -20.045 -20.019  0.00  0.00    +0.015 C 
ATOM     18  C   UNL     1      35.116 -20.817 -20.113  0.00  0.00    +0.015 C 
BRANCH  16  20
ATOM     19  O   UNL     1      37.085 -21.033 -16.742  0.00  0.00    -0.252 OA
ATOM     20  N   UNL     1      36.753 -22.044 -18.828  0.00  0.00    -0.268 N 
ATOM     21  N   UNL     1      37.335 -23.342 -17.009  0.00  0.00    -0.268 N 
ATOM     22  C   UNL     1      37.062 -22.036 -17.446  0.00  0.00    +0.308 C 
ATOM     23  H   UNL     1      36.774 -22.927 -19.265  0.00  0.00    +0.156 HD
ATOM     24  H   UNL     1      37.276 -24.048 -17.692  0.00  0.00    +0.156 HD
BRANCH  21  26
ATOM     25  F   UNL     1      40.346 -25.582 -14.013  0.00  0.00    -0.204 F 
ATOM     26  C   UNL     1      37.684 -23.769 -15.705  0.00  0.00    +0.054 C 
ATOM     27  C   UNL     1      38.866 -24.478 -15.498  0.00  0.00    +0.044 C 
ATOM     28  C   UNL     1      36.845 -23.481 -14.629  0.00  0.00    +0.015 C 
ATOM     29  C   UNL     1      39.210 -24.901 -14.213  0.00  0.00    +0.141 C 
ATOM     30  C   UNL     1      37.188 -23.903 -13.345  0.00  0.00    +0.004 C 
ATOM     31  C   UNL     1      38.371 -24.613 -13.137  0.00  0.00    +0.030 C 
ENDBRANCH  21  26
ENDBRANCH  16  20
ENDBRANCH   6  13
BRANCH   7  34
ATOM     32  N   UNL     1      33.867 -12.741 -25.931  0.00  0.00    -0.208 N 
ATOM     33  N   UNL     1      33.610 -13.136 -27.190  0.00  0.00    -0.176 NA
ATOM     34  C   UNL     1      34.124 -14.909 -25.844  0.00  0.00    +0.039 C 
ATOM     35  C   UNL     1      34.179 -13.765 -25.086  0.00  0.00    +0.086 C 
ATOM     36  C   UNL     1      33.769 -14.461 -27.130  0.00  0.00    +0.119 C 
BRANCH  32  37
ATOM     37  C   UNL     1      33.794 -11.341 -25.590  0.00  0.00    +0.148 C 
BRANCH  37  38
ATOM     38  C   UNL     1      34.386 -11.046 -24.217  0.00  0.00    +0.161 C 
BRANCH  38  39
ATOM     39  O   UNL     1      35.502 -10.174 -24.353  0.00  0.00    -0.380 OA
ATOM     40  H   UNL     1      35.333  -9.354 -23.864  0.00  0.00    +0.211 HD
ENDBRANCH  38  39
ENDBRANCH  37  38
ENDBRANCH  32  37
ENDBRANCH   7  34
TORSDOF 7
ENDMDL
MODEL 9
REMARK VINA RESULT:      -9.9      6.146     11.155
REMARK  Name = 46207586
REMARK  7 active torsions:
REMARK  status: ('A' for Active; 'I' for Inactive)
REMARK    1  A    between atoms: C_6  and  C_13
REMARK    2  A    between atoms: C_7  and  C_34
REMARK    3  A    between atoms: C_16  and  N_20
REMARK    4  A    between atoms: N_21  and  C_26
REMARK    5  A    between atoms: N_32  and  C_37
REMARK    6  A    between atoms: C_37  and  C_38
REMARK    7  A    between atoms: C_38  and  O_39
REMARK                            x       y       z     vdW  Elec       q    Type
REMARK                         _______ _______ _______ _____ _____    ______ ____
ROOT
ATOM      1  S   UNL     1      34.584 -15.048 -22.249  0.00  0.00    -0.086 S 
ATOM      2  N   UNL     1      33.977 -14.499 -26.653  0.00  0.00    -0.230 NA
ATOM      3  N   UNL     1      33.599 -12.197 -26.269  0.00  0.00    -0.343 N 
ATOM      4  C   UNL     1      34.087 -13.690 -24.393  0.00  0.00    +0.038 C 
ATOM      5  C   UNL     1      34.377 -14.987 -23.959  0.00  0.00    +0.034 C 
ATOM      6  C   UNL     1      34.044 -12.772 -23.291  0.00  0.00    +0.010 C 
ATOM      7  C   UNL     1      34.469 -16.053 -24.864  0.00  0.00    +0.028 C 
ATOM      8  C   UNL     1      33.891 -13.481 -25.767  0.00  0.00    +0.126 C 
ATOM      9  C   UNL     1      34.295 -13.376 -22.082  0.00  0.00    +0.036 C 
ATOM     10  C   UNL     1      34.258 -15.733 -26.193  0.00  0.00    +0.101 C 
ATOM     11  H   UNL     1      33.463 -12.065 -27.236  0.00  0.00    +0.144 HD
ATOM     12  H   UNL     1      33.529 -11.432 -25.654  0.00  0.00    +0.144 HD
ENDROOT
BRANCH   6  13
ATOM     13  C   UNL     1      33.780 -11.355 -23.320  0.00  0.00    +0.001 C 
ATOM     14  C   UNL     1      34.669 -10.492 -23.960  0.00  0.00    +0.001 C 
ATOM     15  C   UNL     1      32.634 -10.847 -22.708  0.00  0.00    +0.001 C 
ATOM     16  C   UNL     1      33.268  -8.613 -23.377  0.00  0.00    +0.052 C 
ATOM     17  C   UNL     1      34.414  -9.121 -23.989  0.00  0.00    +0.015 C 
ATOM     18  C   UNL     1      32.378  -9.475 -22.737  0.00  0.00    +0.015 C 
BRANCH  16  20
ATOM     19  O   UNL     1      32.426  -6.857 -25.641  0.00  0.00    -0.252 OA
ATOM     20  N   UNL     1      33.011  -7.242 -23.406  0.00  0.00    -0.268 N 
ATOM     21  N   UNL     1      32.463  -5.106 -24.093  0.00  0.00    -0.268 N 
ATOM     22  C   UNL     1      32.612  -6.440 -24.503  0.00  0.00    +0.308 C 
ATOM     23  H   UNL     1      33.122  -6.769 -22.549  0.00  0.00    +0.156 HD
ATOM     24  H   UNL     1      32.648  -4.923 -23.143  0.00  0.00    +0.156 HD
BRANCH  21  26
ATOM     25  F   UNL     1      32.951  -2.399 -28.029  0.00  0.00    -0.204 F 
ATOM     26  C   UNL     1      32.079  -3.991 -24.876  0.00  0.00    +0.054 C 
ATOM     27  C   UNL     1      32.717  -3.741 -26.090  0.00  0.00    +0.044 C 
ATOM     28  C   UNL     1      31.065  -3.143 -24.432  0.00  0.00    +0.015 C 
ATOM     29  C   UNL     1      32.340  -2.641 -26.862  0.00  0.00    +0.141 C 
ATOM     30  C   UNL     1      30.688  -2.044 -25.203  0.00  0.00    +0.004 C 
ATOM     31  C   UNL     1      31.325  -1.793 -26.418  0.00  0.00    +0.030 C 
ENDBRANCH  21  26
ENDBRANCH  16  20
ENDBRANCH   6  13
BRANCH   7  34
ATOM     32  N   UNL     1      35.575 -19.054 -23.281  0.00  0.00    -0.208 N 
ATOM     33  N   UNL     1      34.883 -19.660 -24.261  0.00  0.00    -0.176 NA
ATOM     34  C   UNL     1      34.766 -17.386 -24.437  0.00  0.00    +0.039 C 
ATOM     35  C   UNL     1      35.537 -17.692 -23.342  0.00  0.00    +0.086 C 
ATOM     36  C   UNL     1      34.391 -18.637 -24.963  0.00  0.00    +0.119 C 
BRANCH  32  37
ATOM     37  C   UNL     1      36.268 -19.848 -22.296  0.00  0.00    +0.148 C 
BRANCH  37  38
ATOM     38  C   UNL     1      35.414 -20.115 -21.060  0.00  0.00    +0.161 C 
BRANCH  38  39
ATOM     39  O   UNL     1      34.042 -20.169 -21.428  0.00  0.00    -0.380 OA
ATOM     40  H   UNL     1      33.582 -19.389 -21.078  0.00  0.00    +0.211 HD
ENDBRANCH  38  39
ENDBRANCH  37  38
ENDBRANCH  32  37
ENDBRANCH   7  34
TORSDOF 7
ENDMDL
