MODEL 1
REMARK VINA RESULT:     -11.5      0.000      0.000
REMARK  Name = 4470378
REMARK  6 active torsions:
REMARK  status: ('A' for Active; 'I' for Inactive)
REMARK    1  A    between atoms: C_5  and  O_10
REMARK    2  A    between atoms: C_6  and  O_24
REMARK    3  A    between atoms: O_10  and  C_11
REMARK    4  A    between atoms: C_12  and  C_19
REMARK    5  A    between atoms: O_24  and  C_25
REMARK    6  A    between atoms: C_26  and  C_33
REMARK                            x       y       z     vdW  Elec       q    Type
REMARK                         _______ _______ _______ _____ _____    ______ ____
ROOT
ATOM      1  F   UNL     1      32.418 -23.610 -18.034  0.00  0.00    -0.221 F 
ATOM      2  F   UNL     1      34.241 -23.126 -13.671  0.00  0.00    -0.199 F 
ATOM      3  N   UNL     1      35.811 -22.943 -16.937  0.00  0.00    -0.331 NA
ATOM      4  C   UNL     1      33.280 -23.377 -15.831  0.00  0.00    +0.031 C 
ATOM      5  C   UNL     1      34.725 -23.170 -17.709  0.00  0.00    +0.298 C 
ATOM      6  C   UNL     1      35.595 -22.939 -15.609  0.00  0.00    +0.312 C 
ATOM      7  C   UNL     1      33.451 -23.390 -17.211  0.00  0.00    +0.270 C 
ATOM      8  C   UNL     1      34.374 -23.146 -15.003  0.00  0.00    +0.201 C 
ATOM      9  C   UNL     1      31.931 -23.609 -15.241  0.00  0.00    +0.032 C 
ENDROOT
BRANCH   5  10
ATOM     10  O   UNL     1      34.919 -23.180 -19.065  0.00  0.00    -0.428 OA
BRANCH  10  11
ATOM     11  C   UNL     1      34.687 -22.003 -19.748  0.00  0.00    +0.148 C 
ATOM     12  C   UNL     1      35.528 -20.064 -20.884  0.00  0.00    +0.032 C 
ATOM     13  C   UNL     1      35.764 -21.254 -20.194  0.00  0.00    +0.040 C 
ATOM     14  C   UNL     1      33.382 -21.597 -19.974  0.00  0.00    +0.038 C 
ATOM     15  C   UNL     1      34.220 -19.641 -21.118  0.00  0.00    +0.003 C 
ATOM     16  C   UNL     1      33.147 -20.407 -20.663  0.00  0.00    +0.003 C 
BRANCH  12  19
ATOM     17  N   UNL     1      37.655 -18.960 -20.530  0.00  0.00    -0.387 N 
ATOM     18  N   UNL     1      36.673 -18.829 -22.624  0.00  0.00    -0.345 N 
ATOM     19  C   UNL     1      36.640 -19.270 -21.355  0.00  0.00    +0.096 C 
ATOM     20  H   UNL     1      38.408 -18.419 -20.858  0.00  0.00    +0.157 HD
ATOM     21  H   UNL     1      37.645 -19.275 -19.597  0.00  0.00    +0.157 HD
ATOM     22  H   UNL     1      37.434 -18.287 -22.937  0.00  0.00    +0.144 HD
ATOM     23  H   UNL     1      35.936 -19.046 -23.240  0.00  0.00    +0.144 HD
ENDBRANCH  12  19
ENDBRANCH  10  11
ENDBRANCH   5  10
BRANCH   6  24
ATOM     24  O   UNL     1      36.701 -22.709 -14.808  0.00  0.00    -0.426 OA
BRANCH  24  25
ATOM     25  C   UNL     1      37.318 -23.789 -14.258  0.00  0.00    +0.148 C 
ATOM     26  C   UNL     1      39.059 -25.464 -14.325  0.00  0.00    +0.034 C 
ATOM     27  C   UNL     1      38.426 -24.356 -14.889  0.00  0.00    +0.040 C 
ATOM     28  C   UNL     1      36.843 -24.332 -13.064  0.00  0.00    +0.038 C 
ATOM     29  C   UNL     1      38.584 -26.007 -13.132  0.00  0.00    +0.003 C 
ATOM     30  C   UNL     1      37.476 -25.440 -12.500  0.00  0.00    +0.003 C 
BRANCH  26  33
ATOM     31  N   UNL     1      41.125 -26.840 -14.280  0.00  0.00    -0.343 N 
ATOM     32  N   UNL     1      40.416 -25.846 -16.272  0.00  0.00    -0.285 NA
ATOM     33  C   UNL     1      40.214 -26.055 -14.984  0.00  0.00    +0.117 C 
ATOM     34  H   UNL     1      41.900 -27.230 -14.745  0.00  0.00    +0.144 HD
ATOM     35  H   UNL     1      40.994 -27.005 -13.318  0.00  0.00    +0.144 HD
ATOM     36  H   UNL     1      41.197 -26.245 -16.719  0.00  0.00    +0.188 HD
ENDBRANCH  26  33
ENDBRANCH  24  25
ENDBRANCH   6  24
TORSDOF 6
ENDMDL
MODEL 2
REMARK VINA RESULT:     -11.3      9.269     12.878
REMARK  Name = 4470378
REMARK  6 active torsions:
REMARK  status: ('A' for Active; 'I' for Inactive)
REMARK    1  A    between atoms: C_5  and  O_10
REMARK    2  A    between atoms: C_6  and  O_24
REMARK    3  A    between atoms: O_10  and  C_11
REMARK    4  A    between atoms: C_12  and  C_19
REMARK    5  A    between atoms: O_24  and  C_25
REMARK    6  A    between atoms: C_26  and  C_33
REMARK                            x       y       z     vdW  Elec       q    Type
REMARK                         _______ _______ _______ _____ _____    ______ ____
ROOT
ATOM      1  F   UNL     1      30.837 -12.056 -20.266  0.00  0.00    -0.221 F 
ATOM      2  F   UNL     1      34.357 -15.142 -21.092  0.00  0.00    -0.199 F 
ATOM      3  N   UNL     1      33.240 -12.250 -22.977  0.00  0.00    -0.331 NA
ATOM      4  C   UNL     1      32.584 -13.626 -20.634  0.00  0.00    +0.031 C 
ATOM      5  C   UNL     1      32.222 -11.855 -22.179  0.00  0.00    +0.298 C 
ATOM      6  C   UNL     1      33.912 -13.342 -22.571  0.00  0.00    +0.312 C 
ATOM      7  C   UNL     1      31.858 -12.501 -21.009  0.00  0.00    +0.270 C 
ATOM      8  C   UNL     1      33.639 -14.063 -21.429  0.00  0.00    +0.201 C 
ATOM      9  C   UNL     1      32.234 -14.361 -19.385  0.00  0.00    +0.032 C 
ENDROOT
BRANCH   5  10
ATOM     10  O   UNL     1      31.522 -10.745 -22.572  0.00  0.00    -0.428 OA
BRANCH  10  11
ATOM     11  C   UNL     1      32.061  -9.513 -22.266  0.00  0.00    +0.148 C 
ATOM     12  C   UNL     1      32.954  -7.404 -22.984  0.00  0.00    +0.032 C 
ATOM     13  C   UNL     1      32.407  -8.650 -23.294  0.00  0.00    +0.040 C 
ATOM     14  C   UNL     1      32.246  -9.164 -20.938  0.00  0.00    +0.038 C 
ATOM     15  C   UNL     1      33.145  -7.038 -21.652  0.00  0.00    +0.003 C 
ATOM     16  C   UNL     1      32.792  -7.918 -20.628  0.00  0.00    +0.003 C 
BRANCH  12  19
ATOM     17  N   UNL     1      32.373  -5.890 -24.783  0.00  0.00    -0.387 N 
ATOM     18  N   UNL     1      34.613  -6.236 -24.305  0.00  0.00    -0.345 N 
ATOM     19  C   UNL     1      33.320  -6.492 -24.044  0.00  0.00    +0.096 C 
ATOM     20  H   UNL     1      32.631  -5.271 -25.504  0.00  0.00    +0.157 HD
ATOM     21  H   UNL     1      31.421  -6.069 -24.605  0.00  0.00    +0.157 HD
ATOM     22  H   UNL     1      34.855  -5.614 -25.030  0.00  0.00    +0.144 HD
ATOM     23  H   UNL     1      35.319  -6.670 -23.773  0.00  0.00    +0.144 HD
ENDBRANCH  12  19
ENDBRANCH  10  11
ENDBRANCH   5  10
BRANCH   6  24
ATOM     24  O   UNL     1      34.956 -13.757 -23.381  0.00  0.00    -0.426 OA
BRANCH  24  25
ATOM     25  C   UNL     1      34.804 -14.928 -24.057  0.00  0.00    +0.148 C 
ATOM     26  C   UNL     1      35.226 -17.299 -24.257  0.00  0.00    +0.034 C 
ATOM     27  C   UNL     1      35.381 -16.099 -23.563  0.00  0.00    +0.040 C 
ATOM     28  C   UNL     1      34.074 -14.958 -25.245  0.00  0.00    +0.038 C 
ATOM     29  C   UNL     1      34.496 -17.329 -25.445  0.00  0.00    +0.003 C 
ATOM     30  C   UNL     1      33.920 -16.159 -25.939  0.00  0.00    +0.003 C 
BRANCH  26  33
ATOM     31  N   UNL     1      37.066 -18.502 -23.102  0.00  0.00    -0.343 N 
ATOM     32  N   UNL     1      35.200 -19.673 -23.882  0.00  0.00    -0.285 NA
ATOM     33  C   UNL     1      35.828 -18.519 -23.742  0.00  0.00    +0.117 C 
ATOM     34  H   UNL     1      37.455 -19.340 -22.761  0.00  0.00    +0.144 HD
ATOM     35  H   UNL     1      37.551 -17.653 -22.990  0.00  0.00    +0.144 HD
ATOM     36  H   UNL     1      35.605 -20.499 -23.534  0.00  0.00    +0.188 HD
ENDBRANCH  26  33
ENDBRANCH  24  25
ENDBRANCH   6  24
TORSDOF 6
ENDMDL
MODEL 3
REMARK VINA RESULT:     -11.3      9.293     14.055
REMARK  Name = 4470378
REMARK  6 active torsions:
REMARK  status: ('A' for Active; 'I' for Inactive)
REMARK    1  A    between atoms: C_5  and  O_10
REMARK    2  A    between atoms: C_6  and  O_24
REMARK    3  A    between atoms: O_10  and  C_11
REMARK    4  A    between atoms: C_12  and  C_19
REMARK    5  A    between atoms: O_24  and  C_25
REMARK    6  A    between atoms: C_26  and  C_33
REMARK                            x       y       z     vdW  Elec       q    Type
REMARK                         _______ _______ _______ _____ _____    ______ ____
ROOT
ATOM      1  F   UNL     1      34.342 -15.129 -21.084  0.00  0.00    -0.221 F 
ATOM      2  F   UNL     1      30.831 -12.018 -20.319  0.00  0.00    -0.199 F 
ATOM      3  N   UNL     1      33.260 -12.247 -23.005  0.00  0.00    -0.331 NA
ATOM      4  C   UNL     1      32.574 -13.599 -20.656  0.00  0.00    +0.031 C 
ATOM      5  C   UNL     1      33.933 -13.344 -22.590  0.00  0.00    +0.298 C 
ATOM      6  C   UNL     1      32.245 -11.851 -22.216  0.00  0.00    +0.312 C 
ATOM      7  C   UNL     1      33.633 -14.049 -21.436  0.00  0.00    +0.270 C 
ATOM      8  C   UNL     1      31.857 -12.474 -21.049  0.00  0.00    +0.201 C 
ATOM      9  C   UNL     1      32.208 -14.319 -19.403  0.00  0.00    +0.032 C 
ENDROOT
BRANCH   5  10
ATOM     10  O   UNL     1      34.973 -13.767 -23.376  0.00  0.00    -0.428 OA
BRANCH  10  11
ATOM     11  C   UNL     1      34.808 -14.950 -24.066  0.00  0.00    +0.148 C 
ATOM     12  C   UNL     1      35.223 -17.304 -24.275  0.00  0.00    +0.032 C 
ATOM     13  C   UNL     1      35.390 -16.108 -23.576  0.00  0.00    +0.040 C 
ATOM     14  C   UNL     1      34.064 -14.955 -25.234  0.00  0.00    +0.038 C 
ATOM     15  C   UNL     1      34.477 -17.325 -25.453  0.00  0.00    +0.003 C 
ATOM     16  C   UNL     1      33.897 -16.150 -25.933  0.00  0.00    +0.003 C 
BRANCH  12  19
ATOM     17  N   UNL     1      35.205 -19.703 -23.942  0.00  0.00    -0.387 N 
ATOM     18  N   UNL     1      37.008 -18.487 -23.143  0.00  0.00    -0.345 N 
ATOM     19  C   UNL     1      35.824 -18.521 -23.778  0.00  0.00    +0.096 C 
ATOM     20  H   UNL     1      35.620 -20.528 -23.600  0.00  0.00    +0.157 HD
ATOM     21  H   UNL     1      34.336 -19.744 -24.404  0.00  0.00    +0.157 HD
ATOM     22  H   UNL     1      37.410 -19.321 -22.806  0.00  0.00    +0.144 HD
ATOM     23  H   UNL     1      37.473 -17.629 -23.014  0.00  0.00    +0.144 HD
ENDBRANCH  12  19
ENDBRANCH  10  11
ENDBRANCH   5  10
BRANCH   6  24
ATOM     24  O   UNL     1      31.549 -10.728 -22.629  0.00  0.00    -0.426 OA
BRANCH  24  25
ATOM     25  C   UNL     1      32.082  -9.511 -22.337  0.00  0.00    +0.148 C 
ATOM     26  C   UNL     1      32.973  -7.386 -23.066  0.00  0.00    +0.034 C 
ATOM     27  C   UNL     1      32.425  -8.633 -23.366  0.00  0.00    +0.040 C 
ATOM     28  C   UNL     1      32.289  -9.141 -21.008  0.00  0.00    +0.038 C 
ATOM     29  C   UNL     1      33.180  -7.016 -21.737  0.00  0.00    +0.003 C 
ATOM     30  C   UNL     1      32.837  -7.894 -20.708  0.00  0.00    +0.003 C 
BRANCH  26  33
ATOM     31  N   UNL     1      34.656  -6.119 -24.379  0.00  0.00    -0.343 N 
ATOM     32  N   UNL     1      32.385  -5.954 -24.905  0.00  0.00    -0.285 NA
ATOM     33  C   UNL     1      33.329  -6.471 -24.139  0.00  0.00    +0.117 C 
ATOM     34  H   UNL     1      34.876  -5.498 -25.111  0.00  0.00    +0.144 HD
ATOM     35  H   UNL     1      35.375  -6.491 -23.818  0.00  0.00    +0.144 HD
ATOM     36  H   UNL     1      32.625  -5.335 -25.631  0.00  0.00    +0.188 HD
ENDBRANCH  26  33
ENDBRANCH  24  25
ENDBRANCH   6  24
TORSDOF 6
ENDMDL
MODEL 4
REMARK VINA RESULT:     -11.3      1.616      2.243
REMARK  Name = 4470378
REMARK  6 active torsions:
REMARK  status: ('A' for Active; 'I' for Inactive)
REMARK    1  A    between atoms: C_5  and  O_10
REMARK    2  A    between atoms: C_6  and  O_24
REMARK    3  A    between atoms: O_10  and  C_11
REMARK    4  A    between atoms: C_12  and  C_19
REMARK    5  A    between atoms: O_24  and  C_25
REMARK    6  A    between atoms: C_26  and  C_33
REMARK                            x       y       z     vdW  Elec       q    Type
REMARK                         _______ _______ _______ _____ _____    ______ ____
ROOT
ATOM      1  F   UNL     1      30.910 -22.077 -17.431  0.00  0.00    -0.221 F 
ATOM      2  F   UNL     1      32.822 -24.374 -13.735  0.00  0.00    -0.199 F 
ATOM      3  N   UNL     1      34.001 -23.954 -17.140  0.00  0.00    -0.331 NA
ATOM      4  C   UNL     1      31.824 -23.211 -15.552  0.00  0.00    +0.031 C 
ATOM      5  C   UNL     1      32.984 -23.209 -17.628  0.00  0.00    +0.298 C 
ATOM      6  C   UNL     1      33.897 -24.312 -15.847  0.00  0.00    +0.312 C 
ATOM      7  C   UNL     1      31.884 -22.815 -16.883  0.00  0.00    +0.270 C 
ATOM      8  C   UNL     1      32.851 -23.979 -15.013  0.00  0.00    +0.201 C 
ATOM      9  C   UNL     1      30.662 -22.817 -14.705  0.00  0.00    +0.032 C 
ENDROOT
BRANCH   5  10
ATOM     10  O   UNL     1      33.066 -22.832 -18.942  0.00  0.00    -0.428 OA
BRANCH  10  11
ATOM     11  C   UNL     1      34.183 -22.120 -19.330  0.00  0.00    +0.148 C 
ATOM     12  C   UNL     1      35.186 -20.413 -20.686  0.00  0.00    +0.032 C 
ATOM     13  C   UNL     1      34.056 -21.133 -20.294  0.00  0.00    +0.040 C 
ATOM     14  C   UNL     1      35.406 -22.407 -18.747  0.00  0.00    +0.038 C 
ATOM     15  C   UNL     1      36.425 -20.690 -20.108  0.00  0.00    +0.003 C 
ATOM     16  C   UNL     1      36.535 -21.688 -19.139  0.00  0.00    +0.003 C 
BRANCH  12  19
ATOM     17  N   UNL     1      34.631 -19.676 -22.926  0.00  0.00    -0.387 N 
ATOM     18  N   UNL     1      35.408 -18.111 -21.405  0.00  0.00    -0.345 N 
ATOM     19  C   UNL     1      35.072 -19.380 -21.691  0.00  0.00    +0.096 C 
ATOM     20  H   UNL     1      34.557 -18.967 -23.604  0.00  0.00    +0.157 HD
ATOM     21  H   UNL     1      34.382 -20.602 -23.151  0.00  0.00    +0.157 HD
ATOM     22  H   UNL     1      35.329 -17.413 -22.095  0.00  0.00    +0.144 HD
ATOM     23  H   UNL     1      35.734 -17.879 -20.505  0.00  0.00    +0.144 HD
ENDBRANCH  12  19
ENDBRANCH  10  11
ENDBRANCH   5  10
BRANCH   6  24
ATOM     24  O   UNL     1      34.932 -25.077 -15.337  0.00  0.00    -0.426 OA
BRANCH  24  25
ATOM     25  C   UNL     1      36.191 -24.567 -15.413  0.00  0.00    +0.148 C 
ATOM     26  C   UNL     1      38.585 -24.879 -15.300  0.00  0.00    +0.034 C 
ATOM     27  C   UNL     1      37.294 -25.401 -15.224  0.00  0.00    +0.040 C 
ATOM     28  C   UNL     1      36.380 -23.211 -15.677  0.00  0.00    +0.038 C 
ATOM     29  C   UNL     1      38.774 -23.522 -15.564  0.00  0.00    +0.003 C 
ATOM     30  C   UNL     1      37.671 -22.688 -15.753  0.00  0.00    +0.003 C 
BRANCH  26  33
ATOM     31  N   UNL     1      40.001 -26.326 -13.863  0.00  0.00    -0.343 N 
ATOM     32  N   UNL     1      40.552 -25.997 -16.110  0.00  0.00    -0.285 NA
ATOM     33  C   UNL     1      39.734 -25.748 -15.103  0.00  0.00    +0.117 C 
ATOM     34  H   UNL     1      40.784 -26.911 -13.751  0.00  0.00    +0.144 HD
ATOM     35  H   UNL     1      39.405 -26.150 -13.098  0.00  0.00    +0.144 HD
ATOM     36  H   UNL     1      41.330 -26.586 -15.978  0.00  0.00    +0.188 HD
ENDBRANCH  26  33
ENDBRANCH  24  25
ENDBRANCH   6  24
TORSDOF 6
ENDMDL
MODEL 5
REMARK VINA RESULT:     -11.3      2.689      5.036
REMARK  Name = 4470378
REMARK  6 active torsions:
REMARK  status: ('A' for Active; 'I' for Inactive)
REMARK    1  A    between atoms: C_5  and  O_10
REMARK    2  A    between atoms: C_6  and  O_24
REMARK    3  A    between atoms: O_10  and  C_11
REMARK    4  A    between atoms: C_12  and  C_19
REMARK    5  A    between atoms: O_24  and  C_25
REMARK    6  A    between atoms: C_26  and  C_33
REMARK                            x       y       z     vdW  Elec       q    Type
REMARK                         _______ _______ _______ _____ _____    ______ ____
ROOT
ATOM      1  F   UNL     1      34.123 -22.566 -19.856  0.00  0.00    -0.221 F 
ATOM      2  F   UNL     1      37.988 -21.058 -17.537  0.00  0.00    -0.199 F 
ATOM      3  N   UNL     1      35.249 -23.179 -16.462  0.00  0.00    -0.331 NA
ATOM      4  C   UNL     1      36.072 -21.785 -18.741  0.00  0.00    +0.031 C 
ATOM      5  C   UNL     1      34.524 -23.188 -17.604  0.00  0.00    +0.298 C 
ATOM      6  C   UNL     1      36.384 -22.459 -16.495  0.00  0.00    +0.312 C 
ATOM      7  C   UNL     1      34.888 -22.515 -18.759  0.00  0.00    +0.270 C 
ATOM      8  C   UNL     1      36.844 -21.751 -17.584  0.00  0.00    +0.201 C 
ATOM      9  C   UNL     1      36.510 -21.040 -19.955  0.00  0.00    +0.032 C 
ENDROOT
BRANCH   5  10
ATOM     10  O   UNL     1      33.363 -23.914 -17.595  0.00  0.00    -0.428 OA
BRANCH  10  11
ATOM     11  C   UNL     1      32.413 -23.580 -16.652  0.00  0.00    +0.148 C 
ATOM     12  C   UNL     1      30.137 -23.062 -16.093  0.00  0.00    +0.032 C 
ATOM     13  C   UNL     1      31.097 -23.401 -17.048  0.00  0.00    +0.040 C 
ATOM     14  C   UNL     1      32.794 -23.432 -15.329  0.00  0.00    +0.038 C 
ATOM     15  C   UNL     1      30.506 -22.909 -14.757  0.00  0.00    +0.003 C 
ATOM     16  C   UNL     1      31.835 -23.093 -14.374  0.00  0.00    +0.003 C 
BRANCH  12  19
ATOM     17  N   UNL     1      27.862 -22.381 -15.618  0.00  0.00    -0.387 N 
ATOM     18  N   UNL     1      28.360 -23.182 -17.734  0.00  0.00    -0.345 N 
ATOM     19  C   UNL     1      28.760 -22.871 -16.490  0.00  0.00    +0.096 C 
ATOM     20  H   UNL     1      26.926 -22.254 -15.895  0.00  0.00    +0.157 HD
ATOM     21  H   UNL     1      28.140 -22.150 -14.702  0.00  0.00    +0.157 HD
ATOM     22  H   UNL     1      27.420 -23.050 -17.996  0.00  0.00    +0.144 HD
ATOM     23  H   UNL     1      29.006 -23.543 -18.383  0.00  0.00    +0.144 HD
ENDBRANCH  12  19
ENDBRANCH  10  11
ENDBRANCH   5  10
BRANCH   6  24
ATOM     24  O   UNL     1      37.134 -22.441 -15.330  0.00  0.00    -0.426 OA
BRANCH  24  25
ATOM     25  C   UNL     1      37.490 -23.637 -14.789  0.00  0.00    +0.148 C 
ATOM     26  C   UNL     1      39.046 -25.479 -14.624  0.00  0.00    +0.034 C 
ATOM     27  C   UNL     1      38.682 -24.251 -15.177  0.00  0.00    +0.040 C 
ATOM     28  C   UNL     1      36.664 -24.252 -13.849  0.00  0.00    +0.038 C 
ATOM     29  C   UNL     1      38.220 -26.093 -13.683  0.00  0.00    +0.003 C 
ATOM     30  C   UNL     1      37.029 -25.479 -13.295  0.00  0.00    +0.003 C 
BRANCH  26  33
ATOM     31  N   UNL     1      41.069 -26.826 -14.117  0.00  0.00    -0.343 N 
ATOM     32  N   UNL     1      40.698 -26.028 -16.281  0.00  0.00    -0.285 NA
ATOM     33  C   UNL     1      40.289 -26.118 -15.029  0.00  0.00    +0.117 C 
ATOM     34  H   UNL     1      41.906 -27.251 -14.411  0.00  0.00    +0.144 HD
ATOM     35  H   UNL     1      40.783 -26.902 -13.177  0.00  0.00    +0.144 HD
ATOM     36  H   UNL     1      41.538 -26.460 -16.556  0.00  0.00    +0.188 HD
ENDBRANCH  26  33
ENDBRANCH  24  25
ENDBRANCH   6  24
TORSDOF 6
ENDMDL
MODEL 6
REMARK VINA RESULT:     -11.3      9.000     13.804
REMARK  Name = 4470378
REMARK  6 active torsions:
REMARK  status: ('A' for Active; 'I' for Inactive)
REMARK    1  A    between atoms: C_5  and  O_10
REMARK    2  A    between atoms: C_6  and  O_24
REMARK    3  A    between atoms: O_10  and  C_11
REMARK    4  A    between atoms: C_12  and  C_19
REMARK    5  A    between atoms: O_24  and  C_25
REMARK    6  A    between atoms: C_26  and  C_33
REMARK                            x       y       z     vdW  Elec       q    Type
REMARK                         _______ _______ _______ _____ _____    ______ ____
ROOT
ATOM      1  F   UNL     1      34.354 -15.350 -20.794  0.00  0.00    -0.221 F 
ATOM      2  F   UNL     1      31.226 -11.771 -20.823  0.00  0.00    -0.199 F 
ATOM      3  N   UNL     1      33.776 -12.717 -23.224  0.00  0.00    -0.331 NA
ATOM      4  C   UNL     1      32.770 -13.576 -20.761  0.00  0.00    +0.031 C 
ATOM      5  C   UNL     1      34.276 -13.802 -22.588  0.00  0.00    +0.298 C 
ATOM      6  C   UNL     1      32.770 -12.083 -22.596  0.00  0.00    +0.312 C 
ATOM      7  C   UNL     1      33.813 -14.268 -21.368  0.00  0.00    +0.270 C 
ATOM      8  C   UNL     1      32.230 -12.456 -21.383  0.00  0.00    +0.201 C 
ATOM      9  C   UNL     1      32.234 -14.033 -19.447  0.00  0.00    +0.032 C 
ENDROOT
BRANCH   5  10
ATOM     10  O   UNL     1      35.302 -14.465 -23.207  0.00  0.00    -0.428 OA
BRANCH  10  11
ATOM     11  C   UNL     1      34.975 -15.553 -23.990  0.00  0.00    +0.148 C 
ATOM     12  C   UNL     1      34.940 -17.928 -24.329  0.00  0.00    +0.032 C 
ATOM     13  C   UNL     1      35.270 -16.828 -23.536  0.00  0.00    +0.040 C 
ATOM     14  C   UNL     1      34.360 -15.346 -25.214  0.00  0.00    +0.038 C 
ATOM     15  C   UNL     1      34.320 -17.736 -25.564  0.00  0.00    +0.003 C 
ATOM     16  C   UNL     1      34.030 -16.445 -26.007  0.00  0.00    +0.003 C 
BRANCH  12  19
ATOM     17  N   UNL     1      35.314 -20.285 -24.744  0.00  0.00    -0.387 N 
ATOM     18  N   UNL     1      35.446 -19.508 -22.566  0.00  0.00    -0.345 N 
ATOM     19  C   UNL     1      35.240 -19.265 -23.871  0.00  0.00    +0.096 C 
ATOM     20  H   UNL     1      35.519 -21.193 -24.424  0.00  0.00    +0.157 HD
ATOM     21  H   UNL     1      35.165 -20.123 -25.704  0.00  0.00    +0.157 HD
ATOM     22  H   UNL     1      35.649 -20.423 -22.261  0.00  0.00    +0.144 HD
ATOM     23  H   UNL     1      35.393 -18.773 -21.914  0.00  0.00    +0.144 HD
ENDBRANCH  12  19
ENDBRANCH  10  11
ENDBRANCH   5  10
BRANCH   6  24
ATOM     24  O   UNL     1      32.252 -10.970 -23.236  0.00  0.00    -0.426 OA
BRANCH  24  25
ATOM     25  C   UNL     1      32.953  -9.807 -23.150  0.00  0.00    +0.148 C 
ATOM     26  C   UNL     1      33.352  -7.679 -22.077  0.00  0.00    +0.034 C 
ATOM     27  C   UNL     1      32.634  -8.871 -22.165  0.00  0.00    +0.040 C 
ATOM     28  C   UNL     1      33.990  -9.550 -24.046  0.00  0.00    +0.038 C 
ATOM     29  C   UNL     1      34.389  -7.421 -22.974  0.00  0.00    +0.003 C 
ATOM     30  C   UNL     1      34.708  -8.357 -23.958  0.00  0.00    +0.003 C 
BRANCH  26  33
ATOM     31  N   UNL     1      32.281  -5.560 -21.351  0.00  0.00    -0.343 N 
ATOM     32  N   UNL     1      33.424  -6.892 -19.808  0.00  0.00    -0.285 NA
ATOM     33  C   UNL     1      33.019  -6.703 -21.051  0.00  0.00    +0.117 C 
ATOM     34  H   UNL     1      32.067  -4.913 -20.641  0.00  0.00    +0.144 HD
ATOM     35  H   UNL     1      31.973  -5.400 -22.272  0.00  0.00    +0.144 HD
ATOM     36  H   UNL     1      33.199  -6.232 -19.112  0.00  0.00    +0.188 HD
ENDBRANCH  26  33
ENDBRANCH  24  25
ENDBRANCH   6  24
TORSDOF 6
ENDMDL
MODEL 7
REMARK VINA RESULT:     -11.1      8.159     11.708
REMARK  Name = 4470378
REMARK  6 active torsions:
REMARK  status: ('A' for Active; 'I' for Inactive)
REMARK    1  A    between atoms: C_5  and  O_10
REMARK    2  A    between atoms: C_6  and  O_24
REMARK    3  A    between atoms: O_10  and  C_11
REMARK    4  A    between atoms: C_12  and  C_19
REMARK    5  A    between atoms: O_24  and  C_25
REMARK    6  A    between atoms: C_26  and  C_33
REMARK                            x       y       z     vdW  Elec       q    Type
REMARK                         _______ _______ _______ _____ _____    ______ ____
ROOT
ATOM      1  F   UNL     1      31.726 -12.058 -21.832  0.00  0.00    -0.221 F 
ATOM      2  F   UNL     1      34.537 -15.669 -20.547  0.00  0.00    -0.199 F 
ATOM      3  N   UNL     1      34.438 -13.703 -23.594  0.00  0.00    -0.331 NA
ATOM      4  C   UNL     1      33.106 -13.867 -21.142  0.00  0.00    +0.031 C 
ATOM      5  C   UNL     1      33.419 -12.872 -23.279  0.00  0.00    +0.298 C 
ATOM      6  C   UNL     1      34.766 -14.608 -22.655  0.00  0.00    +0.312 C 
ATOM      7  C   UNL     1      32.727 -12.912 -22.079  0.00  0.00    +0.270 C 
ATOM      8  C   UNL     1      34.150 -14.740 -21.429  0.00  0.00    +0.201 C 
ATOM      9  C   UNL     1      32.395 -13.956 -19.834  0.00  0.00    +0.032 C 
ENDROOT
BRANCH   5  10
ATOM     10  O   UNL     1      33.064 -11.941 -24.220  0.00  0.00    -0.428 OA
BRANCH  10  11
ATOM     11  C   UNL     1      33.575 -10.667 -24.076  0.00  0.00    +0.148 C 
ATOM     12  C   UNL     1      33.311  -8.397 -23.344  0.00  0.00    +0.032 C 
ATOM     13  C   UNL     1      32.794  -9.686 -23.488  0.00  0.00    +0.040 C 
ATOM     14  C   UNL     1      34.858 -10.396 -24.523  0.00  0.00    +0.038 C 
ATOM     15  C   UNL     1      34.600  -8.109 -23.789  0.00  0.00    +0.003 C 
ATOM     16  C   UNL     1      35.374  -9.109 -24.380  0.00  0.00    +0.003 C 
BRANCH  12  19
ATOM     17  N   UNL     1      31.391  -6.920 -23.335  0.00  0.00    -0.387 N 
ATOM     18  N   UNL     1      32.872  -6.824 -21.556  0.00  0.00    -0.345 N 
ATOM     19  C   UNL     1      32.509  -7.361 -22.733  0.00  0.00    +0.096 C 
ATOM     20  H   UNL     1      30.851  -6.214 -22.913  0.00  0.00    +0.157 HD
ATOM     21  H   UNL     1      31.113  -7.303 -24.198  0.00  0.00    +0.157 HD
ATOM     22  H   UNL     1      32.321  -6.118 -21.146  0.00  0.00    +0.144 HD
ATOM     23  H   UNL     1      33.689  -7.135 -21.103  0.00  0.00    +0.144 HD
ENDBRANCH  12  19
ENDBRANCH  10  11
ENDBRANCH   5  10
BRANCH   6  24
ATOM     24  O   UNL     1      35.807 -15.466 -22.968  0.00  0.00    -0.426 OA
BRANCH  24  25
ATOM     25  C   UNL     1      35.511 -16.782 -23.145  0.00  0.00    +0.148 C 
ATOM     26  C   UNL     1      35.357 -19.029 -22.269  0.00  0.00    +0.034 C 
ATOM     27  C   UNL     1      35.659 -17.680 -22.087  0.00  0.00    +0.040 C 
ATOM     28  C   UNL     1      35.060 -17.235 -24.385  0.00  0.00    +0.038 C 
ATOM     29  C   UNL     1      34.906 -19.482 -23.509  0.00  0.00    +0.003 C 
ATOM     30  C   UNL     1      34.757 -18.584 -24.567  0.00  0.00    +0.003 C 
BRANCH  26  33
ATOM     31  N   UNL     1      36.712 -20.064 -20.464  0.00  0.00    -0.343 N 
ATOM     32  N   UNL     1      34.504 -20.744 -20.817  0.00  0.00    -0.285 NA
ATOM     33  C   UNL     1      35.512 -19.964 -21.166  0.00  0.00    +0.117 C 
ATOM     34  H   UNL     1      36.795 -20.703 -19.721  0.00  0.00    +0.144 HD
ATOM     35  H   UNL     1      37.476 -19.493 -20.710  0.00  0.00    +0.144 HD
ATOM     36  H   UNL     1      34.608 -21.378 -20.071  0.00  0.00    +0.188 HD
ENDBRANCH  26  33
ENDBRANCH  24  25
ENDBRANCH   6  24
TORSDOF 6
ENDMDL
MODEL 8
REMARK VINA RESULT:     -11.1      3.181      5.495
REMARK  Name = 4470378
REMARK  6 active torsions:
REMARK  status: ('A' for Active; 'I' for Inactive)
REMARK    1  A    between atoms: C_5  and  O_10
REMARK    2  A    between atoms: C_6  and  O_24
REMARK    3  A    between atoms: O_10  and  C_11
REMARK    4  A    between atoms: C_12  and  C_19
REMARK    5  A    between atoms: O_24  and  C_25
REMARK    6  A    between atoms: C_26  and  C_33
REMARK                            x       y       z     vdW  Elec       q    Type
REMARK                         _______ _______ _______ _____ _____    ______ ____
ROOT
ATOM      1  F   UNL     1      34.078 -22.487 -19.843  0.00  0.00    -0.221 F 
ATOM      2  F   UNL     1      38.069 -20.901 -17.807  0.00  0.00    -0.199 F 
ATOM      3  N   UNL     1      35.525 -23.183 -16.589  0.00  0.00    -0.331 NA
ATOM      4  C   UNL     1      36.084 -21.664 -18.869  0.00  0.00    +0.031 C 
ATOM      5  C   UNL     1      34.703 -23.179 -17.663  0.00  0.00    +0.298 C 
ATOM      6  C   UNL     1      36.623 -22.412 -16.690  0.00  0.00    +0.312 C 
ATOM      7  C   UNL     1      34.935 -22.445 -18.815  0.00  0.00    +0.270 C 
ATOM      8  C   UNL     1      36.955 -21.642 -17.784  0.00  0.00    +0.201 C 
ATOM      9  C   UNL     1      36.382 -20.853 -20.084  0.00  0.00    +0.032 C 
ENDROOT
BRANCH   5  10
ATOM     10  O   UNL     1      33.577 -23.955 -17.585  0.00  0.00    -0.428 OA
BRANCH  10  11
ATOM     11  C   UNL     1      32.630 -23.607 -16.643  0.00  0.00    +0.148 C 
ATOM     12  C   UNL     1      30.359 -23.072 -16.085  0.00  0.00    +0.032 C 
ATOM     13  C   UNL     1      31.316 -23.424 -17.038  0.00  0.00    +0.040 C 
ATOM     14  C   UNL     1      33.015 -23.448 -15.322  0.00  0.00    +0.038 C 
ATOM     15  C   UNL     1      30.731 -22.908 -14.751  0.00  0.00    +0.003 C 
ATOM     16  C   UNL     1      32.059 -23.096 -14.369  0.00  0.00    +0.003 C 
BRANCH  12  19
ATOM     17  N   UNL     1      28.086 -22.384 -15.609  0.00  0.00    -0.387 N 
ATOM     18  N   UNL     1      28.580 -23.188 -17.725  0.00  0.00    -0.345 N 
ATOM     19  C   UNL     1      28.982 -22.877 -16.481  0.00  0.00    +0.096 C 
ATOM     20  H   UNL     1      27.150 -22.254 -15.886  0.00  0.00    +0.157 HD
ATOM     21  H   UNL     1      28.365 -22.151 -14.694  0.00  0.00    +0.157 HD
ATOM     22  H   UNL     1      27.640 -23.053 -17.987  0.00  0.00    +0.144 HD
ATOM     23  H   UNL     1      29.225 -23.552 -18.374  0.00  0.00    +0.144 HD
ENDBRANCH  12  19
ENDBRANCH  10  11
ENDBRANCH   5  10
BRANCH   6  24
ATOM     24  O   UNL     1      37.471 -22.406 -15.596  0.00  0.00    -0.426 OA
BRANCH  24  25
ATOM     25  C   UNL     1      37.475 -23.505 -14.793  0.00  0.00    +0.148 C 
ATOM     26  C   UNL     1      36.969 -24.551 -12.675  0.00  0.00    +0.034 C 
ATOM     27  C   UNL     1      36.964 -23.425 -13.498  0.00  0.00    +0.040 C 
ATOM     28  C   UNL     1      37.993 -24.711 -15.265  0.00  0.00    +0.038 C 
ATOM     29  C   UNL     1      37.486 -25.757 -13.146  0.00  0.00    +0.003 C 
ATOM     30  C   UNL     1      37.998 -25.837 -14.442  0.00  0.00    +0.003 C 
BRANCH  26  33
ATOM     31  N   UNL     1      36.893 -23.507 -10.423  0.00  0.00    -0.343 N 
ATOM     32  N   UNL     1      35.503 -25.316 -10.930  0.00  0.00    -0.285 NA
ATOM     33  C   UNL     1      36.436 -24.467 -11.324  0.00  0.00    +0.117 C 
ATOM     34  H   UNL     1      36.518 -23.468  -9.514  0.00  0.00    +0.144 HD
ATOM     35  H   UNL     1      37.590 -22.867 -10.696  0.00  0.00    +0.144 HD
ATOM     36  H   UNL     1      35.141 -25.260 -10.017  0.00  0.00    +0.188 HD
ENDBRANCH  26  33
ENDBRANCH  24  25
ENDBRANCH   6  24
TORSDOF 6
ENDMDL
MODEL 9
REMARK VINA RESULT:     -11.0      0.360      7.617
REMARK  Name = 4470378
REMARK  6 active torsions:
REMARK  status: ('A' for Active; 'I' for Inactive)
REMARK    1  A    between atoms: C_5  and  O_10
REMARK    2  A    between atoms: C_6  and  O_24
REMARK    3  A    between atoms: O_10  and  C_11
REMARK    4  A    between atoms: C_12  and  C_19
REMARK    5  A    between atoms: O_24  and  C_25
REMARK    6  A    between atoms: C_26  and  C_33
REMARK                            x       y       z     vdW  Elec       q    Type
REMARK                         _______ _______ _______ _____ _____    ______ ____
ROOT
ATOM      1  F   UNL     1      33.632 -23.215 -13.793  0.00  0.00    -0.221 F 
ATOM      2  F   UNL     1      32.427 -23.531 -18.380  0.00  0.00    -0.199 F 
ATOM      3  N   UNL     1      35.642 -22.951 -16.803  0.00  0.00    -0.331 NA
ATOM      4  C   UNL     1      32.978 -23.381 -16.073  0.00  0.00    +0.031 C 
ATOM      5  C   UNL     1      35.254 -22.985 -15.508  0.00  0.00    +0.298 C 
ATOM      6  C   UNL     1      34.667 -23.137 -17.711  0.00  0.00    +0.312 C 
ATOM      7  C   UNL     1      33.948 -23.195 -15.094  0.00  0.00    +0.270 C 
ATOM      8  C   UNL     1      33.338 -23.353 -17.416  0.00  0.00    +0.201 C 
ATOM      9  C   UNL     1      31.557 -23.610 -15.684  0.00  0.00    +0.032 C 
ENDROOT
BRANCH   5  10
ATOM     10  O   UNL     1      36.228 -22.797 -14.563  0.00  0.00    -0.428 OA
BRANCH  10  11
ATOM     11  C   UNL     1      36.886 -23.917 -14.098  0.00  0.00    +0.148 C 
ATOM     12  C   UNL     1      38.741 -25.434 -14.224  0.00  0.00    +0.032 C 
ATOM     13  C   UNL     1      38.076 -24.300 -14.694  0.00  0.00    +0.040 C 
ATOM     14  C   UNL     1      36.342 -24.634 -13.045  0.00  0.00    +0.038 C 
ATOM     15  C   UNL     1      38.206 -26.167 -13.165  0.00  0.00    +0.003 C 
ATOM     16  C   UNL     1      37.006 -25.767 -12.575  0.00  0.00    +0.003 C 
BRANCH  12  19
ATOM     17  N   UNL     1      40.810 -26.693 -14.194  0.00  0.00    -0.387 N 
ATOM     18  N   UNL     1      40.332 -25.392 -16.049  0.00  0.00    -0.345 N 
ATOM     19  C   UNL     1      39.984 -25.848 -14.834  0.00  0.00    +0.096 C 
ATOM     20  H   UNL     1      41.654 -26.971 -14.616  0.00  0.00    +0.157 HD
ATOM     21  H   UNL     1      40.569 -27.036 -13.302  0.00  0.00    +0.157 HD
ATOM     22  H   UNL     1      41.181 -25.678 -16.458  0.00  0.00    +0.144 HD
ATOM     23  H   UNL     1      39.738 -24.771 -16.531  0.00  0.00    +0.144 HD
ENDBRANCH  12  19
ENDBRANCH  10  11
ENDBRANCH   5  10
BRANCH   6  24
ATOM     24  O   UNL     1      35.053 -23.102 -19.040  0.00  0.00    -0.426 OA
BRANCH  24  25
ATOM     25  C   UNL     1      34.813 -21.960 -19.739  0.00  0.00    +0.148 C 
ATOM     26  C   UNL     1      35.633 -20.009 -20.906  0.00  0.00    +0.034 C 
ATOM     27  C   UNL     1      35.879 -21.181 -20.191  0.00  0.00    +0.040 C 
ATOM     28  C   UNL     1      33.501 -21.565 -20.001  0.00  0.00    +0.038 C 
ATOM     29  C   UNL     1      34.321 -19.614 -21.168  0.00  0.00    +0.003 C 
ATOM     30  C   UNL     1      33.255 -20.393 -20.716  0.00  0.00    +0.003 C 
BRANCH  26  33
ATOM     31  N   UNL     1      36.817 -18.768 -22.700  0.00  0.00    -0.343 N 
ATOM     32  N   UNL     1      37.713 -18.860 -20.544  0.00  0.00    -0.285 NA
ATOM     33  C   UNL     1      36.744 -19.198 -21.377  0.00  0.00    +0.117 C 
ATOM     34  H   UNL     1      37.579 -18.220 -22.998  0.00  0.00    +0.144 HD
ATOM     35  H   UNL     1      36.108 -19.012 -23.338  0.00  0.00    +0.144 HD
ATOM     36  H   UNL     1      38.465 -18.311 -20.861  0.00  0.00    +0.188 HD
ENDBRANCH  26  33
ENDBRANCH  24  25
ENDBRANCH   6  24
TORSDOF 6
ENDMDL
