MODEL 1
REMARK VINA RESULT:     -11.6      0.000      0.000
REMARK  Name = 17754438
REMARK  6 active torsions:
REMARK  status: ('A' for Active; 'I' for Inactive)
REMARK    1  A    between atoms: N_1  and  C_19
REMARK    2  A    between atoms: C_7  and  C_12
REMARK    3  A    between atoms: N_10  and  C_15
REMARK    4  A    between atoms: C_15  and  C_16
REMARK    5  A    between atoms: C_16  and  O_17
REMARK    6  A    between atoms: C_19  and  C_21
REMARK                            x       y       z     vdW  Elec       q    Type
REMARK                         _______ _______ _______ _____ _____    ______ ____
ROOT
ATOM      1  N   UNL     1      33.203 -23.296 -17.723  0.00  0.00    -0.163 N 
ATOM      2  N   UNL     1      35.007 -24.426 -16.523  0.00  0.00    -0.378 NA
ATOM      3  N   UNL     1      32.059 -22.665 -17.387  0.00  0.00    -0.033 NA
ATOM      4  N   UNL     1      33.342 -23.649 -14.283  0.00  0.00    -0.208 NA
ATOM      5  N   UNL     1      31.946 -22.706 -16.060  0.00  0.00    -0.086 NA
ATOM      6  C   UNL     1      33.849 -23.755 -16.619  0.00  0.00    +0.267 C 
ATOM      7  C   UNL     1      35.303 -24.699 -15.232  0.00  0.00    +0.140 C 
ATOM      8  C   UNL     1      33.034 -23.369 -15.572  0.00  0.00    +0.098 C 
ATOM      9  C   UNL     1      34.506 -24.327 -14.158  0.00  0.00    +0.195 C 
ENDROOT
BRANCH   7  12
ATOM     10  N   UNL     1      38.574 -25.873 -14.407  0.00  0.00    -0.208 N 
ATOM     11  N   UNL     1      38.138 -27.033 -14.929  0.00  0.00    -0.176 NA
ATOM     12  C   UNL     1      36.525 -25.417 -15.011  0.00  0.00    +0.064 C 
ATOM     13  C   UNL     1      37.646 -24.873 -14.433  0.00  0.00    +0.088 C 
ATOM     14  C   UNL     1      36.886 -26.748 -15.296  0.00  0.00    +0.121 C 
BRANCH  10  15
ATOM     15  C   UNL     1      39.917 -25.782 -13.887  0.00  0.00    +0.148 C 
BRANCH  15  16
ATOM     16  C   UNL     1      40.959 -26.315 -14.861  0.00  0.00    +0.161 C 
BRANCH  16  17
ATOM     17  O   UNL     1      40.581 -25.988 -16.192  0.00  0.00    -0.380 OA
ATOM     18  H   UNL     1      41.359 -25.682 -16.684  0.00  0.00    +0.211 HD
ENDBRANCH  16  17
ENDBRANCH  15  16
ENDBRANCH  10  15
ENDBRANCH   7  12
BRANCH   1  19
ATOM     19  C   UNL     1      33.606 -23.415 -19.128  0.00  0.00    +0.145 C 
BRANCH  19  21
ATOM     20  N   UNL     1      37.204 -19.313 -20.629  0.00  0.00    -0.244 NA
ATOM     21  C   UNL     1      34.547 -22.330 -19.530  0.00  0.00    -0.000 C 
ATOM     22  C   UNL     1      34.192 -21.430 -20.531  0.00  0.00    -0.001 C 
ATOM     23  C   UNL     1      35.076 -20.406 -20.913  0.00  0.00    +0.017 C 
ATOM     24  C   UNL     1      35.784 -22.212 -18.909  0.00  0.00    -0.001 C 
ATOM     25  C   UNL     1      36.333 -20.281 -20.286  0.00  0.00    +0.081 C 
ATOM     26  C   UNL     1      36.663 -21.195 -19.289  0.00  0.00    +0.019 C 
ATOM     27  C   UNL     1      34.743 -19.487 -21.917  0.00  0.00    +0.003 C 
ATOM     28  C   UNL     1      35.639 -18.488 -22.272  0.00  0.00    +0.021 C 
ATOM     29  C   UNL     1      36.845 -18.445 -21.603  0.00  0.00    +0.099 C 
ENDBRANCH  19  21
ENDBRANCH   1  19
TORSDOF 6
ENDMDL
MODEL 2
REMARK VINA RESULT:     -11.4      0.729      1.326
REMARK  Name = 17754438
REMARK  6 active torsions:
REMARK  status: ('A' for Active; 'I' for Inactive)
REMARK    1  A    between atoms: N_1  and  C_19
REMARK    2  A    between atoms: C_7  and  C_12
REMARK    3  A    between atoms: N_10  and  C_15
REMARK    4  A    between atoms: C_15  and  C_16
REMARK    5  A    between atoms: C_16  and  O_17
REMARK    6  A    between atoms: C_19  and  C_21
REMARK                            x       y       z     vdW  Elec       q    Type
REMARK                         _______ _______ _______ _____ _____    ______ ____
ROOT
ATOM      1  N   UNL     1      33.282 -23.381 -17.790  0.00  0.00    -0.163 N 
ATOM      2  N   UNL     1      35.070 -24.455 -16.518  0.00  0.00    -0.378 NA
ATOM      3  N   UNL     1      32.127 -22.750 -17.499  0.00  0.00    -0.033 NA
ATOM      4  N   UNL     1      33.354 -23.620 -14.339  0.00  0.00    -0.208 NA
ATOM      5  N   UNL     1      31.987 -22.748 -16.174  0.00  0.00    -0.086 NA
ATOM      6  C   UNL     1      33.910 -23.798 -16.659  0.00  0.00    +0.267 C 
ATOM      7  C   UNL     1      35.342 -24.682 -15.212  0.00  0.00    +0.140 C 
ATOM      8  C   UNL     1      33.070 -23.385 -15.643  0.00  0.00    +0.098 C 
ATOM      9  C   UNL     1      34.520 -24.283 -14.168  0.00  0.00    +0.195 C 
ENDROOT
BRANCH   7  12
ATOM     10  N   UNL     1      38.632 -25.783 -14.358  0.00  0.00    -0.208 N 
ATOM     11  N   UNL     1      38.166 -26.995 -14.708  0.00  0.00    -0.176 NA
ATOM     12  C   UNL     1      36.565 -25.382 -14.943  0.00  0.00    +0.064 C 
ATOM     13  C   UNL     1      37.712 -24.783 -14.482  0.00  0.00    +0.088 C 
ATOM     14  C   UNL     1      36.904 -26.744 -15.064  0.00  0.00    +0.121 C 
BRANCH  10  15
ATOM     15  C   UNL     1      39.994 -25.643 -13.902  0.00  0.00    +0.148 C 
BRANCH  15  16
ATOM     16  C   UNL     1      40.988 -26.366 -14.801  0.00  0.00    +0.161 C 
BRANCH  16  17
ATOM     17  O   UNL     1      40.731 -26.038 -16.160  0.00  0.00    -0.380 OA
ATOM     18  H   UNL     1      41.572 -25.954 -16.637  0.00  0.00    +0.211 HD
ENDBRANCH  16  17
ENDBRANCH  15  16
ENDBRANCH  10  15
ENDBRANCH   7  12
BRANCH   1  19
ATOM     19  C   UNL     1      33.716 -23.542 -19.183  0.00  0.00    +0.145 C 
BRANCH  19  21
ATOM     20  N   UNL     1      35.029 -18.576 -21.558  0.00  0.00    -0.244 NA
ATOM     21  C   UNL     1      34.072 -22.236 -19.808  0.00  0.00    -0.000 C 
ATOM     22  C   UNL     1      35.405 -21.850 -19.913  0.00  0.00    -0.001 C 
ATOM     23  C   UNL     1      35.744 -20.619 -20.501  0.00  0.00    +0.017 C 
ATOM     24  C   UNL     1      33.074 -21.396 -20.288  0.00  0.00    -0.001 C 
ATOM     25  C   UNL     1      34.737 -19.762 -20.990  0.00  0.00    +0.081 C 
ATOM     26  C   UNL     1      33.412 -20.173 -20.872  0.00  0.00    +0.019 C 
ATOM     27  C   UNL     1      37.078 -20.207 -20.619  0.00  0.00    +0.003 C 
ATOM     28  C   UNL     1      37.381 -18.985 -21.204  0.00  0.00    +0.021 C 
ATOM     29  C   UNL     1      36.329 -18.215 -21.654  0.00  0.00    +0.099 C 
ENDBRANCH  19  21
ENDBRANCH   1  19
TORSDOF 6
ENDMDL
MODEL 3
REMARK VINA RESULT:     -11.2      2.666      4.336
REMARK  Name = 17754438
REMARK  6 active torsions:
REMARK  status: ('A' for Active; 'I' for Inactive)
REMARK    1  A    between atoms: N_1  and  C_19
REMARK    2  A    between atoms: C_7  and  C_12
REMARK    3  A    between atoms: N_10  and  C_15
REMARK    4  A    between atoms: C_15  and  C_16
REMARK    5  A    between atoms: C_16  and  O_17
REMARK    6  A    between atoms: C_19  and  C_21
REMARK                            x       y       z     vdW  Elec       q    Type
REMARK                         _______ _______ _______ _____ _____    ______ ____
ROOT
ATOM      1  N   UNL     1      35.024 -20.513 -20.700  0.00  0.00    -0.163 N 
ATOM      2  N   UNL     1      35.860 -21.702 -18.736  0.00  0.00    -0.378 NA
ATOM      3  N   UNL     1      33.836 -20.383 -21.323  0.00  0.00    -0.033 NA
ATOM      4  N   UNL     1      33.080 -22.511 -18.650  0.00  0.00    -0.208 NA
ATOM      5  N   UNL     1      32.942 -21.107 -20.651  0.00  0.00    -0.086 NA
ATOM      6  C   UNL     1      34.920 -21.323 -19.614  0.00  0.00    +0.267 C 
ATOM      7  C   UNL     1      35.341 -22.521 -17.792  0.00  0.00    +0.140 C 
ATOM      8  C   UNL     1      33.588 -21.690 -19.601  0.00  0.00    +0.098 C 
ATOM      9  C   UNL     1      34.009 -22.909 -17.751  0.00  0.00    +0.195 C 
ENDROOT
BRANCH   7  12
ATOM     10  N   UNL     1      37.094 -24.097 -15.109  0.00  0.00    -0.208 N 
ATOM     11  N   UNL     1      38.116 -23.318 -15.503  0.00  0.00    -0.176 NA
ATOM     12  C   UNL     1      36.262 -22.989 -16.798  0.00  0.00    +0.064 C 
ATOM     13  C   UNL     1      35.961 -23.938 -15.852  0.00  0.00    +0.088 C 
ATOM     14  C   UNL     1      37.602 -22.643 -16.535  0.00  0.00    +0.121 C 
BRANCH  10  15
ATOM     15  C   UNL     1      37.267 -24.996 -13.993  0.00  0.00    +0.148 C 
BRANCH  15  16
ATOM     16  C   UNL     1      37.647 -26.404 -14.430  0.00  0.00    +0.161 C 
BRANCH  16  17
ATOM     17  O   UNL     1      38.531 -26.339 -15.541  0.00  0.00    -0.380 OA
ATOM     18  H   UNL     1      38.618 -25.418 -15.832  0.00  0.00    +0.211 HD
ENDBRANCH  16  17
ENDBRANCH  15  16
ENDBRANCH  10  15
ENDBRANCH   7  12
BRANCH   1  19
ATOM     19  C   UNL     1      36.216 -19.826 -21.210  0.00  0.00    +0.145 C 
BRANCH  19  21
ATOM     20  N   UNL     1      34.866 -15.269 -24.283  0.00  0.00    -0.244 NA
ATOM     21  C   UNL     1      35.860 -18.619 -22.011  0.00  0.00    -0.000 C 
ATOM     22  C   UNL     1      35.506 -17.434 -21.373  0.00  0.00    -0.001 C 
ATOM     23  C   UNL     1      35.169 -16.295 -22.125  0.00  0.00    +0.017 C 
ATOM     24  C   UNL     1      35.876 -18.673 -23.400  0.00  0.00    -0.001 C 
ATOM     25  C   UNL     1      35.184 -16.342 -23.534  0.00  0.00    +0.081 C 
ATOM     26  C   UNL     1      35.541 -17.540 -24.146  0.00  0.00    +0.019 C 
ATOM     27  C   UNL     1      34.811 -15.089 -21.507  0.00  0.00    +0.003 C 
ATOM     28  C   UNL     1      34.483 -13.982 -22.277  0.00  0.00    +0.021 C 
ATOM     29  C   UNL     1      34.526 -14.124 -23.649  0.00  0.00    +0.099 C 
ENDBRANCH  19  21
ENDBRANCH   1  19
TORSDOF 6
ENDMDL
MODEL 4
REMARK VINA RESULT:     -10.8      6.037     11.892
REMARK  Name = 17754438
REMARK  6 active torsions:
REMARK  status: ('A' for Active; 'I' for Inactive)
REMARK    1  A    between atoms: N_1  and  C_19
REMARK    2  A    between atoms: C_7  and  C_12
REMARK    3  A    between atoms: N_10  and  C_15
REMARK    4  A    between atoms: C_15  and  C_16
REMARK    5  A    between atoms: C_16  and  O_17
REMARK    6  A    between atoms: C_19  and  C_21
REMARK                            x       y       z     vdW  Elec       q    Type
REMARK                         _______ _______ _______ _____ _____    ______ ____
ROOT
ATOM      1  N   UNL     1      35.644 -17.588 -23.648  0.00  0.00    -0.163 N 
ATOM      2  N   UNL     1      34.796 -15.301 -23.793  0.00  0.00    -0.378 NA
ATOM      3  N   UNL     1      35.575 -18.699 -24.408  0.00  0.00    -0.033 NA
ATOM      4  N   UNL     1      33.720 -16.378 -26.258  0.00  0.00    -0.208 NA
ATOM      5  N   UNL     1      34.849 -18.410 -25.488  0.00  0.00    -0.086 NA
ATOM      6  C   UNL     1      34.966 -16.560 -24.222  0.00  0.00    +0.267 C 
ATOM      7  C   UNL     1      34.048 -14.588 -24.666  0.00  0.00    +0.140 C 
ATOM      8  C   UNL     1      34.468 -17.104 -25.391  0.00  0.00    +0.098 C 
ATOM      9  C   UNL     1      33.533 -15.103 -25.847  0.00  0.00    +0.195 C 
ENDROOT
BRANCH   7  12
ATOM     10  N   UNL     1      33.023 -11.469 -23.259  0.00  0.00    -0.208 N 
ATOM     11  N   UNL     1      33.803 -10.939 -24.217  0.00  0.00    -0.176 NA
ATOM     12  C   UNL     1      33.802 -13.222 -24.304  0.00  0.00    +0.064 C 
ATOM     13  C   UNL     1      32.988 -12.832 -23.268  0.00  0.00    +0.088 C 
ATOM     14  C   UNL     1      34.276 -12.014 -24.852  0.00  0.00    +0.121 C 
BRANCH  10  15
ATOM     15  C   UNL     1      32.324 -10.600 -22.342  0.00  0.00    +0.148 C 
BRANCH  15  16
ATOM     16  C   UNL     1      31.848 -11.330 -21.094  0.00  0.00    +0.161 C 
BRANCH  16  17
ATOM     17  O   UNL     1      30.445 -11.551 -21.174  0.00  0.00    -0.380 OA
ATOM     18  H   UNL     1      30.263 -12.501 -21.102  0.00  0.00    +0.211 HD
ENDBRANCH  16  17
ENDBRANCH  15  16
ENDBRANCH  10  15
ENDBRANCH   7  12
BRANCH   1  19
ATOM     19  C   UNL     1      36.384 -17.593 -22.381  0.00  0.00    +0.145 C 
BRANCH  19  21
ATOM     20  N   UNL     1      35.428 -22.289 -19.370  0.00  0.00    -0.244 NA
ATOM     21  C   UNL     1      36.122 -18.830 -21.590  0.00  0.00    -0.000 C 
ATOM     22  C   UNL     1      34.816 -19.250 -21.360  0.00  0.00    -0.001 C 
ATOM     23  C   UNL     1      34.565 -20.415 -20.614  0.00  0.00    +0.017 C 
ATOM     24  C   UNL     1      37.181 -19.568 -21.076  0.00  0.00    -0.001 C 
ATOM     25  C   UNL     1      35.634 -21.169 -20.090  0.00  0.00    +0.081 C 
ATOM     26  C   UNL     1      36.931 -20.725 -20.335  0.00  0.00    +0.019 C 
ATOM     27  C   UNL     1      33.259 -20.861 -20.369  0.00  0.00    +0.003 C 
ATOM     28  C   UNL     1      33.044 -22.014 -19.628  0.00  0.00    +0.021 C 
ATOM     29  C   UNL     1      34.153 -22.685 -19.156  0.00  0.00    +0.099 C 
ENDBRANCH  19  21
ENDBRANCH   1  19
TORSDOF 6
ENDMDL
MODEL 5
REMARK VINA RESULT:     -10.7      5.220      9.523
REMARK  Name = 17754438
REMARK  6 active torsions:
REMARK  status: ('A' for Active; 'I' for Inactive)
REMARK    1  A    between atoms: N_1  and  C_19
REMARK    2  A    between atoms: C_7  and  C_12
REMARK    3  A    between atoms: N_10  and  C_15
REMARK    4  A    between atoms: C_15  and  C_16
REMARK    5  A    between atoms: C_16  and  O_17
REMARK    6  A    between atoms: C_19  and  C_21
REMARK                            x       y       z     vdW  Elec       q    Type
REMARK                         _______ _______ _______ _____ _____    ______ ____
ROOT
ATOM      1  N   UNL     1      34.561 -15.562 -24.933  0.00  0.00    -0.163 N 
ATOM      2  N   UNL     1      35.418 -17.216 -23.352  0.00  0.00    -0.378 NA
ATOM      3  N   UNL     1      33.843 -15.589 -26.074  0.00  0.00    -0.033 NA
ATOM      4  N   UNL     1      34.095 -18.978 -25.234  0.00  0.00    -0.208 NA
ATOM      5  N   UNL     1      33.566 -16.864 -26.350  0.00  0.00    -0.086 NA
ATOM      6  C   UNL     1      34.762 -16.817 -24.452  0.00  0.00    +0.267 C 
ATOM      7  C   UNL     1      35.384 -18.563 -23.231  0.00  0.00    +0.140 C 
ATOM      8  C   UNL     1      34.121 -17.630 -25.367  0.00  0.00    +0.098 C 
ATOM      9  C   UNL     1      34.751 -19.408 -24.132  0.00  0.00    +0.195 C 
ENDROOT
BRANCH   7  12
ATOM     10  N   UNL     1      36.524 -20.369 -20.367  0.00  0.00    -0.208 N 
ATOM     11  N   UNL     1      37.541 -19.491 -20.391  0.00  0.00    -0.176 NA
ATOM     12  C   UNL     1      36.059 -19.102 -22.085  0.00  0.00    +0.064 C 
ATOM     13  C   UNL     1      35.609 -20.179 -21.361  0.00  0.00    +0.088 C 
ATOM     14  C   UNL     1      37.251 -18.720 -21.443  0.00  0.00    +0.121 C 
BRANCH  10  15
ATOM     15  C   UNL     1      36.484 -21.391 -19.349  0.00  0.00    +0.148 C 
BRANCH  15  16
ATOM     16  C   UNL     1      35.141 -22.108 -19.294  0.00  0.00    +0.161 C 
BRANCH  16  17
ATOM     17  O   UNL     1      35.035 -22.833 -18.076  0.00  0.00    -0.380 OA
ATOM     18  H   UNL     1      34.479 -22.340 -17.453  0.00  0.00    +0.211 HD
ENDBRANCH  16  17
ENDBRANCH  15  16
ENDBRANCH  10  15
ENDBRANCH   7  12
BRANCH   1  19
ATOM     19  C   UNL     1      35.019 -14.287 -24.368  0.00  0.00    +0.145 C 
BRANCH  19  21
ATOM     20  N   UNL     1      32.023 -12.822 -19.797  0.00  0.00    -0.244 NA
ATOM     21  C   UNL     1      34.224 -13.895 -23.169  0.00  0.00    -0.000 C 
ATOM     22  C   UNL     1      33.321 -12.837 -23.243  0.00  0.00    -0.001 C 
ATOM     23  C   UNL     1      32.571 -12.464 -22.115  0.00  0.00    +0.017 C 
ATOM     24  C   UNL     1      34.381 -14.580 -21.971  0.00  0.00    -0.001 C 
ATOM     25  C   UNL     1      32.726 -13.155 -20.896  0.00  0.00    +0.081 C 
ATOM     26  C   UNL     1      33.635 -14.208 -20.850  0.00  0.00    +0.019 C 
ATOM     27  C   UNL     1      31.655 -11.404 -22.163  0.00  0.00    +0.003 C 
ATOM     28  C   UNL     1      30.929 -11.058 -21.031  0.00  0.00    +0.021 C 
ATOM     29  C   UNL     1      31.149 -11.793 -19.884  0.00  0.00    +0.099 C 
ENDBRANCH  19  21
ENDBRANCH   1  19
TORSDOF 6
ENDMDL
MODEL 6
REMARK VINA RESULT:     -10.6      2.536      3.755
REMARK  Name = 17754438
REMARK  6 active torsions:
REMARK  status: ('A' for Active; 'I' for Inactive)
REMARK    1  A    between atoms: N_1  and  C_19
REMARK    2  A    between atoms: C_7  and  C_12
REMARK    3  A    between atoms: N_10  and  C_15
REMARK    4  A    between atoms: C_15  and  C_16
REMARK    5  A    between atoms: C_16  and  O_17
REMARK    6  A    between atoms: C_19  and  C_21
REMARK                            x       y       z     vdW  Elec       q    Type
REMARK                         _______ _______ _______ _____ _____    ______ ____
ROOT
ATOM      1  N   UNL     1      35.061 -21.263 -20.088  0.00  0.00    -0.163 N 
ATOM      2  N   UNL     1      35.880 -22.239 -18.003  0.00  0.00    -0.378 NA
ATOM      3  N   UNL     1      33.876 -21.187 -20.725  0.00  0.00    -0.033 NA
ATOM      4  N   UNL     1      33.090 -22.999 -17.836  0.00  0.00    -0.208 NA
ATOM      5  N   UNL     1      32.971 -21.823 -19.979  0.00  0.00    -0.086 NA
ATOM      6  C   UNL     1      34.946 -21.947 -18.920  0.00  0.00    +0.267 C 
ATOM      7  C   UNL     1      35.350 -22.942 -16.977  0.00  0.00    +0.140 C 
ATOM      8  C   UNL     1      33.609 -22.294 -18.870  0.00  0.00    +0.098 C 
ATOM      9  C   UNL     1      34.013 -23.307 -16.896  0.00  0.00    +0.195 C 
ENDROOT
BRANCH   7  12
ATOM     10  N   UNL     1      37.040 -24.052 -14.032  0.00  0.00    -0.208 N 
ATOM     11  N   UNL     1      38.148 -23.681 -14.696  0.00  0.00    -0.176 NA
ATOM     12  C   UNL     1      36.264 -23.310 -15.934  0.00  0.00    +0.064 C 
ATOM     13  C   UNL     1      35.885 -23.849 -14.729  0.00  0.00    +0.088 C 
ATOM     14  C   UNL     1      37.668 -23.229 -15.858  0.00  0.00    +0.121 C 
BRANCH  10  15
ATOM     15  C   UNL     1      37.152 -24.607 -12.704  0.00  0.00    +0.148 C 
BRANCH  15  16
ATOM     16  C   UNL     1      38.469 -24.247 -12.030  0.00  0.00    +0.161 C 
BRANCH  16  17
ATOM     17  O   UNL     1      38.512 -22.848 -11.778  0.00  0.00    -0.380 OA
ATOM     18  H   UNL     1      38.756 -22.380 -12.591  0.00  0.00    +0.211 HD
ENDBRANCH  16  17
ENDBRANCH  15  16
ENDBRANCH  10  15
ENDBRANCH   7  12
BRANCH   1  19
ATOM     19  C   UNL     1      36.262 -20.650 -20.668  0.00  0.00    +0.145 C 
BRANCH  19  21
ATOM     20  N   UNL     1      35.003 -16.232 -23.972  0.00  0.00    -0.244 NA
ATOM     21  C   UNL     1      35.925 -19.492 -21.545  0.00  0.00    -0.000 C 
ATOM     22  C   UNL     1      35.397 -19.706 -22.815  0.00  0.00    -0.001 C 
ATOM     23  C   UNL     1      35.079 -18.617 -23.645  0.00  0.00    +0.017 C 
ATOM     24  C   UNL     1      36.141 -18.193 -21.101  0.00  0.00    -0.001 C 
ATOM     25  C   UNL     1      35.295 -17.297 -23.201  0.00  0.00    +0.081 C 
ATOM     26  C   UNL     1      35.825 -17.112 -21.927  0.00  0.00    +0.019 C 
ATOM     27  C   UNL     1      34.545 -18.805 -24.927  0.00  0.00    +0.003 C 
ATOM     28  C   UNL     1      34.243 -17.709 -25.724  0.00  0.00    +0.021 C 
ATOM     29  C   UNL     1      34.488 -16.455 -25.203  0.00  0.00    +0.099 C 
ENDBRANCH  19  21
ENDBRANCH   1  19
TORSDOF 6
ENDMDL
MODEL 7
REMARK VINA RESULT:     -10.5      4.116      6.658
REMARK  Name = 17754438
REMARK  6 active torsions:
REMARK  status: ('A' for Active; 'I' for Inactive)
REMARK    1  A    between atoms: N_1  and  C_19
REMARK    2  A    between atoms: C_7  and  C_12
REMARK    3  A    between atoms: N_10  and  C_15
REMARK    4  A    between atoms: C_15  and  C_16
REMARK    5  A    between atoms: C_16  and  O_17
REMARK    6  A    between atoms: C_19  and  C_21
REMARK                            x       y       z     vdW  Elec       q    Type
REMARK                         _______ _______ _______ _____ _____    ______ ____
ROOT
ATOM      1  N   UNL     1      34.457 -23.340 -17.569  0.00  0.00    -0.163 N 
ATOM      2  N   UNL     1      32.074 -23.419 -17.034  0.00  0.00    -0.378 NA
ATOM      3  N   UNL     1      35.603 -23.189 -16.876  0.00  0.00    -0.033 NA
ATOM      4  N   UNL     1      33.159 -23.035 -14.376  0.00  0.00    -0.208 NA
ATOM      5  N   UNL     1      35.286 -23.054 -15.588  0.00  0.00    -0.086 NA
ATOM      6  C   UNL     1      33.378 -23.305 -16.743  0.00  0.00    +0.267 C 
ATOM      7  C   UNL     1      31.318 -23.330 -15.916  0.00  0.00    +0.140 C 
ATOM      8  C   UNL     1      33.927 -23.123 -15.488  0.00  0.00    +0.098 C 
ATOM      9  C   UNL     1      31.838 -23.146 -14.642  0.00  0.00    +0.195 C 
ENDROOT
BRANCH   7  12
ATOM     10  N   UNL     1      27.806 -22.889 -16.397  0.00  0.00    -0.208 N 
ATOM     11  N   UNL     1      27.780 -24.233 -16.407  0.00  0.00    -0.176 NA
ATOM     12  C   UNL     1      29.901 -23.439 -16.111  0.00  0.00    +0.064 C 
ATOM     13  C   UNL     1      29.053 -22.364 -16.222  0.00  0.00    +0.088 C 
ATOM     14  C   UNL     1      29.062 -24.563 -16.232  0.00  0.00    +0.121 C 
BRANCH  10  15
ATOM     15  C   UNL     1      26.580 -22.147 -16.565  0.00  0.00    +0.148 C 
BRANCH  15  16
ATOM     16  C   UNL     1      26.384 -21.660 -17.994  0.00  0.00    +0.161 C 
BRANCH  16  17
ATOM     17  O   UNL     1      26.224 -20.248 -18.002  0.00  0.00    -0.380 OA
ATOM     18  H   UNL     1      25.297 -20.027 -18.180  0.00  0.00    +0.211 HD
ENDBRANCH  16  17
ENDBRANCH  15  16
ENDBRANCH  10  15
ENDBRANCH   7  12
BRANCH   1  19
ATOM     19  C   UNL     1      34.481 -23.514 -19.026  0.00  0.00    +0.145 C 
BRANCH  19  21
ATOM     20  N   UNL     1      34.844 -18.555 -21.729  0.00  0.00    -0.244 NA
ATOM     21  C   UNL     1      34.587 -22.208 -19.739  0.00  0.00    -0.000 C 
ATOM     22  C   UNL     1      35.837 -21.664 -20.020  0.00  0.00    -0.001 C 
ATOM     23  C   UNL     1      35.941 -20.433 -20.692  0.00  0.00    +0.017 C 
ATOM     24  C   UNL     1      33.439 -21.527 -20.124  0.00  0.00    -0.001 C 
ATOM     25  C   UNL     1      34.780 -19.737 -21.085  0.00  0.00    +0.081 C 
ATOM     26  C   UNL     1      33.543 -20.304 -20.791  0.00  0.00    +0.019 C 
ATOM     27  C   UNL     1      37.186 -19.863 -20.988  0.00  0.00    +0.003 C 
ATOM     28  C   UNL     1      37.256 -18.646 -21.651  0.00  0.00    +0.021 C 
ATOM     29  C   UNL     1      36.066 -18.039 -21.997  0.00  0.00    +0.099 C 
ENDBRANCH  19  21
ENDBRANCH   1  19
TORSDOF 6
ENDMDL
MODEL 8
REMARK VINA RESULT:     -10.0      4.487      9.476
REMARK  Name = 17754438
REMARK  6 active torsions:
REMARK  status: ('A' for Active; 'I' for Inactive)
REMARK    1  A    between atoms: N_1  and  C_19
REMARK    2  A    between atoms: C_7  and  C_12
REMARK    3  A    between atoms: N_10  and  C_15
REMARK    4  A    between atoms: C_15  and  C_16
REMARK    5  A    between atoms: C_16  and  O_17
REMARK    6  A    between atoms: C_19  and  C_21
REMARK                            x       y       z     vdW  Elec       q    Type
REMARK                         _______ _______ _______ _____ _____    ______ ____
ROOT
ATOM      1  N   UNL     1      35.587 -21.697 -19.425  0.00  0.00    -0.163 N 
ATOM      2  N   UNL     1      35.309 -20.304 -21.414  0.00  0.00    -0.378 NA
ATOM      3  N   UNL     1      36.455 -21.757 -18.396  0.00  0.00    -0.033 NA
ATOM      4  N   UNL     1      37.680 -19.079 -20.288  0.00  0.00    -0.208 NA
ATOM      5  N   UNL     1      37.359 -20.792 -18.568  0.00  0.00    -0.086 NA
ATOM      6  C   UNL     1      35.913 -20.693 -20.281  0.00  0.00    +0.267 C 
ATOM      7  C   UNL     1      35.955 -19.255 -21.972  0.00  0.00    +0.140 C 
ATOM      8  C   UNL     1      37.042 -20.130 -19.718  0.00  0.00    +0.098 C 
ATOM      9  C   UNL     1      37.091 -18.668 -21.433  0.00  0.00    +0.195 C 
ENDROOT
BRANCH   7  12
ATOM     10  N   UNL     1      34.896 -17.413 -24.844  0.00  0.00    -0.208 N 
ATOM     11  N   UNL     1      34.251 -18.549 -25.163  0.00  0.00    -0.176 NA
ATOM     12  C   UNL     1      35.392 -18.756 -23.194  0.00  0.00    +0.064 C 
ATOM     13  C   UNL     1      35.594 -17.485 -23.674  0.00  0.00    +0.088 C 
ATOM     14  C   UNL     1      34.558 -19.365 -24.151  0.00  0.00    +0.121 C 
BRANCH  10  15
ATOM     15  C   UNL     1      34.807 -16.269 -25.720  0.00  0.00    +0.148 C 
BRANCH  15  16
ATOM     16  C   UNL     1      33.689 -15.315 -25.321  0.00  0.00    +0.161 C 
BRANCH  16  17
ATOM     17  O   UNL     1      32.921 -14.970 -26.467  0.00  0.00    -0.380 OA
ATOM     18  H   UNL     1      32.743 -14.017 -26.462  0.00  0.00    +0.211 HD
ENDBRANCH  16  17
ENDBRANCH  15  16
ENDBRANCH  10  15
ENDBRANCH   7  12
BRANCH   1  19
ATOM     19  C   UNL     1      34.467 -22.640 -19.515  0.00  0.00    +0.145 C 
BRANCH  19  21
ATOM     20  N   UNL     1      32.223 -23.698 -14.429  0.00  0.00    -0.244 NA
ATOM     21  C   UNL     1      33.867 -22.918 -18.179  0.00  0.00    -0.000 C 
ATOM     22  C   UNL     1      32.504 -22.724 -17.970  0.00  0.00    -0.001 C 
ATOM     23  C   UNL     1      31.934 -22.984 -16.711  0.00  0.00    +0.017 C 
ATOM     24  C   UNL     1      34.664 -23.368 -17.133  0.00  0.00    -0.001 C 
ATOM     25  C   UNL     1      32.738 -23.441 -15.646  0.00  0.00    +0.081 C 
ATOM     26  C   UNL     1      34.097 -23.625 -15.883  0.00  0.00    +0.019 C 
ATOM     27  C   UNL     1      30.566 -22.798 -16.474  0.00  0.00    +0.003 C 
ATOM     28  C   UNL     1      30.033 -23.062 -15.220  0.00  0.00    +0.021 C 
ATOM     29  C   UNL     1      30.897 -23.507 -14.241  0.00  0.00    +0.099 C 
ENDBRANCH  19  21
ENDBRANCH   1  19
TORSDOF 6
ENDMDL
MODEL 9
REMARK VINA RESULT:      -9.8      3.264      8.827
REMARK  Name = 17754438
REMARK  6 active torsions:
REMARK  status: ('A' for Active; 'I' for Inactive)
REMARK    1  A    between atoms: N_1  and  C_19
REMARK    2  A    between atoms: C_7  and  C_12
REMARK    3  A    between atoms: N_10  and  C_15
REMARK    4  A    between atoms: C_15  and  C_16
REMARK    5  A    between atoms: C_16  and  O_17
REMARK    6  A    between atoms: C_19  and  C_21
REMARK                            x       y       z     vdW  Elec       q    Type
REMARK                         _______ _______ _______ _____ _____    ______ ____
ROOT
ATOM      1  N   UNL     1      35.938 -22.440 -17.712  0.00  0.00    -0.163 N 
ATOM      2  N   UNL     1      35.889 -20.981 -19.672  0.00  0.00    -0.378 NA
ATOM      3  N   UNL     1      35.082 -23.295 -17.117  0.00  0.00    -0.033 NA
ATOM      4  N   UNL     1      33.227 -22.111 -19.837  0.00  0.00    -0.208 NA
ATOM      5  N   UNL     1      33.950 -23.296 -17.821  0.00  0.00    -0.086 NA
ATOM      6  C   UNL     1      35.375 -21.873 -18.811  0.00  0.00    +0.267 C 
ATOM      7  C   UNL     1      34.995 -20.671 -20.639  0.00  0.00    +0.140 C 
ATOM      8  C   UNL     1      34.112 -22.431 -18.863  0.00  0.00    +0.098 C 
ATOM      9  C   UNL     1      33.720 -21.212 -20.719  0.00  0.00    +0.195 C 
ENDROOT
BRANCH   7  12
ATOM     10  N   UNL     1      35.493 -18.460 -23.400  0.00  0.00    -0.208 N 
ATOM     11  N   UNL     1      36.651 -18.170 -22.781  0.00  0.00    -0.176 NA
ATOM     12  C   UNL     1      35.442 -19.721 -21.617  0.00  0.00    +0.064 C 
ATOM     13  C   UNL     1      34.733 -19.382 -22.744  0.00  0.00    +0.088 C 
ATOM     14  C   UNL     1      36.613 -18.944 -21.692  0.00  0.00    +0.121 C 
BRANCH  10  15
ATOM     15  C   UNL     1      35.162 -17.804 -24.642  0.00  0.00    +0.148 C 
BRANCH  15  16
ATOM     16  C   UNL     1      34.808 -16.335 -24.451  0.00  0.00    +0.161 C 
BRANCH  16  17
ATOM     17  O   UNL     1      35.942 -15.627 -23.967  0.00  0.00    -0.380 OA
ATOM     18  H   UNL     1      36.459 -16.204 -23.385  0.00  0.00    +0.211 HD
ENDBRANCH  16  17
ENDBRANCH  15  16
ENDBRANCH  10  15
ENDBRANCH   7  12
BRANCH   1  19
ATOM     19  C   UNL     1      37.281 -22.223 -17.163  0.00  0.00    +0.145 C 
BRANCH  19  21
ATOM     20  N   UNL     1      38.272 -25.445 -12.618  0.00  0.00    -0.244 NA
ATOM     21  C   UNL     1      37.533 -23.069 -15.961  0.00  0.00    -0.000 C 
ATOM     22  C   UNL     1      36.702 -22.971 -14.849  0.00  0.00    -0.001 C 
ATOM     23  C   UNL     1      36.937 -23.766 -13.714  0.00  0.00    +0.017 C 
ATOM     24  C   UNL     1      38.601 -23.957 -15.944  0.00  0.00    -0.001 C 
ATOM     25  C   UNL     1      38.019 -24.670 -13.689  0.00  0.00    +0.081 C 
ATOM     26  C   UNL     1      38.834 -24.747 -14.815  0.00  0.00    +0.019 C 
ATOM     27  C   UNL     1      36.115 -23.687 -12.581  0.00  0.00    +0.003 C 
ATOM     28  C   UNL     1      36.374 -24.485 -11.475  0.00  0.00    +0.021 C 
ATOM     29  C   UNL     1      37.455 -25.339 -11.545  0.00  0.00    +0.099 C 
ENDBRANCH  19  21
ENDBRANCH   1  19
TORSDOF 6
ENDMDL
