MODEL 1
REMARK VINA RESULT:     -11.3      0.000      0.000
REMARK  Name = 71183216
REMARK  5 active torsions:
REMARK  status: ('A' for Active; 'I' for Inactive)
REMARK    1  A    between atoms: N_3  and  C_24
REMARK    2  A    between atoms: C_10  and  C_13
REMARK    3  A    between atoms: C_18  and  O_19
REMARK    4  A    between atoms: O_19  and  C_23
REMARK    5  A    between atoms: C_24  and  C_27
REMARK                            x       y       z     vdW  Elec       q    Type
REMARK                         _______ _______ _______ _____ _____    ______ ____
ROOT
ATOM      1  O   UNL     1      35.073 -16.085 -26.085  0.00  0.00    -0.473 OA
ATOM      2  O   UNL     1      35.792 -14.585 -22.520  0.00  0.00    -0.270 OA
ATOM      3  N   UNL     1      34.187 -14.174 -24.164  0.00  0.00    -0.259 N 
ATOM      4  C   UNL     1      33.209 -14.741 -25.089  0.00  0.00    +0.142 C 
ATOM      5  C   UNL     1      35.004 -16.437 -23.692  0.00  0.00    +0.087 C 
ATOM      6  C   UNL     1      33.886 -15.318 -26.327  0.00  0.00    +0.227 C 
ATOM      7  C   UNL     1      35.033 -14.983 -23.401  0.00  0.00    +0.253 C 
ATOM      8  C   UNL     1      34.989 -16.921 -25.007  0.00  0.00    +0.143 C 
ATOM      9  C   UNL     1      35.027 -17.335 -22.620  0.00  0.00    +0.008 C 
ATOM     10  C   UNL     1      35.026 -18.708 -22.866  0.00  0.00    +0.000 C 
ATOM     11  C   UNL     1      35.010 -18.294 -25.249  0.00  0.00    +0.037 C 
ATOM     12  C   UNL     1      35.017 -19.187 -24.177  0.00  0.00    +0.003 C 
ENDROOT
BRANCH  10  13
ATOM     13  C   UNL     1      35.041 -19.639 -21.759  0.00  0.00    +0.000 C 
ATOM     14  C   UNL     1      36.252 -20.019 -21.181  0.00  0.00    +0.003 C 
ATOM     15  C   UNL     1      33.842 -20.161 -21.271  0.00  0.00    +0.003 C 
ATOM     16  C   UNL     1      36.265 -20.918 -20.115  0.00  0.00    +0.037 C 
ATOM     17  C   UNL     1      33.855 -21.060 -20.205  0.00  0.00    +0.037 C 
ATOM     18  C   UNL     1      35.067 -21.439 -19.628  0.00  0.00    +0.147 C 
BRANCH  18  19
ATOM     19  O   UNL     1      35.080 -22.318 -18.588  0.00  0.00    -0.404 OA
BRANCH  19  23
ATOM     20  F   UNL     1      32.820 -22.393 -18.249  0.00  0.00    -0.133 F 
ATOM     21  F   UNL     1      34.104 -23.849 -17.246  0.00  0.00    -0.133 F 
ATOM     22  F   UNL     1      33.781 -24.016 -19.401  0.00  0.00    -0.133 F 
ATOM     23  C   UNL     1      33.936 -23.140 -18.386  0.00  0.00    +0.575 C 
ENDBRANCH  19  23
ENDBRANCH  18  19
ENDBRANCH  10  13
BRANCH   3  24
ATOM     24  C   UNL     1      34.227 -12.726 -24.037  0.00  0.00    +0.194 C 
BRANCH  24  27
ATOM     25  N   UNL     1      32.787 -13.096 -22.123  0.00  0.00    -0.217 NA
ATOM     26  N   UNL     1      32.822 -10.938 -23.197  0.00  0.00    -0.195 NA
ATOM     27  C   UNL     1      33.211 -12.220 -23.054  0.00  0.00    +0.028 C 
ATOM     28  C   UNL     1      31.874 -12.608 -21.256  0.00  0.00    +0.164 C 
ATOM     29  C   UNL     1      31.909 -10.517 -22.298  0.00  0.00    +0.107 C 
ATOM     30  C   UNL     1      31.394 -11.315 -21.296  0.00  0.00    +0.022 C 
ENDBRANCH  24  27
ENDBRANCH   3  24
TORSDOF 5
ENDMDL
MODEL 2
REMARK VINA RESULT:     -11.0      5.543      9.992
REMARK  Name = 71183216
REMARK  5 active torsions:
REMARK  status: ('A' for Active; 'I' for Inactive)
REMARK    1  A    between atoms: N_3  and  C_24
REMARK    2  A    between atoms: C_10  and  C_13
REMARK    3  A    between atoms: C_18  and  O_19
REMARK    4  A    between atoms: O_19  and  C_23
REMARK    5  A    between atoms: C_24  and  C_27
REMARK                            x       y       z     vdW  Elec       q    Type
REMARK                         _______ _______ _______ _____ _____    ______ ____
ROOT
ATOM      1  O   UNL     1      36.429 -23.477 -16.158  0.00  0.00    -0.473 OA
ATOM      2  O   UNL     1      33.513 -24.306 -18.664  0.00  0.00    -0.270 OA
ATOM      3  N   UNL     1      33.602 -23.742 -16.400  0.00  0.00    -0.259 N 
ATOM      4  C   UNL     1      34.135 -22.838 -15.385  0.00  0.00    +0.142 C 
ATOM      5  C   UNL     1      35.113 -22.731 -18.045  0.00  0.00    +0.087 C 
ATOM      6  C   UNL     1      35.580 -23.180 -15.042  0.00  0.00    +0.227 C 
ATOM      7  C   UNL     1      34.003 -23.665 -17.737  0.00  0.00    +0.253 C 
ATOM      8  C   UNL     1      36.251 -22.651 -17.232  0.00  0.00    +0.143 C 
ATOM      9  C   UNL     1      35.025 -21.943 -19.198  0.00  0.00    +0.008 C 
ATOM     10  C   UNL     1      36.067 -21.075 -19.525  0.00  0.00    +0.000 C 
ATOM     11  C   UNL     1      37.300 -21.799 -17.575  0.00  0.00    +0.037 C 
ATOM     12  C   UNL     1      37.202 -21.002 -18.715  0.00  0.00    +0.003 C 
ENDROOT
BRANCH  10  13
ATOM     13  C   UNL     1      35.974 -20.251 -20.711  0.00  0.00    +0.000 C 
ATOM     14  C   UNL     1      37.058 -19.466 -21.102  0.00  0.00    +0.003 C 
ATOM     15  C   UNL     1      34.798 -20.240 -21.461  0.00  0.00    +0.003 C 
ATOM     16  C   UNL     1      36.967 -18.670 -22.244  0.00  0.00    +0.037 C 
ATOM     17  C   UNL     1      34.707 -19.445 -22.604  0.00  0.00    +0.037 C 
ATOM     18  C   UNL     1      35.792 -18.659 -22.995  0.00  0.00    +0.147 C 
BRANCH  18  19
ATOM     19  O   UNL     1      35.703 -17.882 -24.108  0.00  0.00    -0.404 OA
BRANCH  19  23
ATOM     20  F   UNL     1      34.032 -16.435 -24.696  0.00  0.00    -0.133 F 
ATOM     21  F   UNL     1      36.066 -15.680 -24.445  0.00  0.00    -0.133 F 
ATOM     22  F   UNL     1      34.923 -16.275 -22.680  0.00  0.00    -0.133 F 
ATOM     23  C   UNL     1      35.164 -16.571 -23.975  0.00  0.00    +0.575 C 
ENDBRANCH  19  23
ENDBRANCH  18  19
ENDBRANCH  10  13
BRANCH   3  24
ATOM     24  C   UNL     1      32.603 -24.711 -15.977  0.00  0.00    +0.194 C 
BRANCH  24  27
ATOM     25  N   UNL     1      31.081 -22.945 -16.640  0.00  0.00    -0.217 NA
ATOM     26  N   UNL     1      30.222 -24.934 -15.583  0.00  0.00    -0.195 NA
ATOM     27  C   UNL     1      31.210 -24.160 -16.073  0.00  0.00    +0.028 C 
ATOM     28  C   UNL     1      29.815 -22.481 -16.710  0.00  0.00    +0.164 C 
ATOM     29  C   UNL     1      28.984 -24.409 -15.685  0.00  0.00    +0.107 C 
ATOM     30  C   UNL     1      28.717 -23.175 -16.245  0.00  0.00    +0.022 C 
ENDBRANCH  24  27
ENDBRANCH   3  24
TORSDOF 5
ENDMDL
MODEL 3
REMARK VINA RESULT:     -10.9      6.104     10.161
REMARK  Name = 71183216
REMARK  5 active torsions:
REMARK  status: ('A' for Active; 'I' for Inactive)
REMARK    1  A    between atoms: N_3  and  C_24
REMARK    2  A    between atoms: C_10  and  C_13
REMARK    3  A    between atoms: C_18  and  O_19
REMARK    4  A    between atoms: O_19  and  C_23
REMARK    5  A    between atoms: C_24  and  C_27
REMARK                            x       y       z     vdW  Elec       q    Type
REMARK                         _______ _______ _______ _____ _____    ______ ____
ROOT
ATOM      1  O   UNL     1      36.415 -23.856 -15.834  0.00  0.00    -0.473 OA
ATOM      2  O   UNL     1      33.090 -24.355 -17.875  0.00  0.00    -0.270 OA
ATOM      3  N   UNL     1      33.571 -23.812 -15.656  0.00  0.00    -0.259 N 
ATOM      4  C   UNL     1      34.342 -22.974 -14.741  0.00  0.00    +0.142 C 
ATOM      5  C   UNL     1      34.925 -22.965 -17.517  0.00  0.00    +0.087 C 
ATOM      6  C   UNL     1      35.777 -23.473 -14.609  0.00  0.00    +0.227 C 
ATOM      7  C   UNL     1      33.777 -23.773 -17.038  0.00  0.00    +0.253 C 
ATOM      8  C   UNL     1      36.172 -23.012 -16.881  0.00  0.00    +0.143 C 
ATOM      9  C   UNL     1      34.753 -22.167 -18.654  0.00  0.00    +0.008 C 
ATOM     10  C   UNL     1      35.823 -21.417 -19.141  0.00  0.00    +0.000 C 
ATOM     11  C   UNL     1      37.245 -22.277 -17.384  0.00  0.00    +0.037 C 
ATOM     12  C   UNL     1      37.066 -21.470 -18.507  0.00  0.00    +0.003 C 
ENDROOT
BRANCH  10  13
ATOM     13  C   UNL     1      35.646 -20.583 -20.310  0.00  0.00    +0.000 C 
ATOM     14  C   UNL     1      34.390 -20.476 -20.908  0.00  0.00    +0.003 C 
ATOM     15  C   UNL     1      36.733 -19.888 -20.841  0.00  0.00    +0.003 C 
ATOM     16  C   UNL     1      34.221 -19.673 -22.036  0.00  0.00    +0.037 C 
ATOM     17  C   UNL     1      36.564 -19.086 -21.970  0.00  0.00    +0.037 C 
ATOM     18  C   UNL     1      35.308 -18.979 -22.568  0.00  0.00    +0.147 C 
BRANCH  18  19
ATOM     19  O   UNL     1      35.143 -18.197 -23.669  0.00  0.00    -0.404 OA
BRANCH  19  23
ATOM     20  F   UNL     1      35.370 -19.973 -25.092  0.00  0.00    -0.133 F 
ATOM     21  F   UNL     1      34.975 -17.986 -25.911  0.00  0.00    -0.133 F 
ATOM     22  F   UNL     1      33.379 -19.042 -24.855  0.00  0.00    -0.133 F 
ATOM     23  C   UNL     1      34.710 -18.816 -24.876  0.00  0.00    +0.575 C 
ENDBRANCH  19  23
ENDBRANCH  18  19
ENDBRANCH  10  13
BRANCH   3  24
ATOM     24  C   UNL     1      32.547 -24.668 -15.080  0.00  0.00    +0.194 C 
BRANCH  24  27
ATOM     25  N   UNL     1      30.323 -25.061 -15.958  0.00  0.00    -0.217 NA
ATOM     26  N   UNL     1      30.894 -22.895 -15.068  0.00  0.00    -0.195 NA
ATOM     27  C   UNL     1      31.163 -24.176 -15.389  0.00  0.00    +0.028 C 
ATOM     28  C   UNL     1      29.088 -24.585 -16.223  0.00  0.00    +0.164 C 
ATOM     29  C   UNL     1      29.642 -22.486 -15.360  0.00  0.00    +0.107 C 
ATOM     30  C   UNL     1      28.687 -23.295 -15.943  0.00  0.00    +0.022 C 
ENDBRANCH  24  27
ENDBRANCH   3  24
TORSDOF 5
ENDMDL
MODEL 4
REMARK VINA RESULT:     -10.4      5.498      9.643
REMARK  Name = 71183216
REMARK  5 active torsions:
REMARK  status: ('A' for Active; 'I' for Inactive)
REMARK    1  A    between atoms: N_3  and  C_24
REMARK    2  A    between atoms: C_10  and  C_13
REMARK    3  A    between atoms: C_18  and  O_19
REMARK    4  A    between atoms: O_19  and  C_23
REMARK    5  A    between atoms: C_24  and  C_27
REMARK                            x       y       z     vdW  Elec       q    Type
REMARK                         _______ _______ _______ _____ _____    ______ ____
ROOT
ATOM      1  O   UNL     1      37.004 -22.548 -17.704  0.00  0.00    -0.473 OA
ATOM      2  O   UNL     1      33.897 -23.619 -19.866  0.00  0.00    -0.270 OA
ATOM      3  N   UNL     1      34.214 -23.122 -17.607  0.00  0.00    -0.259 N 
ATOM      4  C   UNL     1      34.772 -22.197 -16.624  0.00  0.00    +0.142 C 
ATOM      5  C   UNL     1      35.384 -21.894 -19.377  0.00  0.00    +0.087 C 
ATOM      6  C   UNL     1      36.278 -22.386 -16.479  0.00  0.00    +0.227 C 
ATOM      7  C   UNL     1      34.430 -22.957 -18.978  0.00  0.00    +0.253 C 
ATOM      8  C   UNL     1      36.602 -21.713 -18.709  0.00  0.00    +0.143 C 
ATOM      9  C   UNL     1      35.064 -21.084 -20.472  0.00  0.00    +0.008 C 
ATOM     10  C   UNL     1      35.955 -20.093 -20.884  0.00  0.00    +0.000 C 
ATOM     11  C   UNL     1      37.500 -20.737 -19.138  0.00  0.00    +0.037 C 
ATOM     12  C   UNL     1      37.170 -19.919 -20.219  0.00  0.00    +0.003 C 
ENDROOT
BRANCH  10  13
ATOM     13  C   UNL     1      35.623 -19.247 -22.010  0.00  0.00    +0.000 C 
ATOM     14  C   UNL     1      34.956 -19.781 -23.113  0.00  0.00    +0.003 C 
ATOM     15  C   UNL     1      35.972 -17.896 -21.993  0.00  0.00    +0.003 C 
ATOM     16  C   UNL     1      34.638 -18.965 -24.198  0.00  0.00    +0.037 C 
ATOM     17  C   UNL     1      35.653 -17.080 -23.078  0.00  0.00    +0.037 C 
ATOM     18  C   UNL     1      34.986 -17.614 -24.181  0.00  0.00    +0.147 C 
BRANCH  18  19
ATOM     19  O   UNL     1      34.676 -16.818 -25.240  0.00  0.00    -0.404 OA
BRANCH  19  23
ATOM     20  F   UNL     1      35.589 -14.880 -24.438  0.00  0.00    -0.133 F 
ATOM     21  F   UNL     1      33.455 -15.261 -24.155  0.00  0.00    -0.133 F 
ATOM     22  F   UNL     1      34.198 -14.776 -26.153  0.00  0.00    -0.133 F 
ATOM     23  C   UNL     1      34.492 -15.426 -25.007  0.00  0.00    +0.575 C 
ENDBRANCH  19  23
ENDBRANCH  18  19
ENDBRANCH  10  13
BRANCH   3  24
ATOM     24  C   UNL     1      33.389 -24.211 -17.109  0.00  0.00    +0.194 C 
BRANCH  24  27
ATOM     25  N   UNL     1      31.280 -23.018 -17.166  0.00  0.00    -0.217 NA
ATOM     26  N   UNL     1      32.046 -23.999 -15.102  0.00  0.00    -0.195 NA
ATOM     27  C   UNL     1      32.157 -23.709 -16.413  0.00  0.00    +0.028 C 
ATOM     28  C   UNL     1      30.185 -22.582 -16.508  0.00  0.00    +0.164 C 
ATOM     29  C   UNL     1      30.928 -23.533 -14.509  0.00  0.00    +0.107 C 
ATOM     30  C   UNL     1      29.953 -22.812 -15.168  0.00  0.00    +0.022 C 
ENDBRANCH  24  27
ENDBRANCH   3  24
TORSDOF 5
ENDMDL
MODEL 5
REMARK VINA RESULT:     -10.3      3.955      7.004
REMARK  Name = 71183216
REMARK  5 active torsions:
REMARK  status: ('A' for Active; 'I' for Inactive)
REMARK    1  A    between atoms: N_3  and  C_24
REMARK    2  A    between atoms: C_10  and  C_13
REMARK    3  A    between atoms: C_18  and  O_19
REMARK    4  A    between atoms: O_19  and  C_23
REMARK    5  A    between atoms: C_24  and  C_27
REMARK                            x       y       z     vdW  Elec       q    Type
REMARK                         _______ _______ _______ _____ _____    ______ ____
ROOT
ATOM      1  O   UNL     1      30.905 -10.112 -19.605  0.00  0.00    -0.473 OA
ATOM      2  O   UNL     1      31.457  -9.826 -23.489  0.00  0.00    -0.270 OA
ATOM      3  N   UNL     1      31.994  -8.471 -21.666  0.00  0.00    -0.259 N 
ATOM      4  C   UNL     1      32.577  -8.394 -20.329  0.00  0.00    +0.142 C 
ATOM      5  C   UNL     1      32.114 -10.917 -21.539  0.00  0.00    +0.087 C 
ATOM      6  C   UNL     1      31.607  -8.907 -19.271  0.00  0.00    +0.227 C 
ATOM      7  C   UNL     1      31.825  -9.692 -22.324  0.00  0.00    +0.253 C 
ATOM      8  C   UNL     1      31.678 -11.059 -20.215  0.00  0.00    +0.143 C 
ATOM      9  C   UNL     1      32.809 -11.961 -22.158  0.00  0.00    +0.008 C 
ATOM     10  C   UNL     1      33.072 -13.134 -21.451  0.00  0.00    +0.000 C 
ATOM     11  C   UNL     1      31.923 -12.243 -19.519  0.00  0.00    +0.037 C 
ATOM     12  C   UNL     1      32.631 -13.275 -20.134  0.00  0.00    +0.003 C 
ENDROOT
BRANCH  10  13
ATOM     13  C   UNL     1      33.799 -14.212 -22.086  0.00  0.00    +0.000 C 
ATOM     14  C   UNL     1      33.810 -14.323 -23.476  0.00  0.00    +0.003 C 
ATOM     15  C   UNL     1      34.487 -15.142 -21.306  0.00  0.00    +0.003 C 
ATOM     16  C   UNL     1      34.510 -15.364 -24.087  0.00  0.00    +0.037 C 
ATOM     17  C   UNL     1      35.188 -16.182 -21.918  0.00  0.00    +0.037 C 
ATOM     18  C   UNL     1      35.198 -16.294 -23.308  0.00  0.00    +0.147 C 
BRANCH  18  19
ATOM     19  O   UNL     1      35.880 -17.309 -23.905  0.00  0.00    -0.404 OA
BRANCH  19  23
ATOM     20  F   UNL     1      34.455 -18.861 -23.013  0.00  0.00    -0.133 F 
ATOM     21  F   UNL     1      36.138 -19.527 -24.236  0.00  0.00    -0.133 F 
ATOM     22  F   UNL     1      34.446 -18.534 -25.199  0.00  0.00    -0.133 F 
ATOM     23  C   UNL     1      35.212 -18.553 -24.088  0.00  0.00    +0.575 C 
ENDBRANCH  19  23
ENDBRANCH  18  19
ENDBRANCH  10  13
BRANCH   3  24
ATOM     24  C   UNL     1      31.626  -7.221 -22.310  0.00  0.00    +0.194 C 
BRANCH  24  27
ATOM     25  N   UNL     1      33.942  -7.143 -23.020  0.00  0.00    -0.217 NA
ATOM     26  N   UNL     1      32.256  -5.990 -24.300  0.00  0.00    -0.195 NA
ATOM     27  C   UNL     1      32.677  -6.754 -23.274  0.00  0.00    +0.028 C 
ATOM     28  C   UNL     1      34.861  -6.705 -23.906  0.00  0.00    +0.164 C 
ATOM     29  C   UNL     1      33.226  -5.589 -25.147  0.00  0.00    +0.107 C 
ATOM     30  C   UNL     1      34.559  -5.918 -24.998  0.00  0.00    +0.022 C 
ENDBRANCH  24  27
ENDBRANCH   3  24
TORSDOF 5
ENDMDL
MODEL 6
REMARK VINA RESULT:      -9.5      4.138      6.988
REMARK  Name = 71183216
REMARK  5 active torsions:
REMARK  status: ('A' for Active; 'I' for Inactive)
REMARK    1  A    between atoms: N_3  and  C_24
REMARK    2  A    between atoms: C_10  and  C_13
REMARK    3  A    between atoms: C_18  and  O_19
REMARK    4  A    between atoms: O_19  and  C_23
REMARK    5  A    between atoms: C_24  and  C_27
REMARK                            x       y       z     vdW  Elec       q    Type
REMARK                         _______ _______ _______ _____ _____    ______ ____
ROOT
ATOM      1  O   UNL     1      31.424  -9.140 -22.280  0.00  0.00    -0.473 OA
ATOM      2  O   UNL     1      34.441  -9.097 -24.804  0.00  0.00    -0.270 OA
ATOM      3  N   UNL     1      34.006  -8.036 -22.771  0.00  0.00    -0.259 N 
ATOM      4  C   UNL     1      33.558  -8.178 -21.389  0.00  0.00    +0.142 C 
ATOM      5  C   UNL     1      33.308 -10.348 -23.199  0.00  0.00    +0.087 C 
ATOM      6  C   UNL     1      32.039  -8.286 -21.307  0.00  0.00    +0.227 C 
ATOM      7  C   UNL     1      33.972  -9.107 -23.669  0.00  0.00    +0.253 C 
ATOM      8  C   UNL     1      32.095 -10.311 -22.501  0.00  0.00    +0.143 C 
ATOM      9  C   UNL     1      33.903 -11.578 -23.497  0.00  0.00    +0.008 C 
ATOM     10  C   UNL     1      33.287 -12.762 -23.089  0.00  0.00    +0.000 C 
ATOM     11  C   UNL     1      31.471 -11.497 -22.114  0.00  0.00    +0.037 C 
ATOM     12  C   UNL     1      32.074 -12.722 -22.399  0.00  0.00    +0.003 C 
ENDROOT
BRANCH  10  13
ATOM     13  C   UNL     1      33.904 -14.036 -23.388  0.00  0.00    +0.000 C 
ATOM     14  C   UNL     1      34.555 -14.750 -22.381  0.00  0.00    +0.003 C 
ATOM     15  C   UNL     1      33.850 -14.550 -24.684  0.00  0.00    +0.003 C 
ATOM     16  C   UNL     1      35.151 -15.977 -22.670  0.00  0.00    +0.037 C 
ATOM     17  C   UNL     1      34.446 -15.777 -24.973  0.00  0.00    +0.037 C 
ATOM     18  C   UNL     1      35.097 -16.491 -23.966  0.00  0.00    +0.147 C 
BRANCH  18  19
ATOM     19  O   UNL     1      35.680 -17.688 -24.248  0.00  0.00    -0.404 OA
BRANCH  19  23
ATOM     20  F   UNL     1      34.548 -19.039 -22.790  0.00  0.00    -0.133 F 
ATOM     21  F   UNL     1      35.652 -19.937 -24.449  0.00  0.00    -0.133 F 
ATOM     22  F   UNL     1      33.805 -18.845 -24.863  0.00  0.00    -0.133 F 
ATOM     23  C   UNL     1      34.905 -18.871 -24.081  0.00  0.00    +0.575 C 
ENDBRANCH  19  23
ENDBRANCH  18  19
ENDBRANCH  10  13
BRANCH   3  24
ATOM     24  C   UNL     1      34.528  -6.741 -23.177  0.00  0.00    +0.194 C 
BRANCH  24  27
ATOM     25  N   UNL     1      32.531  -5.467 -22.664  0.00  0.00    -0.217 NA
ATOM     26  N   UNL     1      33.465  -5.389 -24.885  0.00  0.00    -0.195 NA
ATOM     27  C   UNL     1      33.436  -5.804 -23.604  0.00  0.00    +0.028 C 
ATOM     28  C   UNL     1      31.564  -4.623 -23.082  0.00  0.00    +0.164 C 
ATOM     29  C   UNL     1      32.470  -4.548 -25.234  0.00  0.00    +0.107 C 
ATOM     30  C   UNL     1      31.482  -4.127 -24.367  0.00  0.00    +0.022 C 
ENDBRANCH  24  27
ENDBRANCH   3  24
TORSDOF 5
ENDMDL
MODEL 7
REMARK VINA RESULT:      -9.5      4.087      7.043
REMARK  Name = 71183216
REMARK  5 active torsions:
REMARK  status: ('A' for Active; 'I' for Inactive)
REMARK    1  A    between atoms: N_3  and  C_24
REMARK    2  A    between atoms: C_10  and  C_13
REMARK    3  A    between atoms: C_18  and  O_19
REMARK    4  A    between atoms: O_19  and  C_23
REMARK    5  A    between atoms: C_24  and  C_27
REMARK                            x       y       z     vdW  Elec       q    Type
REMARK                         _______ _______ _______ _____ _____    ______ ____
ROOT
ATOM      1  O   UNL     1      32.898 -21.655 -20.746  0.00  0.00    -0.473 OA
ATOM      2  O   UNL     1      36.828 -21.664 -20.903  0.00  0.00    -0.270 OA
ATOM      3  N   UNL     1      35.193 -20.026 -21.200  0.00  0.00    -0.259 N 
ATOM      4  C   UNL     1      33.981 -19.398 -20.679  0.00  0.00    +0.142 C 
ATOM      5  C   UNL     1      34.970 -21.783 -19.504  0.00  0.00    +0.087 C 
ATOM      6  C   UNL     1      32.748 -20.247 -20.969  0.00  0.00    +0.227 C 
ATOM      7  C   UNL     1      35.752 -21.155 -20.597  0.00  0.00    +0.253 C 
ATOM      8  C   UNL     1      33.586 -21.971 -19.608  0.00  0.00    +0.143 C 
ATOM      9  C   UNL     1      35.649 -22.223 -18.363  0.00  0.00    +0.008 C 
ATOM     10  C   UNL     1      34.941 -22.839 -17.331  0.00  0.00    +0.000 C 
ATOM     11  C   UNL     1      32.886 -22.608 -18.584  0.00  0.00    +0.037 C 
ATOM     12  C   UNL     1      33.563 -23.031 -17.440  0.00  0.00    +0.003 C 
ENDROOT
BRANCH  10  13
ATOM     13  C   UNL     1      35.639 -23.287 -16.145  0.00  0.00    +0.000 C 
ATOM     14  C   UNL     1      34.925 -23.846 -15.084  0.00  0.00    +0.003 C 
ATOM     15  C   UNL     1      37.025 -23.158 -16.061  0.00  0.00    +0.003 C 
ATOM     16  C   UNL     1      35.598 -24.276 -13.941  0.00  0.00    +0.037 C 
ATOM     17  C   UNL     1      37.698 -23.588 -14.918  0.00  0.00    +0.037 C 
ATOM     18  C   UNL     1      36.985 -24.146 -13.857  0.00  0.00    +0.147 C 
BRANCH  18  19
ATOM     19  O   UNL     1      37.641 -24.565 -12.740  0.00  0.00    -0.404 OA
BRANCH  19  23
ATOM     20  F   UNL     1      39.614 -25.659 -13.116  0.00  0.00    -0.133 F 
ATOM     21  F   UNL     1      37.735 -26.591 -13.730  0.00  0.00    -0.133 F 
ATOM     22  F   UNL     1      38.218 -26.463 -11.602  0.00  0.00    -0.133 F 
ATOM     23  C   UNL     1      38.315 -25.818 -12.784  0.00  0.00    +0.575 C 
ENDBRANCH  19  23
ENDBRANCH  18  19
ENDBRANCH  10  13
BRANCH   3  24
ATOM     24  C   UNL     1      35.823 -19.409 -22.356  0.00  0.00    +0.194 C 
BRANCH  24  27
ATOM     25  N   UNL     1      35.324 -17.454 -23.699  0.00  0.00    -0.217 NA
ATOM     26  N   UNL     1      35.420 -17.265 -21.298  0.00  0.00    -0.195 NA
ATOM     27  C   UNL     1      35.501 -17.946 -22.458  0.00  0.00    +0.028 C 
ATOM     28  C   UNL     1      35.036 -16.136 -23.753  0.00  0.00    +0.164 C 
ATOM     29  C   UNL     1      35.130 -15.954 -21.426  0.00  0.00    +0.107 C 
ATOM     30  C   UNL     1      34.925 -15.329 -22.640  0.00  0.00    +0.022 C 
ENDBRANCH  24  27
ENDBRANCH   3  24
TORSDOF 5
ENDMDL
MODEL 8
REMARK VINA RESULT:      -9.5      5.713      9.413
REMARK  Name = 71183216
REMARK  5 active torsions:
REMARK  status: ('A' for Active; 'I' for Inactive)
REMARK    1  A    between atoms: N_3  and  C_24
REMARK    2  A    between atoms: C_10  and  C_13
REMARK    3  A    between atoms: C_18  and  O_19
REMARK    4  A    between atoms: O_19  and  C_23
REMARK    5  A    between atoms: C_24  and  C_27
REMARK                            x       y       z     vdW  Elec       q    Type
REMARK                         _______ _______ _______ _____ _____    ______ ____
ROOT
ATOM      1  O   UNL     1      34.771 -18.688 -24.289  0.00  0.00    -0.473 OA
ATOM      2  O   UNL     1      35.152 -16.931 -20.790  0.00  0.00    -0.270 OA
ATOM      3  N   UNL     1      36.559 -18.241 -22.115  0.00  0.00    -0.259 N 
ATOM      4  C   UNL     1      37.118 -18.477 -23.443  0.00  0.00    +0.142 C 
ATOM      5  C   UNL     1      35.020 -16.601 -23.092  0.00  0.00    +0.087 C 
ATOM      6  C   UNL     1      36.115 -19.182 -24.350  0.00  0.00    +0.227 C 
ATOM      7  C   UNL     1      35.581 -17.268 -21.892  0.00  0.00    +0.253 C 
ATOM      8  C   UNL     1      34.676 -17.325 -24.241  0.00  0.00    +0.143 C 
ATOM      9  C   UNL     1      34.803 -15.220 -23.049  0.00  0.00    +0.008 C 
ATOM     10  C   UNL     1      34.254 -14.570 -24.155  0.00  0.00    +0.000 C 
ATOM     11  C   UNL     1      34.107 -16.676 -25.335  0.00  0.00    +0.037 C 
ATOM     12  C   UNL     1      33.907 -15.296 -25.296  0.00  0.00    +0.003 C 
ENDROOT
BRANCH  10  13
ATOM     13  C   UNL     1      34.037 -13.140 -24.118  0.00  0.00    +0.000 C 
ATOM     14  C   UNL     1      34.541 -12.331 -25.136  0.00  0.00    +0.003 C 
ATOM     15  C   UNL     1      33.326 -12.571 -23.062  0.00  0.00    +0.003 C 
ATOM     16  C   UNL     1      34.333 -10.952 -25.099  0.00  0.00    +0.037 C 
ATOM     17  C   UNL     1      33.117 -11.192 -23.025  0.00  0.00    +0.037 C 
ATOM     18  C   UNL     1      33.622 -10.382 -24.043  0.00  0.00    +0.147 C 
BRANCH  18  19
ATOM     19  O   UNL     1      33.420  -9.037 -24.006  0.00  0.00    -0.404 OA
BRANCH  19  23
ATOM     20  F   UNL     1      34.522  -7.698 -22.515  0.00  0.00    -0.133 F 
ATOM     21  F   UNL     1      34.491  -7.150 -24.630  0.00  0.00    -0.133 F 
ATOM     22  F   UNL     1      35.700  -8.853 -23.986  0.00  0.00    -0.133 F 
ATOM     23  C   UNL     1      34.543  -8.193 -23.770  0.00  0.00    +0.575 C 
ENDBRANCH  19  23
ENDBRANCH  18  19
ENDBRANCH  10  13
BRANCH   3  24
ATOM     24  C   UNL     1      37.085 -19.034 -21.015  0.00  0.00    +0.194 C 
BRANCH  24  27
ATOM     25  N   UNL     1      36.595 -21.055 -19.770  0.00  0.00    -0.217 NA
ATOM     26  N   UNL     1      34.833 -19.929 -20.970  0.00  0.00    -0.195 NA
ATOM     27  C   UNL     1      36.106 -20.075 -20.555  0.00  0.00    +0.028 C 
ATOM     28  C   UNL     1      35.688 -21.973 -19.375  0.00  0.00    +0.164 C 
ATOM     29  C   UNL     1      33.981 -20.881 -20.537  0.00  0.00    +0.107 C 
ATOM     30  C   UNL     1      34.355 -21.937 -19.731  0.00  0.00    +0.022 C 
ENDBRANCH  24  27
ENDBRANCH   3  24
TORSDOF 5
ENDMDL
MODEL 9
REMARK VINA RESULT:      -9.4      3.730      6.333
REMARK  Name = 71183216
REMARK  5 active torsions:
REMARK  status: ('A' for Active; 'I' for Inactive)
REMARK    1  A    between atoms: N_3  and  C_24
REMARK    2  A    between atoms: C_10  and  C_13
REMARK    3  A    between atoms: C_18  and  O_19
REMARK    4  A    between atoms: O_19  and  C_23
REMARK    5  A    between atoms: C_24  and  C_27
REMARK                            x       y       z     vdW  Elec       q    Type
REMARK                         _______ _______ _______ _____ _____    ______ ____
ROOT
ATOM      1  O   UNL     1      31.380  -9.951 -21.358  0.00  0.00    -0.473 OA
ATOM      2  O   UNL     1      33.100 -10.254 -24.882  0.00  0.00    -0.270 OA
ATOM      3  N   UNL     1      33.279  -8.746 -23.109  0.00  0.00    -0.259 N 
ATOM      4  C   UNL     1      33.442  -8.565 -21.669  0.00  0.00    +0.142 C 
ATOM      5  C   UNL     1      32.966 -11.149 -22.736  0.00  0.00    +0.087 C 
ATOM      6  C   UNL     1      32.132  -8.810 -20.927  0.00  0.00    +0.227 C 
ATOM      7  C   UNL     1      33.122 -10.013 -23.677  0.00  0.00    +0.253 C 
ATOM      8  C   UNL     1      32.139 -11.060 -21.609  0.00  0.00    +0.143 C 
ATOM      9  C   UNL     1      33.638 -12.344 -23.013  0.00  0.00    +0.008 C 
ATOM     10  C   UNL     1      33.489 -13.437 -22.158  0.00  0.00    +0.000 C 
ATOM     11  C   UNL     1      31.975 -12.162 -20.770  0.00  0.00    +0.037 C 
ATOM     12  C   UNL     1      32.660 -13.346 -21.039  0.00  0.00    +0.003 C 
ENDROOT
BRANCH  10  13
ATOM     13  C   UNL     1      34.192 -14.671 -22.436  0.00  0.00    +0.000 C 
ATOM     14  C   UNL     1      34.493 -15.022 -23.752  0.00  0.00    +0.003 C 
ATOM     15  C   UNL     1      34.564 -15.512 -21.387  0.00  0.00    +0.003 C 
ATOM     16  C   UNL     1      35.169 -16.213 -24.019  0.00  0.00    +0.037 C 
ATOM     17  C   UNL     1      35.240 -16.703 -21.654  0.00  0.00    +0.037 C 
ATOM     18  C   UNL     1      35.542 -17.053 -22.970  0.00  0.00    +0.147 C 
BRANCH  18  19
ATOM     19  O   UNL     1      36.200 -18.216 -23.230  0.00  0.00    -0.404 OA
BRANCH  19  23
ATOM     20  F   UNL     1      34.126 -19.125 -23.553  0.00  0.00    -0.133 F 
ATOM     21  F   UNL     1      35.547 -20.134 -22.235  0.00  0.00    -0.133 F 
ATOM     22  F   UNL     1      35.889 -20.161 -24.393  0.00  0.00    -0.133 F 
ATOM     23  C   UNL     1      35.434 -19.408 -23.370  0.00  0.00    +0.575 C 
ENDBRANCH  19  23
ENDBRANCH  18  19
ENDBRANCH  10  13
BRANCH   3  24
ATOM     24  C   UNL     1      33.322  -7.556 -23.943  0.00  0.00    +0.194 C 
BRANCH  24  27
ATOM     25  N   UNL     1      31.159  -6.891 -23.073  0.00  0.00    -0.217 NA
ATOM     26  N   UNL     1      32.872  -5.231 -23.425  0.00  0.00    -0.195 NA
ATOM     27  C   UNL     1      32.389  -6.489 -23.448  0.00  0.00    +0.028 C 
ATOM     28  C   UNL     1      30.348  -5.906 -22.634  0.00  0.00    +0.164 C 
ATOM     29  C   UNL     1      32.008  -4.298 -22.975  0.00  0.00    +0.107 C 
ATOM     30  C   UNL     1      30.721  -4.580 -22.562  0.00  0.00    +0.022 C 
ENDBRANCH  24  27
ENDBRANCH   3  24
TORSDOF 5
ENDMDL
