MODEL 1
REMARK VINA RESULT:     -11.2      0.000      0.000
REMARK  Name = 24995524
REMARK  4 active torsions:
REMARK  status: ('A' for Active; 'I' for Inactive)
REMARK    1  A    between atoms: N_5  and  C_13
REMARK    2  A    between atoms: C_6  and  C_19
REMARK    3  A    between atoms: C_19  and  C_20
REMARK    4  A    between atoms: C_20  and  N_22
REMARK                            x       y       z     vdW  Elec       q    Type
REMARK                         _______ _______ _______ _____ _____    ______ ____
ROOT
ATOM      1  S   UNL     1      36.726 -20.570 -20.084  0.00  0.00    -0.056 S 
ATOM      2  O   UNL     1      35.524 -23.447 -16.609  0.00  0.00    -0.252 OA
ATOM      3  N   UNL     1      34.758 -21.896 -19.061  0.00  0.00    -0.223 NA
ATOM      4  N   UNL     1      36.885 -22.075 -17.945  0.00  0.00    -0.248 N 
ATOM      5  N   UNL     1      37.785 -23.159 -16.082  0.00  0.00    -0.268 N 
ATOM      6  C   UNL     1      35.199 -20.463 -20.856  0.00  0.00    +0.031 C 
ATOM      7  C   UNL     1      34.279 -21.231 -20.173  0.00  0.00    +0.103 C 
ATOM      8  C   UNL     1      36.036 -21.622 -18.918  0.00  0.00    +0.166 C 
ATOM      9  C   UNL     1      36.622 -22.952 -16.843  0.00  0.00    +0.310 C 
ATOM     10  H   UNL     1      37.813 -21.752 -18.013  0.00  0.00    +0.158 HD
ATOM     11  H   UNL     1      38.594 -22.692 -16.394  0.00  0.00    +0.156 HD
ENDROOT
BRANCH   5  13
ATOM     12 CL   UNL     1      36.634 -23.943 -11.139  0.00  0.00    -0.082 Cl
ATOM     13  C   UNL     1      37.936 -23.954 -14.922  0.00  0.00    +0.052 C 
ATOM     14  C   UNL     1      37.285 -23.598 -13.741  0.00  0.00    +0.026 C 
ATOM     15  C   UNL     1      38.737 -25.097 -14.960  0.00  0.00    +0.015 C 
ATOM     16  C   UNL     1      37.437 -24.383 -12.598  0.00  0.00    +0.059 C 
ATOM     17  C   UNL     1      38.887 -25.881 -13.817  0.00  0.00    +0.002 C 
ATOM     18  C   UNL     1      38.237 -25.525 -12.637  0.00  0.00    +0.011 C 
ENDBRANCH   5  13
BRANCH   6  19
ATOM     19  C   UNL     1      35.021 -19.616 -22.093  0.00  0.00    +0.056 C 
BRANCH  19  20
ATOM     20  C   UNL     1      36.152 -18.609 -22.297  0.00  0.00    +0.093 C 
BRANCH  20  22
ATOM     21  S   UNL     1      34.534 -14.259 -22.326  0.00  0.00    -0.101 S 
ATOM     22  N   UNL     1      35.641 -17.273 -22.374  0.00  0.00    -0.320 N 
ATOM     23  N   UNL     1      35.218 -17.415 -24.711  0.00  0.00    -0.233 NA
ATOM     24  N   UNL     1      34.281 -15.574 -25.973  0.00  0.00    -0.247 NA
ATOM     25  C   UNL     1      35.183 -16.695 -23.572  0.00  0.00    +0.118 C 
ATOM     26  C   UNL     1      34.694 -15.394 -23.603  0.00  0.00    +0.145 C 
ATOM     27  C   UNL     1      34.252 -14.862 -24.814  0.00  0.00    +0.073 C 
ATOM     28  C   UNL     1      33.785 -13.521 -24.668  0.00  0.00    +0.022 C 
ATOM     29  C   UNL     1      33.883 -13.074 -23.370  0.00  0.00    +0.033 C 
ATOM     30  C   UNL     1      34.770 -16.817 -25.830  0.00  0.00    +0.251 C 
ATOM     31  H   UNL     1      35.610 -16.735 -21.550  0.00  0.00    +0.148 HD
ENDBRANCH  20  22
ENDBRANCH  19  20
ENDBRANCH   6  19
TORSDOF 4
ENDMDL
MODEL 2
REMARK VINA RESULT:     -11.2      4.889     11.473
REMARK  Name = 24995524
REMARK  4 active torsions:
REMARK  status: ('A' for Active; 'I' for Inactive)
REMARK    1  A    between atoms: N_5  and  C_13
REMARK    2  A    between atoms: C_6  and  C_19
REMARK    3  A    between atoms: C_19  and  C_20
REMARK    4  A    between atoms: C_20  and  N_22
REMARK                            x       y       z     vdW  Elec       q    Type
REMARK                         _______ _______ _______ _____ _____    ______ ____
ROOT
ATOM      1  S   UNL     1      33.850 -23.692 -16.695  0.00  0.00    -0.056 S 
ATOM      2  O   UNL     1      32.993 -20.668 -20.148  0.00  0.00    -0.252 OA
ATOM      3  N   UNL     1      31.981 -22.363 -17.888  0.00  0.00    -0.223 NA
ATOM      4  N   UNL     1      34.223 -22.074 -18.723  0.00  0.00    -0.248 N 
ATOM      5  N   UNL     1      35.309 -20.873 -20.406  0.00  0.00    -0.268 N 
ATOM      6  C   UNL     1      32.244 -23.877 -16.124  0.00  0.00    +0.031 C 
ATOM      7  C   UNL     1      31.392 -23.097 -16.877  0.00  0.00    +0.103 C 
ATOM      8  C   UNL     1      33.275 -22.598 -17.885  0.00  0.00    +0.166 C 
ATOM      9  C   UNL     1      34.069 -21.147 -19.805  0.00  0.00    +0.310 C 
ATOM     10  H   UNL     1      35.144 -22.377 -18.557  0.00  0.00    +0.158 HD
ATOM     11  H   UNL     1      36.087 -21.335 -20.018  0.00  0.00    +0.156 HD
ENDROOT
BRANCH   5  13
ATOM     12 CL   UNL     1      33.881 -19.067 -24.995  0.00  0.00    -0.082 Cl
ATOM     13  C   UNL     1      35.576 -20.014 -21.497  0.00  0.00    +0.052 C 
ATOM     14  C   UNL     1      34.698 -19.969 -22.580  0.00  0.00    +0.026 C 
ATOM     15  C   UNL     1      36.718 -19.213 -21.491  0.00  0.00    +0.015 C 
ATOM     16  C   UNL     1      34.964 -19.122 -23.657  0.00  0.00    +0.059 C 
ATOM     17  C   UNL     1      36.983 -18.367 -22.567  0.00  0.00    +0.002 C 
ATOM     18  C   UNL     1      36.105 -18.321 -23.650  0.00  0.00    +0.011 C 
ENDBRANCH   5  13
BRANCH   6  19
ATOM     19  C   UNL     1      31.943 -24.791 -14.961  0.00  0.00    +0.056 C 
BRANCH  19  20
ATOM     20  C   UNL     1      32.868 -24.565 -13.766  0.00  0.00    +0.093 C 
BRANCH  20  22
ATOM     21  S   UNL     1      37.137 -25.940 -14.957  0.00  0.00    -0.101 S 
ATOM     22  N   UNL     1      34.207 -24.971 -14.071  0.00  0.00    -0.320 N 
ATOM     23  N   UNL     1      35.036 -24.352 -11.928  0.00  0.00    -0.233 NA
ATOM     24  N   UNL     1      37.359 -24.625 -11.308  0.00  0.00    -0.247 NA
ATOM     25  C   UNL     1      35.269 -24.860 -13.154  0.00  0.00    +0.118 C 
ATOM     26  C   UNL     1      36.555 -25.266 -13.490  0.00  0.00    +0.145 C 
ATOM     27  C   UNL     1      37.577 -25.137 -12.550  0.00  0.00    +0.073 C 
ATOM     28  C   UNL     1      38.829 -25.598 -13.056  0.00  0.00    +0.022 C 
ATOM     29  C   UNL     1      38.730 -26.060 -14.349  0.00  0.00    +0.033 C 
ATOM     30  C   UNL     1      36.084 -24.266 -11.088  0.00  0.00    +0.251 C 
ATOM     31  H   UNL     1      34.393 -25.343 -14.963  0.00  0.00    +0.148 HD
ENDBRANCH  20  22
ENDBRANCH  19  20
ENDBRANCH   6  19
TORSDOF 4
ENDMDL
MODEL 3
REMARK VINA RESULT:     -10.9      1.176      1.702
REMARK  Name = 24995524
REMARK  4 active torsions:
REMARK  status: ('A' for Active; 'I' for Inactive)
REMARK    1  A    between atoms: N_5  and  C_13
REMARK    2  A    between atoms: C_6  and  C_19
REMARK    3  A    between atoms: C_19  and  C_20
REMARK    4  A    between atoms: C_20  and  N_22
REMARK                            x       y       z     vdW  Elec       q    Type
REMARK                         _______ _______ _______ _____ _____    ______ ____
ROOT
ATOM      1  S   UNL     1      36.691 -20.593 -20.146  0.00  0.00    -0.056 S 
ATOM      2  O   UNL     1      35.539 -23.434 -16.625  0.00  0.00    -0.252 OA
ATOM      3  N   UNL     1      34.745 -21.934 -19.099  0.00  0.00    -0.223 NA
ATOM      4  N   UNL     1      36.877 -22.062 -17.984  0.00  0.00    -0.248 N 
ATOM      5  N   UNL     1      37.795 -23.102 -16.106  0.00  0.00    -0.268 N 
ATOM      6  C   UNL     1      35.161 -20.522 -20.918  0.00  0.00    +0.031 C 
ATOM      7  C   UNL     1      34.255 -21.293 -20.221  0.00  0.00    +0.103 C 
ATOM      8  C   UNL     1      36.019 -21.638 -18.962  0.00  0.00    +0.166 C 
ATOM      9  C   UNL     1      36.629 -22.926 -16.868  0.00  0.00    +0.310 C 
ATOM     10  H   UNL     1      37.799 -21.725 -18.058  0.00  0.00    +0.158 HD
ATOM     11  H   UNL     1      38.596 -22.628 -16.427  0.00  0.00    +0.156 HD
ENDROOT
BRANCH   5  13
ATOM     12 CL   UNL     1      36.715 -23.791 -11.133  0.00  0.00    -0.082 Cl
ATOM     13  C   UNL     1      37.961 -23.877 -14.934  0.00  0.00    +0.052 C 
ATOM     14  C   UNL     1      37.329 -23.496 -13.750  0.00  0.00    +0.026 C 
ATOM     15  C   UNL     1      38.756 -25.023 -14.963  0.00  0.00    +0.015 C 
ATOM     16  C   UNL     1      37.494 -24.261 -12.595  0.00  0.00    +0.059 C 
ATOM     17  C   UNL     1      38.920 -25.787 -13.808  0.00  0.00    +0.002 C 
ATOM     18  C   UNL     1      38.289 -25.406 -12.625  0.00  0.00    +0.011 C 
ENDBRANCH   5  13
BRANCH   6  19
ATOM     19  C   UNL     1      34.969 -19.697 -22.167  0.00  0.00    +0.056 C 
BRANCH  19  20
ATOM     20  C   UNL     1      35.980 -18.559 -22.296  0.00  0.00    +0.093 C 
BRANCH  20  22
ATOM     21  S   UNL     1      34.455 -15.408 -25.343  0.00  0.00    -0.101 S 
ATOM     22  N   UNL     1      35.499 -17.544 -23.184  0.00  0.00    -0.320 N 
ATOM     23  N   UNL     1      35.087 -15.997 -21.423  0.00  0.00    -0.233 NA
ATOM     24  N   UNL     1      34.194 -13.784 -21.823  0.00  0.00    -0.247 NA
ATOM     25  C   UNL     1      35.060 -16.282 -22.740  0.00  0.00    +0.118 C 
ATOM     26  C   UNL     1      34.600 -15.324 -23.635  0.00  0.00    +0.145 C 
ATOM     27  C   UNL     1      34.174 -14.087 -23.149  0.00  0.00    +0.073 C 
ATOM     28  C   UNL     1      33.735 -13.226 -24.198  0.00  0.00    +0.022 C 
ATOM     29  C   UNL     1      33.835 -13.819 -25.437  0.00  0.00    +0.033 C 
ATOM     30  C   UNL     1      34.657 -14.778 -21.049  0.00  0.00    +0.251 C 
ATOM     31  H   UNL     1      35.473 -17.737 -24.149  0.00  0.00    +0.148 HD
ENDBRANCH  20  22
ENDBRANCH  19  20
ENDBRANCH   6  19
TORSDOF 4
ENDMDL
MODEL 4
REMARK VINA RESULT:     -10.7      1.790      2.361
REMARK  Name = 24995524
REMARK  4 active torsions:
REMARK  status: ('A' for Active; 'I' for Inactive)
REMARK    1  A    between atoms: N_5  and  C_13
REMARK    2  A    between atoms: C_6  and  C_19
REMARK    3  A    between atoms: C_19  and  C_20
REMARK    4  A    between atoms: C_20  and  N_22
REMARK                            x       y       z     vdW  Elec       q    Type
REMARK                         _______ _______ _______ _____ _____    ______ ____
ROOT
ATOM      1  S   UNL     1      34.834 -21.301 -20.265  0.00  0.00    -0.056 S 
ATOM      2  O   UNL     1      38.027 -21.759 -16.889  0.00  0.00    -0.252 OA
ATOM      3  N   UNL     1      37.137 -20.462 -19.445  0.00  0.00    -0.223 NA
ATOM      4  N   UNL     1      36.040 -22.125 -18.089  0.00  0.00    -0.248 N 
ATOM      5  N   UNL     1      36.449 -23.303 -16.114  0.00  0.00    -0.268 N 
ATOM      6  C   UNL     1      35.639 -20.116 -21.208  0.00  0.00    +0.031 C 
ATOM      7  C   UNL     1      36.844 -19.795 -20.618  0.00  0.00    +0.103 C 
ATOM      8  C   UNL     1      36.148 -21.281 -19.162  0.00  0.00    +0.166 C 
ATOM      9  C   UNL     1      36.954 -22.342 -17.006  0.00  0.00    +0.310 C 
ATOM     10  H   UNL     1      35.215 -22.661 -18.057  0.00  0.00    +0.158 HD
ATOM     11  H   UNL     1      35.570 -23.684 -16.343  0.00  0.00    +0.156 HD
ENDROOT
BRANCH   5  13
ATOM     12 CL   UNL     1      40.208 -26.023 -13.917  0.00  0.00    -0.082 Cl
ATOM     13  C   UNL     1      37.048 -23.789 -14.929  0.00  0.00    +0.052 C 
ATOM     14  C   UNL     1      38.199 -24.574 -15.000  0.00  0.00    +0.026 C 
ATOM     15  C   UNL     1      36.487 -23.483 -13.688  0.00  0.00    +0.015 C 
ATOM     16  C   UNL     1      38.788 -25.053 -13.830  0.00  0.00    +0.059 C 
ATOM     17  C   UNL     1      37.077 -23.963 -12.519  0.00  0.00    +0.002 C 
ATOM     18  C   UNL     1      38.227 -24.748 -12.590  0.00  0.00    +0.011 C 
ENDBRANCH   5  13
BRANCH   6  19
ATOM     19  C   UNL     1      35.014 -19.589 -22.477  0.00  0.00    +0.056 C 
BRANCH  19  20
ATOM     20  C   UNL     1      36.022 -18.921 -23.410  0.00  0.00    +0.093 C 
BRANCH  20  22
ATOM     21  S   UNL     1      34.056 -15.569 -25.946  0.00  0.00    -0.101 S 
ATOM     22  N   UNL     1      35.415 -17.847 -24.136  0.00  0.00    -0.320 N 
ATOM     23  N   UNL     1      35.353 -16.409 -22.241  0.00  0.00    -0.233 NA
ATOM     24  N   UNL     1      34.453 -14.165 -22.345  0.00  0.00    -0.247 NA
ATOM     25  C   UNL     1      35.089 -16.611 -23.547  0.00  0.00    +0.118 C 
ATOM     26  C   UNL     1      34.500 -15.593 -24.288  0.00  0.00    +0.145 C 
ATOM     27  C   UNL     1      34.194 -14.385 -23.663  0.00  0.00    +0.073 C 
ATOM     28  C   UNL     1      33.596 -13.454 -24.564  0.00  0.00    +0.022 C 
ATOM     29  C   UNL     1      33.465 -13.970 -25.834  0.00  0.00    +0.033 C 
ATOM     30  C   UNL     1      35.022 -15.212 -21.725  0.00  0.00    +0.251 C 
ATOM     31  H   UNL     1      35.216 -17.979 -25.092  0.00  0.00    +0.148 HD
ENDBRANCH  20  22
ENDBRANCH  19  20
ENDBRANCH   6  19
TORSDOF 4
ENDMDL
MODEL 5
REMARK VINA RESULT:     -10.7      3.812      4.685
REMARK  Name = 24995524
REMARK  4 active torsions:
REMARK  status: ('A' for Active; 'I' for Inactive)
REMARK    1  A    between atoms: N_5  and  C_13
REMARK    2  A    between atoms: C_6  and  C_19
REMARK    3  A    between atoms: C_19  and  C_20
REMARK    4  A    between atoms: C_20  and  N_22
REMARK                            x       y       z     vdW  Elec       q    Type
REMARK                         _______ _______ _______ _____ _____    ______ ____
ROOT
ATOM      1  S   UNL     1      33.958 -20.204 -20.912  0.00  0.00    -0.056 S 
ATOM      2  O   UNL     1      33.680 -23.346 -17.470  0.00  0.00    -0.252 OA
ATOM      3  N   UNL     1      35.340 -21.837 -19.463  0.00  0.00    -0.223 NA
ATOM      4  N   UNL     1      32.971 -21.744 -19.035  0.00  0.00    -0.248 N 
ATOM      5  N   UNL     1      31.423 -22.751 -17.607  0.00  0.00    -0.268 N 
ATOM      6  C   UNL     1      35.647 -20.293 -21.193  0.00  0.00    +0.031 C 
ATOM      7  C   UNL     1      36.212 -21.211 -20.333  0.00  0.00    +0.103 C 
ATOM      8  C   UNL     1      34.125 -21.384 -19.678  0.00  0.00    +0.166 C 
ATOM      9  C   UNL     1      32.777 -22.688 -17.975  0.00  0.00    +0.310 C 
ATOM     10  H   UNL     1      32.157 -21.286 -19.345  0.00  0.00    +0.158 HD
ATOM     11  H   UNL     1      30.812 -22.161 -18.105  0.00  0.00    +0.156 HD
ENDROOT
BRANCH   5  13
ATOM     12 CL   UNL     1      31.969 -25.443 -13.268  0.00  0.00    -0.082 Cl
ATOM     13  C   UNL     1      30.829 -23.557 -16.607  0.00  0.00    +0.052 C 
ATOM     14  C   UNL     1      31.602 -24.044 -15.553  0.00  0.00    +0.026 C 
ATOM     15  C   UNL     1      29.470 -23.865 -16.676  0.00  0.00    +0.015 C 
ATOM     16  C   UNL     1      31.015 -24.840 -14.569  0.00  0.00    +0.059 C 
ATOM     17  C   UNL     1      28.884 -24.661 -15.693  0.00  0.00    +0.002 C 
ATOM     18  C   UNL     1      29.657 -25.148 -14.639  0.00  0.00    +0.011 C 
ENDBRANCH   5  13
BRANCH   6  19
ATOM     19  C   UNL     1      36.294 -19.441 -22.258  0.00  0.00    +0.056 C 
BRANCH  19  20
ATOM     20  C   UNL     1      36.107 -17.943 -22.022  0.00  0.00    +0.093 C 
BRANCH  20  22
ATOM     21  S   UNL     1      34.383 -16.063 -25.899  0.00  0.00    -0.101 S 
ATOM     22  N   UNL     1      35.561 -17.306 -23.182  0.00  0.00    -0.320 N 
ATOM     23  N   UNL     1      35.020 -15.308 -22.008  0.00  0.00    -0.233 NA
ATOM     24  N   UNL     1      33.971 -13.413 -23.088  0.00  0.00    -0.247 NA
ATOM     25  C   UNL     1      35.027 -16.004 -23.162  0.00  0.00    +0.118 C 
ATOM     26  C   UNL     1      34.506 -15.421 -24.312  0.00  0.00    +0.145 C 
ATOM     27  C   UNL     1      33.986 -14.129 -24.245  0.00  0.00    +0.073 C 
ATOM     28  C   UNL     1      33.494 -13.686 -25.509  0.00  0.00    +0.022 C 
ATOM     29  C   UNL     1      33.649 -14.638 -26.492  0.00  0.00    +0.033 C 
ATOM     30  C   UNL     1      34.498 -14.068 -22.041  0.00  0.00    +0.251 C 
ATOM     31  H   UNL     1      35.558 -17.802 -24.033  0.00  0.00    +0.148 HD
ENDBRANCH  20  22
ENDBRANCH  19  20
ENDBRANCH   6  19
TORSDOF 4
ENDMDL
MODEL 6
REMARK VINA RESULT:     -10.7      1.431      1.779
REMARK  Name = 24995524
REMARK  4 active torsions:
REMARK  status: ('A' for Active; 'I' for Inactive)
REMARK    1  A    between atoms: N_5  and  C_13
REMARK    2  A    between atoms: C_6  and  C_19
REMARK    3  A    between atoms: C_19  and  C_20
REMARK    4  A    between atoms: C_20  and  N_22
REMARK                            x       y       z     vdW  Elec       q    Type
REMARK                         _______ _______ _______ _____ _____    ______ ____
ROOT
ATOM      1  S   UNL     1      34.786 -21.323 -20.247  0.00  0.00    -0.056 S 
ATOM      2  O   UNL     1      37.992 -21.826 -16.890  0.00  0.00    -0.252 OA
ATOM      3  N   UNL     1      37.111 -20.526 -19.448  0.00  0.00    -0.223 NA
ATOM      4  N   UNL     1      35.990 -22.159 -18.075  0.00  0.00    -0.248 N 
ATOM      5  N   UNL     1      36.389 -23.332 -16.095  0.00  0.00    -0.268 N 
ATOM      6  C   UNL     1      35.609 -20.161 -21.203  0.00  0.00    +0.031 C 
ATOM      7  C   UNL     1      36.823 -19.861 -20.623  0.00  0.00    +0.103 C 
ATOM      8  C   UNL     1      36.108 -21.323 -19.153  0.00  0.00    +0.166 C 
ATOM      9  C   UNL     1      36.906 -22.387 -16.997  0.00  0.00    +0.310 C 
ATOM     10  H   UNL     1      35.155 -22.677 -18.034  0.00  0.00    +0.158 HD
ATOM     11  H   UNL     1      35.501 -23.697 -16.315  0.00  0.00    +0.156 HD
ENDROOT
BRANCH   5  13
ATOM     12 CL   UNL     1      40.164 -26.033 -13.901  0.00  0.00    -0.082 Cl
ATOM     13  C   UNL     1      36.986 -23.823 -14.911  0.00  0.00    +0.052 C 
ATOM     14  C   UNL     1      38.146 -24.595 -14.982  0.00  0.00    +0.026 C 
ATOM     15  C   UNL     1      36.414 -23.536 -13.671  0.00  0.00    +0.015 C 
ATOM     16  C   UNL     1      38.733 -25.079 -13.813  0.00  0.00    +0.059 C 
ATOM     17  C   UNL     1      37.001 -24.020 -12.503  0.00  0.00    +0.002 C 
ATOM     18  C   UNL     1      38.161 -24.792 -12.574  0.00  0.00    +0.011 C 
ENDBRANCH   5  13
BRANCH   6  19
ATOM     19  C   UNL     1      34.985 -19.629 -22.471  0.00  0.00    +0.056 C 
BRANCH  19  20
ATOM     20  C   UNL     1      35.908 -18.687 -23.243  0.00  0.00    +0.093 C 
BRANCH  20  22
ATOM     21  S   UNL     1      34.699 -14.277 -22.448  0.00  0.00    -0.101 S 
ATOM     22  N   UNL     1      35.513 -17.322 -23.063  0.00  0.00    -0.320 N 
ATOM     23  N   UNL     1      34.743 -17.099 -25.303  0.00  0.00    -0.233 NA
ATOM     24  N   UNL     1      33.801 -15.037 -26.151  0.00  0.00    -0.247 NA
ATOM     25  C   UNL     1      34.939 -16.549 -24.089  0.00  0.00    +0.118 C 
ATOM     26  C   UNL     1      34.569 -15.226 -23.873  0.00  0.00    +0.145 C 
ATOM     27  C   UNL     1      34.005 -14.497 -24.919  0.00  0.00    +0.073 C 
ATOM     28  C   UNL     1      33.686 -13.163 -24.528  0.00  0.00    +0.022 C 
ATOM     29  C   UNL     1      34.011 -12.913 -23.213  0.00  0.00    +0.033 C 
ATOM     30  C   UNL     1      34.192 -16.318 -26.251  0.00  0.00    +0.251 C 
ATOM     31  H   UNL     1      35.650 -16.906 -22.181  0.00  0.00    +0.148 HD
ENDBRANCH  20  22
ENDBRANCH  19  20
ENDBRANCH   6  19
TORSDOF 4
ENDMDL
MODEL 7
REMARK VINA RESULT:     -10.5      3.513      4.027
REMARK  Name = 24995524
REMARK  4 active torsions:
REMARK  status: ('A' for Active; 'I' for Inactive)
REMARK    1  A    between atoms: N_5  and  C_13
REMARK    2  A    between atoms: C_6  and  C_19
REMARK    3  A    between atoms: C_19  and  C_20
REMARK    4  A    between atoms: C_20  and  N_22
REMARK                            x       y       z     vdW  Elec       q    Type
REMARK                         _______ _______ _______ _____ _____    ______ ____
ROOT
ATOM      1  S   UNL     1      33.407 -20.398 -21.145  0.00  0.00    -0.056 S 
ATOM      2  O   UNL     1      34.299 -23.026 -17.391  0.00  0.00    -0.252 OA
ATOM      3  N   UNL     1      35.296 -21.528 -19.792  0.00  0.00    -0.223 NA
ATOM      4  N   UNL     1      33.050 -21.817 -18.971  0.00  0.00    -0.248 N 
ATOM      5  N   UNL     1      31.972 -22.886 -17.196  0.00  0.00    -0.268 N 
ATOM      6  C   UNL     1      35.017 -20.210 -21.704  0.00  0.00    +0.031 C 
ATOM      7  C   UNL     1      35.880 -20.877 -20.861  0.00  0.00    +0.103 C 
ATOM      8  C   UNL     1      33.996 -21.343 -19.840  0.00  0.00    +0.166 C 
ATOM      9  C   UNL     1      33.214 -22.624 -17.799  0.00  0.00    +0.310 C 
ATOM     10  H   UNL     1      32.121 -21.566 -19.182  0.00  0.00    +0.158 HD
ATOM     11  H   UNL     1      31.186 -22.494 -17.642  0.00  0.00    +0.156 HD
ENDROOT
BRANCH   5  13
ATOM     12 CL   UNL     1      28.862 -26.097 -14.669  0.00  0.00    -0.082 Cl
ATOM     13  C   UNL     1      31.713 -23.641 -16.029  0.00  0.00    +0.052 C 
ATOM     14  C   UNL     1      30.551 -24.407 -15.937  0.00  0.00    +0.026 C 
ATOM     15  C   UNL     1      32.620 -23.619 -14.969  0.00  0.00    +0.015 C 
ATOM     16  C   UNL     1      30.297 -25.151 -14.784  0.00  0.00    +0.059 C 
ATOM     17  C   UNL     1      32.365 -24.362 -13.817  0.00  0.00    +0.002 C 
ATOM     18  C   UNL     1      31.204 -25.128 -13.725  0.00  0.00    +0.011 C 
ENDBRANCH   5  13
BRANCH   6  19
ATOM     19  C   UNL     1      35.309 -19.408 -22.950  0.00  0.00    +0.056 C 
BRANCH  19  20
ATOM     20  C   UNL     1      36.338 -18.302 -22.723  0.00  0.00    +0.093 C 
BRANCH  20  22
ATOM     21  S   UNL     1      34.302 -14.228 -21.826  0.00  0.00    -0.101 S 
ATOM     22  N   UNL     1      35.694 -17.039 -22.513  0.00  0.00    -0.320 N 
ATOM     23  N   UNL     1      35.138 -16.778 -24.812  0.00  0.00    -0.233 NA
ATOM     24  N   UNL     1      33.945 -14.844 -25.646  0.00  0.00    -0.247 NA
ATOM     25  C   UNL     1      35.105 -16.297 -23.554  0.00  0.00    +0.118 C 
ATOM     26  C   UNL     1      34.490 -15.075 -23.308  0.00  0.00    +0.145 C 
ATOM     27  C   UNL     1      33.921 -14.373 -24.370  0.00  0.00    +0.073 C 
ATOM     28  C   UNL     1      33.335 -13.144 -23.943  0.00  0.00    +0.022 C 
ATOM     29  C   UNL     1      33.472 -12.944 -22.588  0.00  0.00    +0.033 C 
ATOM     30  C   UNL     1      34.562 -16.031 -25.771  0.00  0.00    +0.251 C 
ATOM     31  H   UNL     1      35.663 -16.674 -21.599  0.00  0.00    +0.148 HD
ENDBRANCH  20  22
ENDBRANCH  19  20
ENDBRANCH   6  19
TORSDOF 4
ENDMDL
MODEL 8
REMARK VINA RESULT:     -10.4      1.989      2.769
REMARK  Name = 24995524
REMARK  4 active torsions:
REMARK  status: ('A' for Active; 'I' for Inactive)
REMARK    1  A    between atoms: N_5  and  C_13
REMARK    2  A    between atoms: C_6  and  C_19
REMARK    3  A    between atoms: C_19  and  C_20
REMARK    4  A    between atoms: C_20  and  N_22
REMARK                            x       y       z     vdW  Elec       q    Type
REMARK                         _______ _______ _______ _____ _____    ______ ____
ROOT
ATOM      1  S   UNL     1      36.790 -19.098 -21.394  0.00  0.00    -0.056 S 
ATOM      2  O   UNL     1      35.351 -22.409 -18.434  0.00  0.00    -0.252 OA
ATOM      3  N   UNL     1      34.855 -20.730 -20.871  0.00  0.00    -0.223 NA
ATOM      4  N   UNL     1      36.746 -20.771 -19.378  0.00  0.00    -0.248 N 
ATOM      5  N   UNL     1      37.419 -21.918 -17.458  0.00  0.00    -0.268 N 
ATOM      6  C   UNL     1      35.430 -19.092 -22.439  0.00  0.00    +0.031 C 
ATOM      7  C   UNL     1      34.508 -20.021 -22.004  0.00  0.00    +0.103 C 
ATOM      8  C   UNL     1      36.038 -20.328 -20.463  0.00  0.00    +0.166 C 
ATOM      9  C   UNL     1      36.400 -21.774 -18.414  0.00  0.00    +0.310 C 
ATOM     10  H   UNL     1      37.620 -20.340 -19.241  0.00  0.00    +0.158 HD
ATOM     11  H   UNL     1      38.205 -21.335 -17.574  0.00  0.00    +0.156 HD
ENDROOT
BRANCH   5  13
ATOM     12 CL   UNL     1      40.007 -25.435 -14.756  0.00  0.00    -0.082 Cl
ATOM     13  C   UNL     1      37.456 -22.798 -16.351  0.00  0.00    +0.052 C 
ATOM     14  C   UNL     1      38.583 -23.589 -16.126  0.00  0.00    +0.026 C 
ATOM     15  C   UNL     1      36.365 -22.873 -15.485  0.00  0.00    +0.015 C 
ATOM     16  C   UNL     1      38.617 -24.457 -15.034  0.00  0.00    +0.059 C 
ATOM     17  C   UNL     1      36.400 -23.741 -14.394  0.00  0.00    +0.002 C 
ATOM     18  C   UNL     1      37.526 -24.532 -14.168  0.00  0.00    +0.011 C 
ENDBRANCH   5  13
BRANCH   6  19
ATOM     19  C   UNL     1      35.375 -18.157 -23.623  0.00  0.00    +0.056 C 
BRANCH  19  20
ATOM     20  C   UNL     1      35.937 -16.770 -23.318  0.00  0.00    +0.093 C 
BRANCH  20  22
ATOM     21  S   UNL     1      33.024 -14.501 -20.505  0.00  0.00    -0.101 S 
ATOM     22  N   UNL     1      35.033 -16.020 -22.497  0.00  0.00    -0.320 N 
ATOM     23  N   UNL     1      34.820 -14.263 -24.087  0.00  0.00    -0.233 NA
ATOM     24  N   UNL     1      33.425 -12.324 -23.698  0.00  0.00    -0.247 NA
ATOM     25  C   UNL     1      34.489 -14.783 -22.889  0.00  0.00    +0.118 C 
ATOM     26  C   UNL     1      33.615 -14.087 -22.063  0.00  0.00    +0.145 C 
ATOM     27  C   UNL     1      33.100 -12.864 -22.492  0.00  0.00    +0.073 C 
ATOM     28  C   UNL     1      32.223 -12.286 -21.526  0.00  0.00    +0.022 C 
ATOM     29  C   UNL     1      32.095 -13.071 -20.403  0.00  0.00    +0.033 C 
ATOM     30  C   UNL     1      34.274 -13.078 -24.416  0.00  0.00    +0.251 C 
ATOM     31  H   UNL     1      34.782 -16.387 -21.619  0.00  0.00    +0.148 HD
ENDBRANCH  20  22
ENDBRANCH  19  20
ENDBRANCH   6  19
TORSDOF 4
ENDMDL
MODEL 9
REMARK VINA RESULT:     -10.2      4.276     11.656
REMARK  Name = 24995524
REMARK  4 active torsions:
REMARK  status: ('A' for Active; 'I' for Inactive)
REMARK    1  A    between atoms: N_5  and  C_13
REMARK    2  A    between atoms: C_6  and  C_19
REMARK    3  A    between atoms: C_19  and  C_20
REMARK    4  A    between atoms: C_20  and  N_22
REMARK                            x       y       z     vdW  Elec       q    Type
REMARK                         _______ _______ _______ _____ _____    ______ ____
ROOT
ATOM      1  S   UNL     1      35.225 -22.609 -17.828  0.00  0.00    -0.056 S 
ATOM      2  O   UNL     1      33.056 -20.365 -21.300  0.00  0.00    -0.252 OA
ATOM      3  N   UNL     1      32.914 -22.148 -18.891  0.00  0.00    -0.223 NA
ATOM      4  N   UNL     1      34.820 -21.116 -19.943  0.00  0.00    -0.248 N 
ATOM      5  N   UNL     1      35.256 -19.722 -21.766  0.00  0.00    -0.268 N 
ATOM      6  C   UNL     1      33.849 -23.330 -17.102  0.00  0.00    +0.031 C 
ATOM      7  C   UNL     1      32.715 -22.974 -17.802  0.00  0.00    +0.103 C 
ATOM      8  C   UNL     1      34.199 -21.890 -19.001  0.00  0.00    +0.166 C 
ATOM      9  C   UNL     1      34.254 -20.389 -21.042  0.00  0.00    +0.310 C 
ATOM     10  H   UNL     1      35.798 -21.047 -19.853  0.00  0.00    +0.158 HD
ATOM     11  H   UNL     1      36.176 -19.838 -21.436  0.00  0.00    +0.156 HD
ENDROOT
BRANCH   5  13
ATOM     12 CL   UNL     1      35.300 -15.013 -23.811  0.00  0.00    -0.082 Cl
ATOM     13  C   UNL     1      35.104 -18.906 -22.911  0.00  0.00    +0.052 C 
ATOM     14  C   UNL     1      35.260 -17.524 -22.808  0.00  0.00    +0.026 C 
ATOM     15  C   UNL     1      34.798 -19.483 -24.144  0.00  0.00    +0.015 C 
ATOM     16  C   UNL     1      35.109 -16.719 -23.938  0.00  0.00    +0.059 C 
ATOM     17  C   UNL     1      34.647 -18.679 -25.273  0.00  0.00    +0.002 C 
ATOM     18  C   UNL     1      34.803 -17.297 -25.170  0.00  0.00    +0.011 C 
ENDBRANCH   5  13
BRANCH   6  19
ATOM     19  C   UNL     1      33.995 -24.206 -15.881  0.00  0.00    +0.056 C 
BRANCH  19  20
ATOM     20  C   UNL     1      34.891 -23.592 -14.807  0.00  0.00    +0.093 C 
BRANCH  20  22
ATOM     21  S   UNL     1      39.341 -24.513 -15.750  0.00  0.00    -0.101 S 
ATOM     22  N   UNL     1      36.267 -23.915 -15.041  0.00  0.00    -0.320 N 
ATOM     23  N   UNL     1      36.432 -25.263 -13.087  0.00  0.00    -0.233 NA
ATOM     24  N   UNL     1      38.481 -26.388 -12.458  0.00  0.00    -0.247 NA
ATOM     25  C   UNL     1      37.017 -24.742 -14.184  0.00  0.00    +0.118 C 
ATOM     26  C   UNL     1      38.351 -25.031 -14.448  0.00  0.00    +0.145 C 
ATOM     27  C   UNL     1      39.055 -25.854 -13.570  0.00  0.00    +0.073 C 
ATOM     28  C   UNL     1      40.406 -26.046 -13.988  0.00  0.00    +0.022 C 
ATOM     29  C   UNL     1      40.691 -25.375 -15.155  0.00  0.00    +0.033 C 
ATOM     30  C   UNL     1      37.192 -26.046 -12.299  0.00  0.00    +0.251 C 
ATOM     31  H   UNL     1      36.708 -23.541 -15.838  0.00  0.00    +0.148 HD
ENDBRANCH  20  22
ENDBRANCH  19  20
ENDBRANCH   6  19
TORSDOF 4
ENDMDL
