MODEL 1
REMARK VINA RESULT:     -11.1      0.000      0.000
REMARK  Name = 10182969
REMARK  5 active torsions:
REMARK  status: ('A' for Active; 'I' for Inactive)
REMARK    1  A    between atoms: N_2  and  C_11
REMARK    2  A    between atoms: N_3  and  C_24
REMARK    3  A    between atoms: C_10  and  C_34
REMARK    4  A    between atoms: C_12  and  N_18
REMARK    5  A    between atoms: C_29  and  O_30
REMARK                            x       y       z     vdW  Elec       q    Type
REMARK                         _______ _______ _______ _____ _____    ______ ____
ROOT
ATOM      1  O   UNL     1      32.564 -22.312 -17.715  0.00  0.00    -0.268 OA
ATOM      2  N   UNL     1      34.905 -22.377 -17.994  0.00  0.00    -0.254 N 
ATOM      3  N   UNL     1      32.882 -23.921 -15.280  0.00  0.00    -0.225 N 
ATOM      4  N   UNL     1      33.379 -24.569 -14.208  0.00  0.00    -0.161 NA
ATOM      5  C   UNL     1      36.324 -23.300 -16.100  0.00  0.00    +0.052 C 
ATOM      6  C   UNL     1      36.147 -23.113 -17.617  0.00  0.00    +0.103 C 
ATOM      7  C   UNL     1      35.042 -23.721 -15.511  0.00  0.00    +0.026 A 
ATOM      8  C   UNL     1      33.842 -23.399 -16.098  0.00  0.00    +0.134 A 
ATOM      9  C   UNL     1      33.677 -22.647 -17.320  0.00  0.00    +0.270 C 
ATOM     10  C   UNL     1      34.702 -24.441 -14.354  0.00  0.00    +0.152 A 
ENDROOT
BRANCH   2  11
ATOM     11  C   UNL     1      34.943 -21.541 -19.168  0.00  0.00    +0.054 C 
ATOM     12  C   UNL     1      35.016 -19.925 -21.433  0.00  0.00    +0.054 C 
ATOM     13  C   UNL     1      36.167 -21.102 -19.664  0.00  0.00    +0.016 C 
ATOM     14  C   UNL     1      33.756 -21.179 -19.796  0.00  0.00    +0.016 C 
ATOM     15  C   UNL     1      36.203 -20.292 -20.800  0.00  0.00    +0.016 C 
ATOM     16  C   UNL     1      33.792 -20.369 -20.931  0.00  0.00    +0.016 C 
BRANCH  12  18
ATOM     17  O   UNL     1      35.582 -17.103 -21.469  0.00  0.00    -0.275 OA
ATOM     18  N   UNL     1      35.052 -19.086 -22.610  0.00  0.00    -0.259 N 
ATOM     19  C   UNL     1      34.482 -19.635 -23.852  0.00  0.00    +0.098 C 
ATOM     20  C   UNL     1      35.011 -18.988 -25.122  0.00  0.00    +0.022 C 
ATOM     21  C   UNL     1      34.890 -17.485 -25.001  0.00  0.00    +0.011 C 
ATOM     22  C   UNL     1      35.726 -17.023 -23.828  0.00  0.00    +0.086 C 
ATOM     23  C   UNL     1      35.425 -17.733 -22.518  0.00  0.00    +0.229 C 
ENDBRANCH  12  18
ENDBRANCH   2  11
BRANCH   3  24
ATOM     24  C   UNL     1      31.500 -23.854 -15.456  0.00  0.00    +0.083 C 
ATOM     25  C   UNL     1      30.818 -24.955 -15.958  0.00  0.00    +0.022 C 
ATOM     26  C   UNL     1      30.822 -22.687 -15.128  0.00  0.00    +0.022 C 
ATOM     27  C   UNL     1      29.437 -24.888 -16.135  0.00  0.00    +0.038 C 
ATOM     28  C   UNL     1      29.440 -22.620 -15.304  0.00  0.00    +0.038 C 
ATOM     29  C   UNL     1      28.748 -23.721 -15.809  0.00  0.00    +0.139 C 
BRANCH  29  30
ATOM     30  O   UNL     1      27.399 -23.655 -15.981  0.00  0.00    -0.471 OA
ATOM     31  C   UNL     1      26.833 -22.363 -16.197  0.00  0.00    +0.252 C 
ENDBRANCH  29  30
ENDBRANCH   3  24
BRANCH  10  34
ATOM     32  O   UNL     1      35.596 -24.659 -12.177  0.00  0.00    -0.269 OA
ATOM     33  N   UNL     1      36.453 -26.018 -13.795  0.00  0.00    -0.324 N 
ATOM     34  C   UNL     1      35.584 -25.008 -13.375  0.00  0.00    +0.262 C 
ATOM     35  H   UNL     1      37.073 -26.430 -13.152  0.00  0.00    +0.145 HD
ATOM     36  H   UNL     1      36.445 -26.315 -14.733  0.00  0.00    +0.145 HD
ENDBRANCH  10  34
TORSDOF 5
ENDMDL
MODEL 2
REMARK VINA RESULT:     -10.9      1.559      1.847
REMARK  Name = 10182969
REMARK  5 active torsions:
REMARK  status: ('A' for Active; 'I' for Inactive)
REMARK    1  A    between atoms: N_2  and  C_11
REMARK    2  A    between atoms: N_3  and  C_24
REMARK    3  A    between atoms: C_10  and  C_34
REMARK    4  A    between atoms: C_12  and  N_18
REMARK    5  A    between atoms: C_29  and  O_30
REMARK                            x       y       z     vdW  Elec       q    Type
REMARK                         _______ _______ _______ _____ _____    ______ ____
ROOT
ATOM      1  O   UNL     1      33.560 -22.862 -16.561  0.00  0.00    -0.268 OA
ATOM      2  N   UNL     1      35.913 -22.755 -16.680  0.00  0.00    -0.254 N 
ATOM      3  N   UNL     1      33.825 -24.236 -13.981  0.00  0.00    -0.225 N 
ATOM      4  N   UNL     1      34.291 -24.753 -12.827  0.00  0.00    -0.161 NA
ATOM      5  C   UNL     1      37.259 -23.401 -14.624  0.00  0.00    +0.052 C 
ATOM      6  C   UNL     1      37.177 -23.353 -16.160  0.00  0.00    +0.103 C 
ATOM      7  C   UNL     1      35.974 -23.878 -14.086  0.00  0.00    +0.026 A 
ATOM      8  C   UNL     1      34.798 -23.705 -14.776  0.00  0.00    +0.134 A 
ATOM      9  C   UNL     1      34.664 -23.071 -16.067  0.00  0.00    +0.270 C 
ATOM     10  C   UNL     1      35.607 -24.528 -12.896  0.00  0.00    +0.152 A 
ENDROOT
BRANCH   2  11
ATOM     11  C   UNL     1      35.971 -22.016 -17.916  0.00  0.00    +0.054 C 
ATOM     12  C   UNL     1      36.082 -20.588 -20.303  0.00  0.00    +0.054 C 
ATOM     13  C   UNL     1      37.094 -21.248 -18.210  0.00  0.00    +0.016 C 
ATOM     14  C   UNL     1      34.904 -22.077 -18.807  0.00  0.00    +0.016 C 
ATOM     15  C   UNL     1      37.149 -20.532 -19.407  0.00  0.00    +0.016 C 
ATOM     16  C   UNL     1      34.959 -21.360 -20.003  0.00  0.00    +0.016 C 
BRANCH  12  18
ATOM     17  O   UNL     1      38.051 -18.604 -20.987  0.00  0.00    -0.275 OA
ATOM     18  N   UNL     1      36.138 -19.847 -21.543  0.00  0.00    -0.259 N 
ATOM     19  C   UNL     1      34.950 -19.889 -22.413  0.00  0.00    +0.098 C 
ATOM     20  C   UNL     1      35.234 -19.580 -23.874  0.00  0.00    +0.022 C 
ATOM     21  C   UNL     1      36.019 -18.291 -23.966  0.00  0.00    +0.011 C 
ATOM     22  C   UNL     1      37.332 -18.468 -23.236  0.00  0.00    +0.086 C 
ATOM     23  C   UNL     1      37.198 -18.960 -21.805  0.00  0.00    +0.229 C 
ENDBRANCH  12  18
ENDBRANCH   2  11
BRANCH   3  24
ATOM     24  C   UNL     1      32.458 -24.299 -14.252  0.00  0.00    +0.083 C 
ATOM     25  C   UNL     1      31.855 -25.533 -14.456  0.00  0.00    +0.022 C 
ATOM     26  C   UNL     1      31.717 -23.126 -14.316  0.00  0.00    +0.022 C 
ATOM     27  C   UNL     1      30.488 -25.596 -14.729  0.00  0.00    +0.038 C 
ATOM     28  C   UNL     1      30.350 -23.188 -14.588  0.00  0.00    +0.038 C 
ATOM     29  C   UNL     1      29.736 -24.424 -14.795  0.00  0.00    +0.139 C 
BRANCH  29  30
ATOM     30  O   UNL     1      28.402 -24.485 -15.060  0.00  0.00    -0.471 OA
ATOM     31  C   UNL     1      27.873 -23.510 -15.957  0.00  0.00    +0.252 C 
ENDBRANCH  29  30
ENDBRANCH   3  24
BRANCH  10  34
ATOM     32  O   UNL     1      36.869 -26.108 -11.672  0.00  0.00    -0.269 OA
ATOM     33  N   UNL     1      36.858 -23.964 -10.900  0.00  0.00    -0.324 N 
ATOM     34  C   UNL     1      36.458 -24.939 -11.817  0.00  0.00    +0.262 C 
ATOM     35  H   UNL     1      37.440 -24.208 -10.146  0.00  0.00    +0.145 HD
ATOM     36  H   UNL     1      36.556 -23.033 -11.009  0.00  0.00    +0.145 HD
ENDBRANCH  10  34
TORSDOF 5
ENDMDL
MODEL 3
REMARK VINA RESULT:     -10.8      2.061      4.982
REMARK  Name = 10182969
REMARK  5 active torsions:
REMARK  status: ('A' for Active; 'I' for Inactive)
REMARK    1  A    between atoms: N_2  and  C_11
REMARK    2  A    between atoms: N_3  and  C_24
REMARK    3  A    between atoms: C_10  and  C_34
REMARK    4  A    between atoms: C_12  and  N_18
REMARK    5  A    between atoms: C_29  and  O_30
REMARK                            x       y       z     vdW  Elec       q    Type
REMARK                         _______ _______ _______ _____ _____    ______ ____
ROOT
ATOM      1  O   UNL     1      35.417 -23.056 -17.177  0.00  0.00    -0.268 OA
ATOM      2  N   UNL     1      33.245 -22.388 -17.809  0.00  0.00    -0.254 N 
ATOM      3  N   UNL     1      34.228 -24.571 -14.962  0.00  0.00    -0.225 N 
ATOM      4  N   UNL     1      33.375 -25.202 -14.131  0.00  0.00    -0.161 NA
ATOM      5  C   UNL     1      31.261 -23.500 -16.679  0.00  0.00    +0.052 C 
ATOM      6  C   UNL     1      31.841 -22.232 -17.328  0.00  0.00    +0.103 C 
ATOM      7  C   UNL     1      32.262 -24.081 -15.770  0.00  0.00    +0.026 A 
ATOM      8  C   UNL     1      33.608 -23.877 -15.960  0.00  0.00    +0.134 A 
ATOM      9  C   UNL     1      34.200 -23.096 -17.020  0.00  0.00    +0.270 C 
ATOM     10  C   UNL     1      32.173 -24.901 -14.632  0.00  0.00    +0.152 A 
ENDROOT
BRANCH   2  11
ATOM     11  C   UNL     1      33.647 -21.650 -18.980  0.00  0.00    +0.054 C 
ATOM     12  C   UNL     1      34.424 -20.222 -21.240  0.00  0.00    +0.054 C 
ATOM     13  C   UNL     1      34.987 -21.625 -19.355  0.00  0.00    +0.016 C 
ATOM     14  C   UNL     1      32.692 -20.967 -19.727  0.00  0.00    +0.016 C 
ATOM     15  C   UNL     1      35.377 -20.909 -20.487  0.00  0.00    +0.016 C 
ATOM     16  C   UNL     1      33.082 -20.250 -20.859  0.00  0.00    +0.016 C 
BRANCH  12  18
ATOM     17  O   UNL     1      35.924 -17.765 -21.244  0.00  0.00    -0.275 OA
ATOM     18  N   UNL     1      34.826 -19.480 -22.414  0.00  0.00    -0.259 N 
ATOM     19  C   UNL     1      34.189 -19.837 -23.693  0.00  0.00    +0.098 C 
ATOM     20  C   UNL     1      34.993 -19.447 -24.922  0.00  0.00    +0.022 C 
ATOM     21  C   UNL     1      35.387 -17.990 -24.816  0.00  0.00    +0.011 C 
ATOM     22  C   UNL     1      36.248 -17.808 -23.586  0.00  0.00    +0.086 C 
ATOM     23  C   UNL     1      35.633 -18.334 -22.300  0.00  0.00    +0.229 C 
ENDBRANCH  12  18
ENDBRANCH   2  11
BRANCH   3  24
ATOM     24  C   UNL     1      35.600 -24.669 -14.732  0.00  0.00    +0.083 C 
ATOM     25  C   UNL     1      36.311 -25.736 -15.266  0.00  0.00    +0.022 C 
ATOM     26  C   UNL     1      36.239 -23.699 -13.970  0.00  0.00    +0.022 C 
ATOM     27  C   UNL     1      37.683 -25.835 -15.035  0.00  0.00    +0.038 C 
ATOM     28  C   UNL     1      37.612 -23.797 -13.740  0.00  0.00    +0.038 C 
ATOM     29  C   UNL     1      38.333 -24.867 -14.272  0.00  0.00    +0.139 C 
BRANCH  29  30
ATOM     30  O   UNL     1      39.672 -24.962 -14.047  0.00  0.00    -0.471 OA
ATOM     31  C   UNL     1      40.441 -25.698 -14.998  0.00  0.00    +0.252 C 
ENDBRANCH  29  30
ENDBRANCH   3  24
BRANCH  10  34
ATOM     32  O   UNL     1      30.695 -25.199 -12.812  0.00  0.00    -0.269 OA
ATOM     33  N   UNL     1      30.121 -26.176 -14.789  0.00  0.00    -0.324 N 
ATOM     34  C   UNL     1      30.990 -25.415 -14.005  0.00  0.00    +0.262 C 
ATOM     35  H   UNL     1      29.299 -26.547 -14.394  0.00  0.00    +0.145 HD
ATOM     36  H   UNL     1      30.330 -26.343 -15.736  0.00  0.00    +0.145 HD
ENDBRANCH  10  34
TORSDOF 5
ENDMDL
MODEL 4
REMARK VINA RESULT:     -10.3      1.032      1.568
REMARK  Name = 10182969
REMARK  5 active torsions:
REMARK  status: ('A' for Active; 'I' for Inactive)
REMARK    1  A    between atoms: N_2  and  C_11
REMARK    2  A    between atoms: N_3  and  C_24
REMARK    3  A    between atoms: C_10  and  C_34
REMARK    4  A    between atoms: C_12  and  N_18
REMARK    5  A    between atoms: C_29  and  O_30
REMARK                            x       y       z     vdW  Elec       q    Type
REMARK                         _______ _______ _______ _____ _____    ______ ____
ROOT
ATOM      1  O   UNL     1      32.972 -22.124 -17.959  0.00  0.00    -0.268 OA
ATOM      2  N   UNL     1      35.302 -22.068 -18.321  0.00  0.00    -0.254 N 
ATOM      3  N   UNL     1      33.456 -23.757 -15.568  0.00  0.00    -0.225 N 
ATOM      4  N   UNL     1      34.021 -24.398 -14.527  0.00  0.00    -0.161 NA
ATOM      5  C   UNL     1      36.831 -22.952 -16.495  0.00  0.00    +0.052 C 
ATOM      6  C   UNL     1      36.591 -22.748 -18.001  0.00  0.00    +0.103 C 
ATOM      7  C   UNL     1      35.593 -23.446 -15.870  0.00  0.00    +0.026 A 
ATOM      8  C   UNL     1      34.359 -23.174 -16.409  0.00  0.00    +0.134 A 
ATOM      9  C   UNL     1      34.113 -22.410 -17.610  0.00  0.00    +0.270 C 
ATOM     10  C   UNL     1      35.330 -24.202 -14.716  0.00  0.00    +0.152 A 
ENDROOT
BRANCH   2  11
ATOM     11  C   UNL     1      35.257 -21.210 -19.479  0.00  0.00    +0.054 C 
ATOM     12  C   UNL     1      35.169 -19.554 -21.714  0.00  0.00    +0.054 C 
ATOM     13  C   UNL     1      36.433 -20.655 -19.974  0.00  0.00    +0.016 C 
ATOM     14  C   UNL     1      34.038 -20.944 -20.094  0.00  0.00    +0.016 C 
ATOM     15  C   UNL     1      36.389 -19.825 -21.094  0.00  0.00    +0.016 C 
ATOM     16  C   UNL     1      33.993 -20.113 -21.213  0.00  0.00    +0.016 C 
BRANCH  12  18
ATOM     17  O   UNL     1      34.982 -20.431 -24.449  0.00  0.00    -0.275 OA
ATOM     18  N   UNL     1      35.123 -18.693 -22.875  0.00  0.00    -0.259 N 
ATOM     19  C   UNL     1      35.484 -17.278 -22.686  0.00  0.00    +0.098 C 
ATOM     20  C   UNL     1      34.917 -16.342 -23.741  0.00  0.00    +0.022 C 
ATOM     21  C   UNL     1      35.248 -16.883 -25.114  0.00  0.00    +0.011 C 
ATOM     22  C   UNL     1      34.606 -18.244 -25.268  0.00  0.00    +0.086 C 
ATOM     23  C   UNL     1      34.944 -19.231 -24.163  0.00  0.00    +0.229 C 
ENDBRANCH  12  18
ENDBRANCH   2  11
BRANCH   3  24
ATOM     24  C   UNL     1      32.067 -23.756 -15.694  0.00  0.00    +0.083 C 
ATOM     25  C   UNL     1      31.333 -22.688 -15.194  0.00  0.00    +0.022 C 
ATOM     26  C   UNL     1      31.433 -24.824 -16.317  0.00  0.00    +0.022 C 
ATOM     27  C   UNL     1      29.944 -22.688 -15.319  0.00  0.00    +0.038 C 
ATOM     28  C   UNL     1      30.044 -24.824 -16.443  0.00  0.00    +0.038 C 
ATOM     29  C   UNL     1      29.299 -23.755 -15.942  0.00  0.00    +0.139 C 
BRANCH  29  30
ATOM     30  O   UNL     1      27.943 -23.755 -16.065  0.00  0.00    -0.471 OA
ATOM     31  C   UNL     1      27.334 -22.555 -16.539  0.00  0.00    +0.252 C 
ENDBRANCH  29  30
ENDBRANCH   3  24
BRANCH  10  34
ATOM     32  O   UNL     1      36.928 -24.040 -12.982  0.00  0.00    -0.269 OA
ATOM     33  N   UNL     1      36.441 -26.128 -13.755  0.00  0.00    -0.324 N 
ATOM     34  C   UNL     1      36.274 -24.742 -13.780  0.00  0.00    +0.262 C 
ATOM     35  H   UNL     1      37.080 -26.534 -13.127  0.00  0.00    +0.145 HD
ATOM     36  H   UNL     1      35.921 -26.697 -14.367  0.00  0.00    +0.145 HD
ENDBRANCH  10  34
TORSDOF 5
ENDMDL
