MODEL 1
REMARK VINA RESULT:     -11.3      0.000      0.000
REMARK  Name = 24779724
REMARK  3 active torsions:
REMARK  status: ('A' for Active; 'I' for Inactive)
REMARK    1  A    between atoms: C_5  and  C_12
REMARK    2  A    between atoms: C_7  and  S_16
REMARK    3  A    between atoms: S_16  and  C_19
REMARK                            x       y       z     vdW  Elec       q    Type
REMARK                         _______ _______ _______ _____ _____    ______ ____
ROOT
ATOM      1  N   UNL     1      34.811 -21.735 -19.163  0.00  0.00    -0.186 N 
ATOM      2  N   UNL     1      35.819 -22.076 -18.322  0.00  0.00    -0.162 NA
ATOM      3  N   UNL     1      32.824 -21.569 -20.083  0.00  0.00    -0.126 NA
ATOM      4  N   UNL     1      33.717 -20.832 -20.834  0.00  0.00    -0.120 NA
ATOM      5  C   UNL     1      35.444 -22.842 -17.335  0.00  0.00    +0.104 C 
ATOM      6  C   UNL     1      33.490 -22.107 -19.083  0.00  0.00    +0.187 A 
ATOM      7  C   UNL     1      34.899 -20.943 -20.271  0.00  0.00    +0.217 A 
ATOM      8  C   UNL     1      34.044 -23.339 -17.132  0.00  0.00    +0.024 C 
ATOM      9  C   UNL     1      33.117 -22.948 -18.016  0.00  0.00    +0.042 C 
ENDROOT
BRANCH   5  12
ATOM     10  N   UNL     1      37.461 -24.321 -14.703  0.00  0.00    -0.208 N 
ATOM     11  N   UNL     1      38.393 -23.458 -15.143  0.00  0.00    -0.176 NA
ATOM     12  C   UNL     1      36.456 -23.280 -16.341  0.00  0.00    +0.056 C 
ATOM     13  C   UNL     1      36.283 -24.254 -15.388  0.00  0.00    +0.087 C 
ATOM     14  C   UNL     1      37.774 -22.826 -16.142  0.00  0.00    +0.121 C 
ATOM     15  C   UNL     1      37.763 -25.204 -13.602  0.00  0.00    +0.140 C 
ENDBRANCH   5  12
BRANCH   7  16
ATOM     16  S   UNL     1      36.421 -20.193 -20.829  0.00  0.00    -0.051 S 
BRANCH  16  19
ATOM     17  N   UNL     1      34.484 -16.915 -25.399  0.00  0.00    -0.248 NA
ATOM     18  C   UNL     1      35.292 -17.034 -23.132  0.00  0.00    -0.003 C 
ATOM     19  C   UNL     1      35.843 -19.202 -22.191  0.00  0.00    +0.011 C 
ATOM     20  C   UNL     1      34.925 -17.638 -24.353  0.00  0.00    +0.060 C 
ATOM     21  C   UNL     1      35.748 -17.820 -22.061  0.00  0.00    +0.060 C 
ATOM     22  C   UNL     1      35.484 -19.804 -23.390  0.00  0.00    -0.017 C 
ATOM     23  C   UNL     1      35.030 -19.023 -24.456  0.00  0.00    +0.072 C 
ATOM     24  C   UNL     1      35.186 -15.641 -23.029  0.00  0.00    -0.001 C 
ATOM     25  C   UNL     1      34.732 -14.892 -24.105  0.00  0.00    +0.020 C 
ATOM     26  C   UNL     1      34.397 -15.573 -25.258  0.00  0.00    +0.098 C 
ENDBRANCH  16  19
ENDBRANCH   7  16
TORSDOF 3
ENDMDL
MODEL 2
REMARK VINA RESULT:     -10.9      0.985      1.644
REMARK  Name = 24779724
REMARK  3 active torsions:
REMARK  status: ('A' for Active; 'I' for Inactive)
REMARK    1  A    between atoms: C_5  and  C_12
REMARK    2  A    between atoms: C_7  and  S_16
REMARK    3  A    between atoms: S_16  and  C_19
REMARK                            x       y       z     vdW  Elec       q    Type
REMARK                         _______ _______ _______ _____ _____    ______ ____
ROOT
ATOM      1  N   UNL     1      34.783 -22.162 -18.623  0.00  0.00    -0.186 N 
ATOM      2  N   UNL     1      35.751 -22.570 -17.766  0.00  0.00    -0.162 NA
ATOM      3  N   UNL     1      32.820 -21.820 -19.547  0.00  0.00    -0.126 NA
ATOM      4  N   UNL     1      33.786 -21.235 -20.341  0.00  0.00    -0.120 NA
ATOM      5  C   UNL     1      35.299 -23.230 -16.737  0.00  0.00    +0.104 C 
ATOM      6  C   UNL     1      33.428 -22.373 -18.519  0.00  0.00    +0.187 A 
ATOM      7  C   UNL     1      34.953 -21.450 -19.775  0.00  0.00    +0.217 A 
ATOM      8  C   UNL     1      33.853 -23.549 -16.503  0.00  0.00    +0.024 C 
ATOM      9  C   UNL     1      32.970 -23.105 -17.406  0.00  0.00    +0.042 C 
ENDROOT
BRANCH   5  12
ATOM     10  N   UNL     1      37.294 -24.977 -14.257  0.00  0.00    -0.208 N 
ATOM     11  N   UNL     1      38.022 -23.847 -14.269  0.00  0.00    -0.176 NA
ATOM     12  C   UNL     1      36.262 -23.726 -15.720  0.00  0.00    +0.056 C 
ATOM     13  C   UNL     1      36.229 -24.955 -15.108  0.00  0.00    +0.087 C 
ATOM     14  C   UNL     1      37.388 -23.087 -15.164  0.00  0.00    +0.121 C 
ATOM     15  C   UNL     1      37.676 -26.067 -13.390  0.00  0.00    +0.140 C 
ENDBRANCH   5  12
BRANCH   7  16
ATOM     16  S   UNL     1      36.546 -20.913 -20.377  0.00  0.00    -0.051 S 
BRANCH  16  19
ATOM     17  N   UNL     1      34.998 -16.457 -24.000  0.00  0.00    -0.248 NA
ATOM     18  C   UNL     1      35.117 -18.823 -23.563  0.00  0.00    -0.003 C 
ATOM     19  C   UNL     1      36.078 -19.587 -21.469  0.00  0.00    +0.011 C 
ATOM     20  C   UNL     1      35.340 -17.480 -23.195  0.00  0.00    +0.060 C 
ATOM     21  C   UNL     1      35.487 -19.866 -22.697  0.00  0.00    +0.060 C 
ATOM     22  C   UNL     1      36.302 -18.266 -21.101  0.00  0.00    -0.017 C 
ATOM     23  C   UNL     1      35.934 -17.229 -21.961  0.00  0.00    +0.072 C 
ATOM     24  C   UNL     1      34.519 -19.076 -24.805  0.00  0.00    -0.001 C 
ATOM     25  C   UNL     1      34.165 -18.024 -25.637  0.00  0.00    +0.020 C 
ATOM     26  C   UNL     1      34.424 -16.744 -25.191  0.00  0.00    +0.098 C 
ENDBRANCH  16  19
ENDBRANCH   7  16
TORSDOF 3
ENDMDL
MODEL 3
REMARK VINA RESULT:     -10.8      2.796      4.113
REMARK  Name = 24779724
REMARK  3 active torsions:
REMARK  status: ('A' for Active; 'I' for Inactive)
REMARK    1  A    between atoms: C_5  and  C_12
REMARK    2  A    between atoms: C_7  and  S_16
REMARK    3  A    between atoms: S_16  and  C_19
REMARK                            x       y       z     vdW  Elec       q    Type
REMARK                         _______ _______ _______ _____ _____    ______ ____
ROOT
ATOM      1  N   UNL     1      34.129 -23.914 -16.327  0.00  0.00    -0.186 N 
ATOM      2  N   UNL     1      35.302 -24.594 -16.288  0.00  0.00    -0.162 NA
ATOM      3  N   UNL     1      32.333 -22.810 -15.711  0.00  0.00    -0.126 NA
ATOM      4  N   UNL     1      32.328 -22.923 -17.087  0.00  0.00    -0.120 NA
ATOM      5  C   UNL     1      35.774 -24.759 -15.084  0.00  0.00    +0.104 C 
ATOM      6  C   UNL     1      33.417 -23.408 -15.265  0.00  0.00    +0.187 A 
ATOM      7  C   UNL     1      33.406 -23.586 -17.438  0.00  0.00    +0.217 A 
ATOM      8  C   UNL     1      35.099 -24.278 -13.835  0.00  0.00    +0.024 C 
ATOM      9  C   UNL     1      33.943 -23.616 -13.975  0.00  0.00    +0.042 C 
ENDROOT
BRANCH   5  12
ATOM     10  N   UNL     1      39.166 -25.947 -14.566  0.00  0.00    -0.208 N 
ATOM     11  N   UNL     1      38.609 -27.155 -14.758  0.00  0.00    -0.176 NA
ATOM     12  C   UNL     1      37.058 -25.484 -14.909  0.00  0.00    +0.056 C 
ATOM     13  C   UNL     1      38.280 -24.913 -14.647  0.00  0.00    +0.087 C 
ATOM     14  C   UNL     1      37.322 -26.867 -14.966  0.00  0.00    +0.121 C 
ATOM     15  C   UNL     1      40.582 -25.843 -14.305  0.00  0.00    +0.140 C 
ENDBRANCH   5  12
BRANCH   7  16
ATOM     16  S   UNL     1      33.901 -24.017 -19.099  0.00  0.00    -0.051 S 
BRANCH  16  19
ATOM     17  N   UNL     1      34.939 -18.642 -21.427  0.00  0.00    -0.248 NA
ATOM     18  C   UNL     1      35.791 -20.699 -20.504  0.00  0.00    -0.003 C 
ATOM     19  C   UNL     1      34.223 -22.410 -19.796  0.00  0.00    +0.011 C 
ATOM     20  C   UNL     1      34.726 -19.862 -20.899  0.00  0.00    +0.060 C 
ATOM     21  C   UNL     1      35.532 -21.966 -19.956  0.00  0.00    +0.060 C 
ATOM     22  C   UNL     1      33.169 -21.591 -20.181  0.00  0.00    -0.017 C 
ATOM     23  C   UNL     1      33.426 -20.332 -20.726  0.00  0.00    +0.072 C 
ATOM     24  C   UNL     1      37.099 -20.226 -20.677  0.00  0.00    -0.001 C 
ATOM     25  C   UNL     1      37.321 -18.970 -21.222  0.00  0.00    +0.020 C 
ATOM     26  C   UNL     1      36.216 -18.224 -21.577  0.00  0.00    +0.098 C 
ENDBRANCH  16  19
ENDBRANCH   7  16
TORSDOF 3
ENDMDL
MODEL 4
REMARK VINA RESULT:     -10.7      2.818      4.074
REMARK  Name = 24779724
REMARK  3 active torsions:
REMARK  status: ('A' for Active; 'I' for Inactive)
REMARK    1  A    between atoms: C_5  and  C_12
REMARK    2  A    between atoms: C_7  and  S_16
REMARK    3  A    between atoms: S_16  and  C_19
REMARK                            x       y       z     vdW  Elec       q    Type
REMARK                         _______ _______ _______ _____ _____    ______ ____
ROOT
ATOM      1  N   UNL     1      33.086 -23.497 -16.206  0.00  0.00    -0.186 N 
ATOM      2  N   UNL     1      34.156 -24.013 -15.553  0.00  0.00    -0.162 NA
ATOM      3  N   UNL     1      31.120 -22.609 -16.620  0.00  0.00    -0.126 NA
ATOM      4  N   UNL     1      31.778 -22.796 -17.819  0.00  0.00    -0.120 NA
ATOM      5  C   UNL     1      34.015 -24.048 -14.258  0.00  0.00    +0.104 C 
ATOM      6  C   UNL     1      31.913 -23.032 -15.658  0.00  0.00    +0.187 A 
ATOM      7  C   UNL     1      32.949 -23.329 -17.554  0.00  0.00    +0.217 A 
ATOM      8  C   UNL     1      32.788 -23.593 -13.526  0.00  0.00    +0.024 C 
ATOM      9  C   UNL     1      31.782 -23.099 -14.257  0.00  0.00    +0.042 C 
ENDROOT
BRANCH   5  12
ATOM     10  N   UNL     1      37.018 -25.470 -12.792  0.00  0.00    -0.208 N 
ATOM     11  N   UNL     1      36.375 -25.243 -11.633  0.00  0.00    -0.176 NA
ATOM     12  C   UNL     1      35.123 -24.587 -13.427  0.00  0.00    +0.056 C 
ATOM     13  C   UNL     1      36.310 -25.095 -13.896  0.00  0.00    +0.087 C 
ATOM     14  C   UNL     1      35.219 -24.704 -12.027  0.00  0.00    +0.121 C 
ATOM     15  C   UNL     1      38.334 -26.060 -12.778  0.00  0.00    +0.140 C 
ENDBRANCH   5  12
BRANCH   7  16
ATOM     16  S   UNL     1      34.208 -23.781 -18.737  0.00  0.00    -0.051 S 
BRANCH  16  19
ATOM     17  N   UNL     1      34.872 -18.668 -21.704  0.00  0.00    -0.248 NA
ATOM     18  C   UNL     1      35.864 -20.536 -20.550  0.00  0.00    -0.003 C 
ATOM     19  C   UNL     1      34.418 -22.251 -19.625  0.00  0.00    +0.011 C 
ATOM     20  C   UNL     1      34.744 -19.827 -21.031  0.00  0.00    +0.060 C 
ATOM     21  C   UNL     1      35.693 -21.742 -19.851  0.00  0.00    +0.060 C 
ATOM     22  C   UNL     1      33.310 -21.558 -20.095  0.00  0.00    -0.017 C 
ATOM     23  C   UNL     1      33.479 -20.359 -20.791  0.00  0.00    +0.072 C 
ATOM     24  C   UNL     1      37.136 -20.000 -20.792  0.00  0.00    -0.001 C 
ATOM     25  C   UNL     1      37.272 -18.807 -21.485  0.00  0.00    +0.020 C 
ATOM     26  C   UNL     1      36.117 -18.185 -21.916  0.00  0.00    +0.098 C 
ENDBRANCH  16  19
ENDBRANCH   7  16
TORSDOF 3
ENDMDL
MODEL 5
REMARK VINA RESULT:     -10.4      6.383     11.987
REMARK  Name = 24779724
REMARK  3 active torsions:
REMARK  status: ('A' for Active; 'I' for Inactive)
REMARK    1  A    between atoms: C_5  and  C_12
REMARK    2  A    between atoms: C_7  and  S_16
REMARK    3  A    between atoms: S_16  and  C_19
REMARK                            x       y       z     vdW  Elec       q    Type
REMARK                         _______ _______ _______ _____ _____    ______ ____
ROOT
ATOM      1  N   UNL     1      32.724 -11.582 -22.398  0.00  0.00    -0.186 N 
ATOM      2  N   UNL     1      32.902 -10.341 -22.916  0.00  0.00    -0.162 NA
ATOM      3  N   UNL     1      32.105 -13.226 -21.081  0.00  0.00    -0.126 NA
ATOM      4  N   UNL     1      32.801 -13.758 -22.148  0.00  0.00    -0.120 NA
ATOM      5  C   UNL     1      32.365  -9.392 -22.203  0.00  0.00    +0.104 C 
ATOM      6  C   UNL     1      32.064 -11.920 -21.241  0.00  0.00    +0.187 A 
ATOM      7  C   UNL     1      33.165 -12.762 -22.924  0.00  0.00    +0.217 A 
ATOM      8  C   UNL     1      31.633  -9.610 -20.913  0.00  0.00    +0.024 C 
ATOM      9  C   UNL     1      31.509 -10.872 -20.482  0.00  0.00    +0.042 C 
ENDROOT
BRANCH   5  12
ATOM     10  N   UNL     1      32.017  -5.951 -23.311  0.00  0.00    -0.208 N 
ATOM     11  N   UNL     1      33.360  -5.993 -23.365  0.00  0.00    -0.176 NA
ATOM     12  C   UNL     1      32.486  -7.986 -22.669  0.00  0.00    +0.056 C 
ATOM     13  C   UNL     1      31.446  -7.120 -22.900  0.00  0.00    +0.087 C 
ATOM     14  C   UNL     1      33.640  -7.238 -22.971  0.00  0.00    +0.121 C 
ATOM     15  C   UNL     1      31.323  -4.738 -23.673  0.00  0.00    +0.140 C 
ENDBRANCH   5  12
BRANCH   7  16
ATOM     16  S   UNL     1      34.092 -12.879 -24.446  0.00  0.00    -0.051 S 
BRANCH  16  19
ATOM     17  N   UNL     1      34.740 -18.767 -24.991  0.00  0.00    -0.248 NA
ATOM     18  C   UNL     1      35.162 -16.743 -23.753  0.00  0.00    -0.003 C 
ATOM     19  C   UNL     1      34.291 -14.642 -24.599  0.00  0.00    +0.011 C 
ATOM     20  C   UNL     1      34.604 -17.435 -24.848  0.00  0.00    +0.060 C 
ATOM     21  C   UNL     1      35.001 -15.353 -23.636  0.00  0.00    +0.060 C 
ATOM     22  C   UNL     1      33.740 -15.317 -25.681  0.00  0.00    -0.017 C 
ATOM     23  C   UNL     1      33.900 -16.699 -25.798  0.00  0.00    +0.072 C 
ATOM     24  C   UNL     1      35.871 -17.484 -22.798  0.00  0.00    -0.001 C 
ATOM     25  C   UNL     1      36.013 -18.856 -22.942  0.00  0.00    +0.020 C 
ATOM     26  C   UNL     1      35.432 -19.444 -24.047  0.00  0.00    +0.098 C 
ENDBRANCH  16  19
ENDBRANCH   7  16
TORSDOF 3
ENDMDL
MODEL 6
REMARK VINA RESULT:     -10.2      2.294      9.394
REMARK  Name = 24779724
REMARK  3 active torsions:
REMARK  status: ('A' for Active; 'I' for Inactive)
REMARK    1  A    between atoms: C_5  and  C_12
REMARK    2  A    between atoms: C_7  and  S_16
REMARK    3  A    between atoms: S_16  and  C_19
REMARK                            x       y       z     vdW  Elec       q    Type
REMARK                         _______ _______ _______ _____ _____    ______ ____
ROOT
ATOM      1  N   UNL     1      35.587 -20.031 -21.134  0.00  0.00    -0.186 N 
ATOM      2  N   UNL     1      34.897 -19.511 -22.180  0.00  0.00    -0.162 NA
ATOM      3  N   UNL     1      37.199 -20.479 -19.711  0.00  0.00    -0.126 NA
ATOM      4  N   UNL     1      36.073 -21.182 -19.334  0.00  0.00    -0.120 NA
ATOM      5  C   UNL     1      35.594 -18.692 -22.915  0.00  0.00    +0.104 C 
ATOM      6  C   UNL     1      36.897 -19.791 -20.792  0.00  0.00    +0.187 A 
ATOM      7  C   UNL     1      35.120 -20.905 -20.195  0.00  0.00    +0.217 A 
ATOM      8  C   UNL     1      37.034 -18.352 -22.673  0.00  0.00    +0.024 C 
ATOM      9  C   UNL     1      37.631 -18.915 -21.616  0.00  0.00    +0.042 C 
ENDROOT
BRANCH   5  12
ATOM     10  N   UNL     1      34.248 -16.578 -25.543  0.00  0.00    -0.208 N 
ATOM     11  N   UNL     1      33.773 -17.740 -26.024  0.00  0.00    -0.176 NA
ATOM     12  C   UNL     1      34.948 -18.052 -24.090  0.00  0.00    +0.056 C 
ATOM     13  C   UNL     1      34.958 -16.711 -24.386  0.00  0.00    +0.087 C 
ATOM     14  C   UNL     1      34.204 -18.636 -25.133  0.00  0.00    +0.121 C 
ATOM     15  C   UNL     1      33.983 -15.348 -26.249  0.00  0.00    +0.140 C 
ENDBRANCH   5  12
BRANCH   7  16
ATOM     16  S   UNL     1      33.452 -21.542 -20.184  0.00  0.00    -0.051 S 
BRANCH  16  19
ATOM     17  N   UNL     1      33.300 -24.223 -14.876  0.00  0.00    -0.248 NA
ATOM     18  C   UNL     1      32.141 -23.076 -16.650  0.00  0.00    -0.003 C 
ATOM     19  C   UNL     1      33.395 -22.344 -18.595  0.00  0.00    +0.011 C 
ATOM     20  C   UNL     1      33.312 -23.614 -16.076  0.00  0.00    +0.060 C 
ATOM     21  C   UNL     1      32.191 -22.445 -17.904  0.00  0.00    +0.060 C 
ATOM     22  C   UNL     1      34.552 -22.870 -18.035  0.00  0.00    -0.017 C 
ATOM     23  C   UNL     1      34.503 -23.497 -16.788  0.00  0.00    +0.072 C 
ATOM     24  C   UNL     1      30.942 -23.192 -15.934  0.00  0.00    -0.001 C 
ATOM     25  C   UNL     1      30.926 -23.821 -14.697  0.00  0.00    +0.020 C 
ATOM     26  C   UNL     1      32.122 -24.315 -14.217  0.00  0.00    +0.098 C 
ENDBRANCH  16  19
ENDBRANCH   7  16
TORSDOF 3
ENDMDL
MODEL 7
REMARK VINA RESULT:     -10.2      3.668      6.227
REMARK  Name = 24779724
REMARK  3 active torsions:
REMARK  status: ('A' for Active; 'I' for Inactive)
REMARK    1  A    between atoms: C_5  and  C_12
REMARK    2  A    between atoms: C_7  and  S_16
REMARK    3  A    between atoms: S_16  and  C_19
REMARK                            x       y       z     vdW  Elec       q    Type
REMARK                         _______ _______ _______ _____ _____    ______ ____
ROOT
ATOM      1  N   UNL     1      32.852 -23.244 -16.681  0.00  0.00    -0.186 N 
ATOM      2  N   UNL     1      31.558 -23.132 -17.073  0.00  0.00    -0.162 NA
ATOM      3  N   UNL     1      34.652 -23.368 -15.428  0.00  0.00    -0.126 NA
ATOM      4  N   UNL     1      35.030 -23.475 -16.751  0.00  0.00    -0.120 NA
ATOM      5  C   UNL     1      30.718 -23.004 -16.085  0.00  0.00    +0.104 C 
ATOM      6  C   UNL     1      33.343 -23.230 -15.397  0.00  0.00    +0.187 A 
ATOM      7  C   UNL     1      33.944 -23.397 -17.486  0.00  0.00    +0.217 A 
ATOM      8  C   UNL     1      31.111 -22.954 -14.639  0.00  0.00    +0.024 C 
ATOM      9  C   UNL     1      32.413 -23.072 -14.350  0.00  0.00    +0.042 C 
ENDROOT
BRANCH   5  12
ATOM     10  N   UNL     1      27.134 -22.439 -16.228  0.00  0.00    -0.208 N 
ATOM     11  N   UNL     1      27.252 -22.981 -17.452  0.00  0.00    -0.176 NA
ATOM     12  C   UNL     1      29.269 -22.878 -16.384  0.00  0.00    +0.056 C 
ATOM     13  C   UNL     1      28.314 -22.354 -15.547  0.00  0.00    +0.087 C 
ATOM     14  C   UNL     1      28.557 -23.247 -17.542  0.00  0.00    +0.121 C 
ATOM     15  C   UNL     1      25.840 -22.011 -15.754  0.00  0.00    +0.140 C 
ENDBRANCH   5  12
BRANCH   7  16
ATOM     16  S   UNL     1      33.852 -23.477 -19.268  0.00  0.00    -0.051 S 
BRANCH  16  19
ATOM     17  N   UNL     1      37.458 -19.000 -20.797  0.00  0.00    -0.248 NA
ATOM     18  C   UNL     1      35.393 -20.198 -21.121  0.00  0.00    -0.003 C 
ATOM     19  C   UNL     1      34.924 -22.133 -19.733  0.00  0.00    +0.011 C 
ATOM     20  C   UNL     1      36.627 -20.006 -20.466  0.00  0.00    +0.060 C 
ATOM     21  C   UNL     1      34.551 -21.259 -20.750  0.00  0.00    +0.060 C 
ATOM     22  C   UNL     1      36.138 -21.950 -19.084  0.00  0.00    -0.017 C 
ATOM     23  C   UNL     1      36.976 -20.895 -19.453  0.00  0.00    +0.072 C 
ATOM     24  C   UNL     1      35.042 -19.304 -22.141  0.00  0.00    -0.001 C 
ATOM     25  C   UNL     1      35.896 -18.266 -22.485  0.00  0.00    +0.020 C 
ATOM     26  C   UNL     1      37.082 -18.159 -21.787  0.00  0.00    +0.098 C 
ENDBRANCH  16  19
ENDBRANCH   7  16
TORSDOF 3
ENDMDL
MODEL 8
REMARK VINA RESULT:     -10.1      2.679      9.418
REMARK  Name = 24779724
REMARK  3 active torsions:
REMARK  status: ('A' for Active; 'I' for Inactive)
REMARK    1  A    between atoms: C_5  and  C_12
REMARK    2  A    between atoms: C_7  and  S_16
REMARK    3  A    between atoms: S_16  and  C_19
REMARK                            x       y       z     vdW  Elec       q    Type
REMARK                         _______ _______ _______ _____ _____    ______ ____
ROOT
ATOM      1  N   UNL     1      35.045 -17.860 -24.099  0.00  0.00    -0.186 N 
ATOM      2  N   UNL     1      35.033 -16.607 -23.582  0.00  0.00    -0.162 NA
ATOM      3  N   UNL     1      34.729 -19.570 -25.441  0.00  0.00    -0.126 NA
ATOM      4  N   UNL     1      35.418 -20.008 -24.329  0.00  0.00    -0.120 NA
ATOM      5  C   UNL     1      34.440 -15.730 -24.342  0.00  0.00    +0.104 C 
ATOM      6  C   UNL     1      34.510 -18.280 -25.294  0.00  0.00    +0.187 A 
ATOM      7  C   UNL     1      35.598 -18.975 -23.537  0.00  0.00    +0.217 A 
ATOM      8  C   UNL     1      33.796 -16.047 -25.659  0.00  0.00    +0.024 C 
ATOM      9  C   UNL     1      33.859 -17.314 -26.086  0.00  0.00    +0.042 C 
ENDROOT
BRANCH   5  12
ATOM     10  N   UNL     1      34.163 -12.142 -23.857  0.00  0.00    -0.208 N 
ATOM     11  N   UNL     1      34.367 -12.455 -22.566  0.00  0.00    -0.176 NA
ATOM     12  C   UNL     1      34.366 -14.317 -23.889  0.00  0.00    +0.056 C 
ATOM     13  C   UNL     1      34.154 -13.222 -24.691  0.00  0.00    +0.087 C 
ATOM     14  C   UNL     1      34.489 -13.784 -22.592  0.00  0.00    +0.121 C 
ATOM     15  C   UNL     1      33.980 -10.763 -24.241  0.00  0.00    +0.140 C 
ENDBRANCH   5  12
BRANCH   7  16
ATOM     16  S   UNL     1      36.431 -18.973 -21.957  0.00  0.00    -0.051 S 
BRANCH  16  19
ATOM     17  N   UNL     1      32.796 -22.423 -18.752  0.00  0.00    -0.248 NA
ATOM     18  C   UNL     1      35.025 -21.638 -19.222  0.00  0.00    -0.003 C 
ATOM     19  C   UNL     1      35.352 -20.009 -20.991  0.00  0.00    +0.011 C 
ATOM     20  C   UNL     1      33.636 -21.649 -19.465  0.00  0.00    +0.060 C 
ATOM     21  C   UNL     1      35.873 -20.819 -19.986  0.00  0.00    +0.060 C 
ATOM     22  C   UNL     1      33.985 -20.015 -21.236  0.00  0.00    -0.017 C 
ATOM     23  C   UNL     1      33.142 -20.830 -20.477  0.00  0.00    +0.072 C 
ATOM     24  C   UNL     1      35.522 -22.463 -18.204  0.00  0.00    -0.001 C 
ATOM     25  C   UNL     1      34.660 -23.261 -17.467  0.00  0.00    +0.020 C 
ATOM     26  C   UNL     1      33.316 -23.204 -17.779  0.00  0.00    +0.098 C 
ENDBRANCH  16  19
ENDBRANCH   7  16
TORSDOF 3
ENDMDL
MODEL 9
REMARK VINA RESULT:      -9.9      3.098      9.949
REMARK  Name = 24779724
REMARK  3 active torsions:
REMARK  status: ('A' for Active; 'I' for Inactive)
REMARK    1  A    between atoms: C_5  and  C_12
REMARK    2  A    between atoms: C_7  and  S_16
REMARK    3  A    between atoms: S_16  and  C_19
REMARK                            x       y       z     vdW  Elec       q    Type
REMARK                         _______ _______ _______ _____ _____    ______ ____
ROOT
ATOM      1  N   UNL     1      34.780 -16.160 -24.345  0.00  0.00    -0.186 N 
ATOM      2  N   UNL     1      34.696 -14.880 -23.905  0.00  0.00    -0.162 NA
ATOM      3  N   UNL     1      34.541 -17.968 -25.568  0.00  0.00    -0.126 NA
ATOM      4  N   UNL     1      35.298 -18.286 -24.459  0.00  0.00    -0.120 NA
ATOM      5  C   UNL     1      34.015 -14.096 -24.693  0.00  0.00    +0.104 C 
ATOM      6  C   UNL     1      34.236 -16.690 -25.491  0.00  0.00    +0.187 A 
ATOM      7  C   UNL     1      35.429 -17.196 -23.738  0.00  0.00    +0.217 A 
ATOM      8  C   UNL     1      33.352 -14.539 -25.963  0.00  0.00    +0.024 C 
ATOM      9  C   UNL     1      33.491 -15.824 -26.315  0.00  0.00    +0.042 C 
ENDROOT
BRANCH   5  12
ATOM     10  N   UNL     1      33.208 -10.820 -23.350  0.00  0.00    -0.208 N 
ATOM     11  N   UNL     1      34.081 -10.393 -24.279  0.00  0.00    -0.176 NA
ATOM     12  C   UNL     1      33.855 -12.666 -24.324  0.00  0.00    +0.056 C 
ATOM     13  C   UNL     1      33.037 -12.174 -23.337  0.00  0.00    +0.087 C 
ATOM     14  C   UNL     1      34.473 -11.525 -24.870  0.00  0.00    +0.121 C 
ATOM     15  C   UNL     1      32.554  -9.866 -22.488  0.00  0.00    +0.140 C 
ENDBRANCH   5  12
BRANCH   7  16
ATOM     16  S   UNL     1      36.314 -17.037 -22.194  0.00  0.00    -0.051 S 
BRANCH  16  19
ATOM     17  N   UNL     1      35.432 -22.393 -19.762  0.00  0.00    -0.248 NA
ATOM     18  C   UNL     1      34.520 -20.357 -20.672  0.00  0.00    -0.003 C 
ATOM     19  C   UNL     1      36.039 -18.639 -21.468  0.00  0.00    +0.011 C 
ATOM     20  C   UNL     1      35.609 -21.178 -20.314  0.00  0.00    +0.060 C 
ATOM     21  C   UNL     1      34.742 -19.094 -21.245  0.00  0.00    +0.060 C 
ATOM     22  C   UNL     1      37.116 -19.443 -21.117  0.00  0.00    -0.017 C 
ATOM     23  C   UNL     1      36.896 -20.698 -20.547  0.00  0.00    +0.072 C 
ATOM     24  C   UNL     1      33.226 -20.840 -20.437  0.00  0.00    -0.001 C 
ATOM     25  C   UNL     1      33.039 -22.091 -19.869  0.00  0.00    +0.020 C 
ATOM     26  C   UNL     1      34.167 -22.822 -19.553  0.00  0.00    +0.098 C 
ENDBRANCH  16  19
ENDBRANCH   7  16
TORSDOF 3
ENDMDL
