MODEL 1
REMARK VINA RESULT:     -11.8      0.000      0.000
REMARK  Name = 5287739
REMARK  3 active torsions:
REMARK  status: ('A' for Active; 'I' for Inactive)
REMARK    1  A    between atoms: C_2  and  O_21
REMARK    2  A    between atoms: C_3  and  O_23
REMARK    3  A    between atoms: C_4  and  O_25
REMARK                            x       y       z     vdW  Elec       q    Type
REMARK                         _______ _______ _______ _____ _____    ______ ____
ROOT
ATOM      1  C   UNL     1      35.824 -23.929 -13.804  0.00  0.00    -0.021 C 
ATOM      2  C   UNL     1      37.391 -24.997 -11.583  0.00  0.00    +0.168 C 
ATOM      3  C   UNL     1      38.068 -24.034 -12.560  0.00  0.00    +0.162 C 
ATOM      4  C   UNL     1      35.955 -24.551 -11.323  0.00  0.00    +0.144 C 
ATOM      5  C   UNL     1      35.131 -24.559 -12.610  0.00  0.00    +0.058 C 
ATOM      6  C   UNL     1      37.216 -23.698 -13.767  0.00  0.00    +0.003 C 
ATOM      7  C   UNL     1      35.083 -23.615 -14.984  0.00  0.00    -0.004 C 
ATOM      8  C   UNL     1      35.752 -23.029 -16.090  0.00  0.00    -0.000 C 
ATOM      9  C   UNL     1      37.139 -22.775 -16.027  0.00  0.00    -0.000 C 
ATOM     10  C   UNL     1      37.851 -23.114 -14.874  0.00  0.00    -0.002 C 
ATOM     11  C   UNL     1      35.042 -22.694 -17.276  0.00  0.00    -0.000 C 
ATOM     12  C   UNL     1      33.699 -23.858 -15.121  0.00  0.00    -0.000 C 
ATOM     13  C   UNL     1      33.656 -22.947 -17.370  0.00  0.00    -0.000 C 
ATOM     14  C   UNL     1      35.716 -22.105 -18.373  0.00  0.00    -0.000 C 
ATOM     15  C   UNL     1      37.792 -22.193 -17.122  0.00  0.00    -0.000 C 
ATOM     16  C   UNL     1      33.000 -23.532 -16.286  0.00  0.00    -0.000 C 
ATOM     17  C   UNL     1      37.090 -21.860 -18.280  0.00  0.00    -0.000 C 
ATOM     18  C   UNL     1      32.965 -22.612 -18.543  0.00  0.00    -0.000 C 
ATOM     19  C   UNL     1      35.001 -21.780 -19.535  0.00  0.00    -0.000 C 
ATOM     20  C   UNL     1      33.633 -22.031 -19.618  0.00  0.00    +0.000 C 
ENDROOT
BRANCH   2  21
ATOM     21  O   UNL     1      37.393 -26.316 -12.128  0.00  0.00    -0.379 OA
ATOM     22  H   UNL     1      36.681 -26.397 -12.781  0.00  0.00    +0.211 HD
ENDBRANCH   2  21
BRANCH   3  23
ATOM     23  O   UNL     1      38.365 -22.809 -11.891  0.00  0.00    -0.377 OA
ATOM     24  H   UNL     1      37.552 -22.448 -11.503  0.00  0.00    +0.211 HD
ENDBRANCH   3  23
BRANCH   4  25
ATOM     25  O   UNL     1      35.334 -25.421 -10.381  0.00  0.00    -0.382 OA
ATOM     26  H   UNL     1      34.794 -26.075 -10.851  0.00  0.00    +0.210 HD
ENDBRANCH   4  25
TORSDOF 3
ENDMDL
MODEL 2
REMARK VINA RESULT:     -10.8      0.909      3.143
REMARK  Name = 5287739
REMARK  3 active torsions:
REMARK  status: ('A' for Active; 'I' for Inactive)
REMARK    1  A    between atoms: C_2  and  O_21
REMARK    2  A    between atoms: C_3  and  O_23
REMARK    3  A    between atoms: C_4  and  O_25
REMARK                            x       y       z     vdW  Elec       q    Type
REMARK                         _______ _______ _______ _____ _____    ______ ____
ROOT
ATOM      1  C   UNL     1      36.754 -23.345 -14.274  0.00  0.00    -0.021 C 
ATOM      2  C   UNL     1      37.112 -23.803 -11.412  0.00  0.00    +0.168 C 
ATOM      3  C   UNL     1      35.826 -24.296 -12.077  0.00  0.00    +0.162 C 
ATOM      4  C   UNL     1      38.299 -24.024 -12.347  0.00  0.00    +0.144 C 
ATOM      5  C   UNL     1      38.133 -23.239 -13.647  0.00  0.00    +0.058 C 
ATOM      6  C   UNL     1      35.673 -23.837 -13.513  0.00  0.00    +0.003 C 
ATOM      7  C   UNL     1      36.537 -22.903 -15.614  0.00  0.00    -0.004 C 
ATOM      8  C   UNL     1      35.240 -23.009 -16.180  0.00  0.00    -0.000 C 
ATOM      9  C   UNL     1      34.174 -23.532 -15.417  0.00  0.00    -0.000 C 
ATOM     10  C   UNL     1      34.402 -23.935 -14.099  0.00  0.00    -0.002 C 
ATOM     11  C   UNL     1      34.991 -22.588 -17.516  0.00  0.00    -0.000 C 
ATOM     12  C   UNL     1      37.553 -22.353 -16.427  0.00  0.00    -0.000 C 
ATOM     13  C   UNL     1      36.037 -22.050 -18.298  0.00  0.00    -0.000 C 
ATOM     14  C   UNL     1      33.695 -22.701 -18.074  0.00  0.00    -0.000 C 
ATOM     15  C   UNL     1      32.896 -23.637 -15.983  0.00  0.00    -0.000 C 
ATOM     16  C   UNL     1      37.311 -21.937 -17.738  0.00  0.00    -0.000 C 
ATOM     17  C   UNL     1      32.659 -23.229 -17.295  0.00  0.00    -0.000 C 
ATOM     18  C   UNL     1      35.782 -21.640 -19.614  0.00  0.00    -0.000 C 
ATOM     19  C   UNL     1      33.467 -22.283 -19.393  0.00  0.00    -0.000 C 
ATOM     20  C   UNL     1      34.505 -21.756 -20.157  0.00  0.00    +0.000 C 
ENDROOT
BRANCH   2  21
ATOM     21  O   UNL     1      36.994 -22.415 -11.104  0.00  0.00    -0.379 OA
ATOM     22  H   UNL     1      36.674 -21.937 -11.884  0.00  0.00    +0.211 HD
ENDBRANCH   2  21
BRANCH   3  23
ATOM     23  O   UNL     1      35.808 -25.723 -12.079  0.00  0.00    -0.377 OA
ATOM     24  H   UNL     1      36.282 -26.050 -12.860  0.00  0.00    +0.211 HD
ENDBRANCH   3  23
BRANCH   4  25
ATOM     25  O   UNL     1      39.505 -23.606 -11.714  0.00  0.00    -0.382 OA
ATOM     26  H   UNL     1      39.475 -23.839 -10.773  0.00  0.00    +0.210 HD
ENDBRANCH   4  25
TORSDOF 3
ENDMDL
MODEL 3
REMARK VINA RESULT:     -10.3      3.056      4.975
REMARK  Name = 5287739
REMARK  3 active torsions:
REMARK  status: ('A' for Active; 'I' for Inactive)
REMARK    1  A    between atoms: C_2  and  O_21
REMARK    2  A    between atoms: C_3  and  O_23
REMARK    3  A    between atoms: C_4  and  O_25
REMARK                            x       y       z     vdW  Elec       q    Type
REMARK                         _______ _______ _______ _____ _____    ______ ____
ROOT
ATOM      1  C   UNL     1      31.915 -23.788 -15.846  0.00  0.00    -0.021 C 
ATOM      2  C   UNL     1      29.948 -25.264 -14.272  0.00  0.00    +0.168 C 
ATOM      3  C   UNL     1      31.262 -24.853 -13.603  0.00  0.00    +0.162 C 
ATOM      4  C   UNL     1      29.464 -24.151 -15.197  0.00  0.00    +0.144 C 
ATOM      5  C   UNL     1      30.473 -23.879 -16.312  0.00  0.00    +0.058 C 
ATOM      6  C   UNL     1      32.272 -24.263 -14.566  0.00  0.00    +0.003 C 
ATOM      7  C   UNL     1      32.920 -23.267 -16.717  0.00  0.00    -0.004 C 
ATOM      8  C   UNL     1      34.263 -23.193 -16.262  0.00  0.00    -0.000 C 
ATOM      9  C   UNL     1      34.600 -23.643 -14.968  0.00  0.00    -0.000 C 
ATOM     10  C   UNL     1      33.606 -24.173 -14.141  0.00  0.00    -0.002 C 
ATOM     11  C   UNL     1      35.288 -22.670 -17.100  0.00  0.00    -0.000 C 
ATOM     12  C   UNL     1      32.657 -22.816 -18.028  0.00  0.00    -0.000 C 
ATOM     13  C   UNL     1      34.980 -22.222 -18.403  0.00  0.00    -0.000 C 
ATOM     14  C   UNL     1      36.623 -22.595 -16.636  0.00  0.00    -0.000 C 
ATOM     15  C   UNL     1      35.927 -23.563 -14.524  0.00  0.00    -0.000 C 
ATOM     16  C   UNL     1      33.662 -22.304 -18.853  0.00  0.00    -0.000 C 
ATOM     17  C   UNL     1      36.926 -23.044 -15.347  0.00  0.00    -0.000 C 
ATOM     18  C   UNL     1      35.996 -21.707 -19.220  0.00  0.00    -0.000 C 
ATOM     19  C   UNL     1      37.621 -22.075 -17.475  0.00  0.00    -0.000 C 
ATOM     20  C   UNL     1      37.308 -21.634 -18.758  0.00  0.00    +0.000 C 
ENDROOT
BRANCH   2  21
ATOM     21  O   UNL     1      30.144 -26.462 -15.022  0.00  0.00    -0.379 OA
ATOM     22  H   UNL     1      29.347 -27.012 -14.966  0.00  0.00    +0.211 HD
ENDBRANCH   2  21
BRANCH   3  23
ATOM     23  O   UNL     1      30.999 -23.871 -12.602  0.00  0.00    -0.377 OA
ATOM     24  H   UNL     1      30.785 -23.026 -13.028  0.00  0.00    +0.211 HD
ENDBRANCH   3  23
BRANCH   4  25
ATOM     25  O   UNL     1      28.219 -24.511 -15.788  0.00  0.00    -0.382 OA
ATOM     26  H   UNL     1      27.981 -23.859 -16.465  0.00  0.00    +0.210 HD
ENDBRANCH   4  25
TORSDOF 3
ENDMDL
MODEL 4
REMARK VINA RESULT:     -10.1      1.535      3.790
REMARK  Name = 5287739
REMARK  3 active torsions:
REMARK  status: ('A' for Active; 'I' for Inactive)
REMARK    1  A    between atoms: C_2  and  O_21
REMARK    2  A    between atoms: C_3  and  O_23
REMARK    3  A    between atoms: C_4  and  O_25
REMARK                            x       y       z     vdW  Elec       q    Type
REMARK                         _______ _______ _______ _____ _____    ______ ____
ROOT
ATOM      1  C   UNL     1      36.598 -23.357 -16.214  0.00  0.00    -0.021 C 
ATOM      2  C   UNL     1      36.980 -24.567 -13.584  0.00  0.00    +0.168 C 
ATOM      3  C   UNL     1      35.638 -24.763 -14.291  0.00  0.00    +0.162 C 
ATOM      4  C   UNL     1      38.118 -24.637 -14.599  0.00  0.00    +0.144 C 
ATOM      5  C   UNL     1      37.995 -23.532 -15.646  0.00  0.00    +0.058 C 
ATOM      6  C   UNL     1      35.494 -23.938 -15.554  0.00  0.00    +0.003 C 
ATOM      7  C   UNL     1      36.390 -22.568 -17.386  0.00  0.00    -0.004 C 
ATOM      8  C   UNL     1      35.076 -22.415 -17.898  0.00  0.00    -0.000 C 
ATOM      9  C   UNL     1      33.984 -23.027 -17.245  0.00  0.00    -0.000 C 
ATOM     10  C   UNL     1      34.205 -23.774 -16.085  0.00  0.00    -0.002 C 
ATOM     11  C   UNL     1      34.835 -21.644 -19.069  0.00  0.00    -0.000 C 
ATOM     12  C   UNL     1      37.433 -21.913 -18.078  0.00  0.00    -0.000 C 
ATOM     13  C   UNL     1      35.907 -21.012 -19.736  0.00  0.00    -0.000 C 
ATOM     14  C   UNL     1      33.521 -21.502 -19.576  0.00  0.00    -0.000 C 
ATOM     15  C   UNL     1      32.689 -22.876 -17.758  0.00  0.00    -0.000 C 
ATOM     16  C   UNL     1      37.199 -21.154 -19.227  0.00  0.00    -0.000 C 
ATOM     17  C   UNL     1      32.460 -22.124 -18.910  0.00  0.00    -0.000 C 
ATOM     18  C   UNL     1      35.660 -20.255 -20.890  0.00  0.00    -0.000 C 
ATOM     19  C   UNL     1      33.301 -20.739 -20.733  0.00  0.00    -0.000 C 
ATOM     20  C   UNL     1      34.365 -20.121 -21.385  0.00  0.00    +0.000 C 
ENDROOT
BRANCH   2  21
ATOM     21  O   UNL     1      36.998 -23.301 -12.927  0.00  0.00    -0.379 OA
ATOM     22  H   UNL     1      36.919 -22.594 -13.586  0.00  0.00    +0.211 HD
ENDBRANCH   2  21
BRANCH   3  23
ATOM     23  O   UNL     1      35.488 -26.134 -14.657  0.00  0.00    -0.377 OA
ATOM     24  H   UNL     1      34.902 -26.200 -15.427  0.00  0.00    +0.211 HD
ENDBRANCH   3  23
BRANCH   4  25
ATOM     25  O   UNL     1      39.373 -24.499 -13.938  0.00  0.00    -0.382 OA
ATOM     26  H   UNL     1      39.990 -25.169 -14.271  0.00  0.00    +0.210 HD
ENDBRANCH   4  25
TORSDOF 3
ENDMDL
MODEL 5
REMARK VINA RESULT:      -9.9      1.302      3.367
REMARK  Name = 5287739
REMARK  3 active torsions:
REMARK  status: ('A' for Active; 'I' for Inactive)
REMARK    1  A    between atoms: C_2  and  O_21
REMARK    2  A    between atoms: C_3  and  O_23
REMARK    3  A    between atoms: C_4  and  O_25
REMARK                            x       y       z     vdW  Elec       q    Type
REMARK                         _______ _______ _______ _____ _____    ______ ____
ROOT
ATOM      1  C   UNL     1      37.075 -23.870 -15.386  0.00  0.00    -0.021 C 
ATOM      2  C   UNL     1      37.934 -24.923 -12.801  0.00  0.00    +0.168 C 
ATOM      3  C   UNL     1      36.517 -25.237 -13.285  0.00  0.00    +0.162 C 
ATOM      4  C   UNL     1      38.908 -24.970 -13.975  0.00  0.00    +0.144 C 
ATOM      5  C   UNL     1      38.551 -23.928 -15.033  0.00  0.00    +0.058 C 
ATOM      6  C   UNL     1      36.127 -24.486 -14.542  0.00  0.00    +0.003 C 
ATOM      7  C   UNL     1      36.639 -23.155 -16.542  0.00  0.00    -0.004 C 
ATOM      8  C   UNL     1      35.255 -23.111 -16.851  0.00  0.00    -0.000 C 
ATOM      9  C   UNL     1      34.320 -23.758 -16.014  0.00  0.00    -0.000 C 
ATOM     10  C   UNL     1      34.765 -24.431 -14.874  0.00  0.00    -0.002 C 
ATOM     11  C   UNL     1      34.786 -22.416 -18.001  0.00  0.00    -0.000 C 
ATOM     12  C   UNL     1      37.516 -22.471 -17.411  0.00  0.00    -0.000 C 
ATOM     13  C   UNL     1      35.699 -21.751 -18.849  0.00  0.00    -0.000 C 
ATOM     14  C   UNL     1      33.404 -22.382 -18.305  0.00  0.00    -0.000 C 
ATOM     15  C   UNL     1      32.955 -23.714 -16.328  0.00  0.00    -0.000 C 
ATOM     16  C   UNL     1      37.059 -21.786 -18.540  0.00  0.00    -0.000 C 
ATOM     17  C   UNL     1      32.502 -23.036 -17.460  0.00  0.00    -0.000 C 
ATOM     18  C   UNL     1      35.228 -21.070 -19.981  0.00  0.00    -0.000 C 
ATOM     19  C   UNL     1      32.960 -21.693 -19.443  0.00  0.00    -0.000 C 
ATOM     20  C   UNL     1      33.867 -21.042 -20.275  0.00  0.00    +0.000 C 
ENDROOT
BRANCH   2  21
ATOM     21  O   UNL     1      37.963 -23.626 -12.204  0.00  0.00    -0.379 OA
ATOM     22  H   UNL     1      38.880 -23.318 -12.146  0.00  0.00    +0.211 HD
ENDBRANCH   2  21
BRANCH   3  23
ATOM     23  O   UNL     1      36.410 -26.631 -13.568  0.00  0.00    -0.377 OA
ATOM     24  H   UNL     1      35.503 -26.835 -13.845  0.00  0.00    +0.211 HD
ENDBRANCH   3  23
BRANCH   4  25
ATOM     25  O   UNL     1      40.235 -24.721 -13.521  0.00  0.00    -0.382 OA
ATOM     26  H   UNL     1      40.814 -25.448 -13.796  0.00  0.00    +0.210 HD
ENDBRANCH   4  25
TORSDOF 3
ENDMDL
MODEL 6
REMARK VINA RESULT:      -9.9      1.938      3.324
REMARK  Name = 5287739
REMARK  3 active torsions:
REMARK  status: ('A' for Active; 'I' for Inactive)
REMARK    1  A    between atoms: C_2  and  O_21
REMARK    2  A    between atoms: C_3  and  O_23
REMARK    3  A    between atoms: C_4  and  O_25
REMARK                            x       y       z     vdW  Elec       q    Type
REMARK                         _______ _______ _______ _____ _____    ______ ____
ROOT
ATOM      1  C   UNL     1      35.362 -24.522 -14.177  0.00  0.00    -0.021 C 
ATOM      2  C   UNL     1      38.136 -25.421 -14.029  0.00  0.00    +0.168 C 
ATOM      3  C   UNL     1      37.732 -24.476 -15.163  0.00  0.00    +0.162 C 
ATOM      4  C   UNL     1      37.422 -25.022 -12.740  0.00  0.00    +0.144 C 
ATOM      5  C   UNL     1      35.905 -25.124 -12.893  0.00  0.00    +0.058 C 
ATOM      6  C   UNL     1      36.239 -24.232 -15.243  0.00  0.00    +0.003 C 
ATOM      7  C   UNL     1      33.960 -24.294 -14.327  0.00  0.00    -0.004 C 
ATOM      8  C   UNL     1      33.473 -23.733 -15.536  0.00  0.00    -0.000 C 
ATOM      9  C   UNL     1      34.365 -23.419 -16.583  0.00  0.00    -0.000 C 
ATOM     10  C   UNL     1      35.730 -23.675 -16.426  0.00  0.00    -0.002 C 
ATOM     11  C   UNL     1      32.083 -23.482 -15.715  0.00  0.00    -0.000 C 
ATOM     12  C   UNL     1      33.010 -24.600 -13.328  0.00  0.00    -0.000 C 
ATOM     13  C   UNL     1      31.167 -23.797 -14.688  0.00  0.00    -0.000 C 
ATOM     14  C   UNL     1      31.606 -22.918 -16.923  0.00  0.00    -0.000 C 
ATOM     15  C   UNL     1      33.877 -22.862 -17.773  0.00  0.00    -0.000 C 
ATOM     16  C   UNL     1      31.645 -24.357 -13.502  0.00  0.00    -0.000 C 
ATOM     17  C   UNL     1      32.516 -22.613 -17.941  0.00  0.00    -0.000 C 
ATOM     18  C   UNL     1      29.800 -23.545 -14.873  0.00  0.00    -0.000 C 
ATOM     19  C   UNL     1      30.234 -22.677 -17.082  0.00  0.00    -0.000 C 
ATOM     20  C   UNL     1      29.338 -22.988 -16.063  0.00  0.00    +0.000 C 
ENDROOT
BRANCH   2  21
ATOM     21  O   UNL     1      37.793 -26.762 -14.374  0.00  0.00    -0.379 OA
ATOM     22  H   UNL     1      38.353 -27.060 -15.107  0.00  0.00    +0.211 HD
ENDBRANCH   2  21
BRANCH   3  23
ATOM     23  O   UNL     1      38.363 -23.210 -14.976  0.00  0.00    -0.377 OA
ATOM     24  H   UNL     1      38.178 -22.887 -14.080  0.00  0.00    +0.211 HD
ENDBRANCH   3  23
BRANCH   4  25
ATOM     25  O   UNL     1      37.829 -25.872 -11.672  0.00  0.00    -0.382 OA
ATOM     26  H   UNL     1      37.848 -25.366 -10.845  0.00  0.00    +0.210 HD
ENDBRANCH   4  25
TORSDOF 3
ENDMDL
MODEL 7
REMARK VINA RESULT:      -9.9      2.077      4.419
REMARK  Name = 5287739
REMARK  3 active torsions:
REMARK  status: ('A' for Active; 'I' for Inactive)
REMARK    1  A    between atoms: C_2  and  O_21
REMARK    2  A    between atoms: C_3  and  O_23
REMARK    3  A    between atoms: C_4  and  O_25
REMARK                            x       y       z     vdW  Elec       q    Type
REMARK                         _______ _______ _______ _____ _____    ______ ____
ROOT
ATOM      1  C   UNL     1      35.547 -24.105 -15.053  0.00  0.00    -0.021 C 
ATOM      2  C   UNL     1      38.062 -24.441 -13.607  0.00  0.00    +0.168 C 
ATOM      3  C   UNL     1      36.792 -25.059 -13.020  0.00  0.00    +0.162 C 
ATOM      4  C   UNL     1      38.060 -24.593 -15.126  0.00  0.00    +0.144 C 
ATOM      5  C   UNL     1      36.872 -23.866 -15.754  0.00  0.00    +0.058 C 
ATOM      6  C   UNL     1      35.529 -24.660 -13.756  0.00  0.00    +0.003 C 
ATOM      7  C   UNL     1      34.322 -23.726 -15.681  0.00  0.00    -0.004 C 
ATOM      8  C   UNL     1      33.095 -23.956 -15.007  0.00  0.00    -0.000 C 
ATOM      9  C   UNL     1      33.089 -24.540 -13.722  0.00  0.00    -0.000 C 
ATOM     10  C   UNL     1      34.301 -24.881 -13.114  0.00  0.00    -0.002 C 
ATOM     11  C   UNL     1      31.855 -23.600 -15.608  0.00  0.00    -0.000 C 
ATOM     12  C   UNL     1      34.255 -23.121 -16.955  0.00  0.00    -0.000 C 
ATOM     13  C   UNL     1      31.832 -23.004 -16.888  0.00  0.00    -0.000 C 
ATOM     14  C   UNL     1      30.635 -23.838 -14.931  0.00  0.00    -0.000 C 
ATOM     15  C   UNL     1      31.873 -24.768 -13.064  0.00  0.00    -0.000 C 
ATOM     16  C   UNL     1      33.040 -22.769 -17.547  0.00  0.00    -0.000 C 
ATOM     17  C   UNL     1      30.661 -24.423 -13.661  0.00  0.00    -0.000 C 
ATOM     18  C   UNL     1      30.606 -22.658 -17.473  0.00  0.00    -0.000 C 
ATOM     19  C   UNL     1      29.422 -23.482 -15.538  0.00  0.00    -0.000 C 
ATOM     20  C   UNL     1      29.409 -22.896 -16.802  0.00  0.00    +0.000 C 
ENDROOT
BRANCH   2  21
ATOM     21  O   UNL     1      38.129 -23.057 -13.262  0.00  0.00    -0.379 OA
ATOM     22  H   UNL     1      38.550 -22.565 -13.984  0.00  0.00    +0.211 HD
ENDBRANCH   2  21
BRANCH   3  23
ATOM     23  O   UNL     1      36.887 -26.482 -13.071  0.00  0.00    -0.377 OA
ATOM     24  H   UNL     1      37.677 -26.734 -13.575  0.00  0.00    +0.211 HD
ENDBRANCH   3  23
BRANCH   4  25
ATOM     25  O   UNL     1      39.262 -24.058 -15.673  0.00  0.00    -0.382 OA
ATOM     26  H   UNL     1      39.963 -24.086 -15.004  0.00  0.00    +0.210 HD
ENDBRANCH   4  25
TORSDOF 3
ENDMDL
MODEL 8
REMARK VINA RESULT:      -9.4      5.162      8.097
REMARK  Name = 5287739
REMARK  3 active torsions:
REMARK  status: ('A' for Active; 'I' for Inactive)
REMARK    1  A    between atoms: C_2  and  O_21
REMARK    2  A    between atoms: C_3  and  O_23
REMARK    3  A    between atoms: C_4  and  O_25
REMARK                            x       y       z     vdW  Elec       q    Type
REMARK                         _______ _______ _______ _____ _____    ______ ____
ROOT
ATOM      1  C   UNL     1      35.504 -20.060 -21.214  0.00  0.00    -0.021 C 
ATOM      2  C   UNL     1      36.184 -17.850 -22.997  0.00  0.00    +0.168 C 
ATOM      3  C   UNL     1      37.253 -18.367 -22.032  0.00  0.00    +0.162 C 
ATOM      4  C   UNL     1      35.373 -19.019 -23.550  0.00  0.00    +0.144 C 
ATOM      5  C   UNL     1      34.648 -19.768 -22.433  0.00  0.00    +0.058 C 
ATOM      6  C   UNL     1      36.728 -19.381 -21.035  0.00  0.00    +0.003 C 
ATOM      7  C   UNL     1      35.054 -20.985 -20.223  0.00  0.00    -0.004 C 
ATOM      8  C   UNL     1      35.869 -21.242 -19.090  0.00  0.00    -0.000 C 
ATOM      9  C   UNL     1      37.105 -20.578 -18.940  0.00  0.00    -0.000 C 
ATOM     10  C   UNL     1      37.516 -19.658 -19.907  0.00  0.00    -0.002 C 
ATOM     11  C   UNL     1      35.455 -22.165 -18.090  0.00  0.00    -0.000 C 
ATOM     12  C   UNL     1      33.822 -21.670 -20.301  0.00  0.00    -0.000 C 
ATOM     13  C   UNL     1      34.218 -22.836 -18.210  0.00  0.00    -0.000 C 
ATOM     14  C   UNL     1      36.276 -22.420 -16.965  0.00  0.00    -0.000 C 
ATOM     15  C   UNL     1      37.906 -20.840 -17.820  0.00  0.00    -0.000 C 
ATOM     16  C   UNL     1      33.412 -22.575 -19.319  0.00  0.00    -0.000 C 
ATOM     17  C   UNL     1      37.499 -21.750 -16.846  0.00  0.00    -0.000 C 
ATOM     18  C   UNL     1      33.820 -23.745 -17.219  0.00  0.00    -0.000 C 
ATOM     19  C   UNL     1      35.854 -23.334 -15.988  0.00  0.00    -0.000 C 
ATOM     20  C   UNL     1      34.633 -23.992 -16.116  0.00  0.00    +0.000 C 
ENDROOT
BRANCH   2  21
ATOM     21  O   UNL     1      35.318 -16.943 -22.316  0.00  0.00    -0.379 OA
ATOM     22  H   UNL     1      35.835 -16.196 -21.977  0.00  0.00    +0.211 HD
ENDBRANCH   2  21
BRANCH   3  23
ATOM     23  O   UNL     1      38.299 -18.995 -22.771  0.00  0.00    -0.377 OA
ATOM     24  H   UNL     1      38.939 -18.324 -23.057  0.00  0.00    +0.211 HD
ENDBRANCH   3  23
BRANCH   4  25
ATOM     25  O   UNL     1      34.406 -18.546 -24.483  0.00  0.00    -0.382 OA
ATOM     26  H   UNL     1      34.714 -18.720 -25.386  0.00  0.00    +0.210 HD
ENDBRANCH   4  25
TORSDOF 3
ENDMDL
MODEL 9
REMARK VINA RESULT:      -9.3     14.155     16.998
REMARK  Name = 5287739
REMARK  3 active torsions:
REMARK  status: ('A' for Active; 'I' for Inactive)
REMARK    1  A    between atoms: C_2  and  O_21
REMARK    2  A    between atoms: C_3  and  O_23
REMARK    3  A    between atoms: C_4  and  O_25
REMARK                            x       y       z     vdW  Elec       q    Type
REMARK                         _______ _______ _______ _____ _____    ______ ____
ROOT
ATOM      1  C   UNL     1      32.714  -8.113 -22.712  0.00  0.00    -0.021 C 
ATOM      2  C   UNL     1      32.030  -5.286 -22.974  0.00  0.00    +0.168 C 
ATOM      3  C   UNL     1      31.992  -5.923 -21.583  0.00  0.00    +0.162 C 
ATOM      4  C   UNL     1      33.216  -5.832 -23.764  0.00  0.00    +0.144 C 
ATOM      5  C   UNL     1      33.102  -7.343 -23.962  0.00  0.00    +0.058 C 
ATOM      6  C   UNL     1      32.181  -7.426 -21.601  0.00  0.00    +0.003 C 
ATOM      7  C   UNL     1      32.842  -9.535 -22.674  0.00  0.00    -0.004 C 
ATOM      8  C   UNL     1      32.472 -10.235 -21.497  0.00  0.00    -0.000 C 
ATOM      9  C   UNL     1      31.969  -9.532 -20.381  0.00  0.00    -0.000 C 
ATOM     10  C   UNL     1      31.827  -8.143 -20.448  0.00  0.00    -0.002 C 
ATOM     11  C   UNL     1      32.597 -11.651 -21.422  0.00  0.00    -0.000 C 
ATOM     12  C   UNL     1      33.321 -10.302 -23.758  0.00  0.00    -0.000 C 
ATOM     13  C   UNL     1      33.087 -12.380 -22.527  0.00  0.00    -0.000 C 
ATOM     14  C   UNL     1      32.229 -12.341 -20.241  0.00  0.00    -0.000 C 
ATOM     15  C   UNL     1      31.609 -10.230 -19.221  0.00  0.00    -0.000 C 
ATOM     16  C   UNL     1      33.442 -11.692 -23.688  0.00  0.00    -0.000 C 
ATOM     17  C   UNL     1      31.739 -11.616 -19.150  0.00  0.00    -0.000 C 
ATOM     18  C   UNL     1      33.207 -13.774 -22.442  0.00  0.00    -0.000 C 
ATOM     19  C   UNL     1      32.360 -13.736 -20.184  0.00  0.00    -0.000 C 
ATOM     20  C   UNL     1      32.846 -14.447 -21.278  0.00  0.00    +0.000 C 
ENDROOT
BRANCH   2  21
ATOM     21  O   UNL     1      30.816  -5.573 -23.668  0.00  0.00    -0.379 OA
ATOM     22  H   UNL     1      30.194  -4.840 -23.546  0.00  0.00    +0.211 HD
ENDBRANCH   2  21
BRANCH   3  23
ATOM     23  O   UNL     1      33.031  -5.369 -20.777  0.00  0.00    -0.377 OA
ATOM     24  H   UNL     1      32.709  -4.564 -20.344  0.00  0.00    +0.211 HD
ENDBRANCH   3  23
BRANCH   4  25
ATOM     25  O   UNL     1      33.281  -5.210 -25.043  0.00  0.00    -0.382 OA
ATOM     26  H   UNL     1      33.040  -4.274 -24.961  0.00  0.00    +0.210 HD
ENDBRANCH   4  25
TORSDOF 3
ENDMDL
