MODEL 1
REMARK VINA RESULT:      -8.7      0.000      0.000
REMARK  Name = 6857690
REMARK  2 active torsions:
REMARK  status: ('A' for Active; 'I' for Inactive)
REMARK    1  A    between atoms: C_4  and  C_18
REMARK    2  A    between atoms: C_21  and  O_24
REMARK                            x       y       z     vdW  Elec       q    Type
REMARK                         _______ _______ _______ _____ _____    ______ ____
ROOT
ATOM      1  O   UNL     1      33.382 -12.872 -26.388  0.00  0.00    -0.252 OA
ATOM      2  N   UNL     1      34.140 -12.661 -24.225  0.00  0.00    -0.259 N 
ATOM      3  N   UNL     1      34.053 -14.795 -25.311  0.00  0.00    -0.261 N 
ATOM      4  C   UNL     1      33.038 -10.510 -23.751  0.00  0.00    +0.064 C 
ATOM      5  C   UNL     1      34.279 -11.213 -24.329  0.00  0.00    +0.104 C 
ATOM      6  C   UNL     1      32.673 -11.069 -22.377  0.00  0.00    -0.019 C 
ATOM      7  C   UNL     1      33.159 -12.329 -21.968  0.00  0.00    -0.010 C 
ATOM      8  C   UNL     1      34.066 -13.162 -22.847  0.00  0.00    +0.121 C 
ATOM      9  C   UNL     1      32.809 -12.832 -20.705  0.00  0.00    -0.028 C 
ATOM     10  C   UNL     1      31.783 -10.381 -21.533  0.00  0.00    -0.005 C 
ATOM     11  C   UNL     1      31.953 -12.120 -19.867  0.00  0.00    -0.026 C 
ATOM     12  C   UNL     1      33.831 -13.411 -25.368  0.00  0.00    +0.308 C 
ATOM     13  C   UNL     1      31.433 -10.899 -20.285  0.00  0.00    -0.005 C 
ATOM     14  C   UNL     1      33.348 -14.151 -20.238  0.00  0.00    +0.030 C 
ATOM     15  C   UNL     1      31.577 -12.640 -18.520  0.00  0.00    +0.031 C 
ATOM     16  C   UNL     1      35.088 -15.432 -24.501  0.00  0.00    +0.117 C 
ATOM     17  C   UNL     1      33.409 -15.656 -26.294  0.00  0.00    +0.117 C 
ENDROOT
BRANCH   4  18
ATOM     18  C   UNL     1      33.248  -9.004 -23.794  0.00  0.00    -0.014 C 
ATOM     19  C   UNL     1      32.153  -8.157 -23.928  0.00  0.00    +0.033 C 
ATOM     20  C   UNL     1      34.536  -8.485 -23.699  0.00  0.00    -0.004 C 
ATOM     21  C   UNL     1      32.346  -6.777 -23.967  0.00  0.00    +0.133 C 
ATOM     22  C   UNL     1      34.729  -7.104 -23.738  0.00  0.00    +0.003 C 
ATOM     23  C   UNL     1      33.634  -6.250 -23.872  0.00  0.00    +0.037 C 
BRANCH  21  24
ATOM     24  O   UNL     1      31.278  -5.944 -24.098  0.00  0.00    -0.506 OA
ATOM     25  H   UNL     1      30.597  -6.147 -24.708  0.00  0.00    +0.292 HD
ENDBRANCH  21  24
ENDBRANCH   4  18
TORSDOF 2
ENDMDL
MODEL 2
REMARK VINA RESULT:      -8.6      1.947      6.078
REMARK  Name = 6857690
REMARK  2 active torsions:
REMARK  status: ('A' for Active; 'I' for Inactive)
REMARK    1  A    between atoms: C_4  and  C_18
REMARK    2  A    between atoms: C_21  and  O_24
REMARK                            x       y       z     vdW  Elec       q    Type
REMARK                         _______ _______ _______ _____ _____    ______ ____
ROOT
ATOM      1  O   UNL     1      35.225  -9.782 -24.597  0.00  0.00    -0.252 OA
ATOM      2  N   UNL     1      33.317 -10.731 -23.726  0.00  0.00    -0.259 N 
ATOM      3  N   UNL     1      33.722  -8.375 -23.565  0.00  0.00    -0.261 N 
ATOM      4  C   UNL     1      34.202 -13.022 -23.542  0.00  0.00    +0.064 C 
ATOM      5  C   UNL     1      33.514 -11.984 -24.447  0.00  0.00    +0.104 C 
ATOM      6  C   UNL     1      33.518 -13.112 -22.180  0.00  0.00    -0.019 C 
ATOM      7  C   UNL     1      32.685 -12.065 -21.730  0.00  0.00    -0.010 C 
ATOM      8  C   UNL     1      32.419 -10.834 -22.570  0.00  0.00    +0.121 C 
ATOM      9  C   UNL     1      32.069 -12.159 -20.472  0.00  0.00    -0.028 C 
ATOM     10  C   UNL     1      33.769 -14.194 -21.317  0.00  0.00    -0.005 C 
ATOM     11  C   UNL     1      32.302 -13.256 -19.645  0.00  0.00    -0.026 C 
ATOM     12  C   UNL     1      34.152  -9.638 -23.997  0.00  0.00    +0.308 C 
ATOM     13  C   UNL     1      33.160 -14.268 -20.064  0.00  0.00    -0.005 C 
ATOM     14  C   UNL     1      31.150 -11.075 -19.995  0.00  0.00    +0.030 C 
ATOM     15  C   UNL     1      31.650 -13.371 -18.308  0.00  0.00    +0.031 C 
ATOM     16  C   UNL     1      32.323  -7.977 -23.440  0.00  0.00    +0.117 C 
ATOM     17  C   UNL     1      34.691  -7.291 -23.472  0.00  0.00    +0.117 C 
ENDROOT
BRANCH   4  18
ATOM     18  C   UNL     1      34.316 -14.342 -24.290  0.00  0.00    -0.014 C 
ATOM     19  C   UNL     1      35.147 -15.344 -23.800  0.00  0.00    +0.033 C 
ATOM     20  C   UNL     1      33.588 -14.536 -25.459  0.00  0.00    -0.004 C 
ATOM     21  C   UNL     1      35.250 -16.554 -24.484  0.00  0.00    +0.133 C 
ATOM     22  C   UNL     1      33.691 -15.748 -26.145  0.00  0.00    +0.003 C 
ATOM     23  C   UNL     1      34.522 -16.756 -25.657  0.00  0.00    +0.037 C 
BRANCH  21  24
ATOM     24  O   UNL     1      36.061 -17.538 -24.009  0.00  0.00    -0.506 OA
ATOM     25  H   UNL     1      36.731 -17.333 -23.388  0.00  0.00    +0.292 HD
ENDBRANCH  21  24
ENDBRANCH   4  18
TORSDOF 2
ENDMDL
MODEL 3
REMARK VINA RESULT:      -8.2      1.813      5.805
REMARK  Name = 6857690
REMARK  2 active torsions:
REMARK  status: ('A' for Active; 'I' for Inactive)
REMARK    1  A    between atoms: C_4  and  C_18
REMARK    2  A    between atoms: C_21  and  O_24
REMARK                            x       y       z     vdW  Elec       q    Type
REMARK                         _______ _______ _______ _____ _____    ______ ____
ROOT
ATOM      1  O   UNL     1      35.138  -9.428 -24.462  0.00  0.00    -0.252 OA
ATOM      2  N   UNL     1      33.242 -10.430 -23.625  0.00  0.00    -0.259 N 
ATOM      3  N   UNL     1      33.574  -8.062 -23.466  0.00  0.00    -0.261 N 
ATOM      4  C   UNL     1      34.191 -12.692 -23.412  0.00  0.00    +0.064 C 
ATOM      5  C   UNL     1      33.490 -11.679 -24.336  0.00  0.00    +0.104 C 
ATOM      6  C   UNL     1      33.482 -12.797 -22.064  0.00  0.00    -0.019 C 
ATOM      7  C   UNL     1      32.610 -11.774 -21.636  0.00  0.00    -0.010 C 
ATOM      8  C   UNL     1      32.324 -10.555 -22.486  0.00  0.00    +0.121 C 
ATOM      9  C   UNL     1      31.971 -11.881 -20.390  0.00  0.00    -0.028 C 
ATOM     10  C   UNL     1      33.748 -13.868 -21.191  0.00  0.00    -0.005 C 
ATOM     11  C   UNL     1      32.220 -12.967 -19.553  0.00  0.00    -0.026 C 
ATOM     12  C   UNL     1      34.049  -9.314 -23.884  0.00  0.00    +0.308 C 
ATOM     13  C   UNL     1      33.115 -13.955 -19.950  0.00  0.00    -0.005 C 
ATOM     14  C   UNL     1      31.011 -10.823 -19.936  0.00  0.00    +0.030 C 
ATOM     15  C   UNL     1      31.545 -13.097 -18.229  0.00  0.00    +0.031 C 
ATOM     16  C   UNL     1      32.161  -7.705 -23.371  0.00  0.00    +0.117 C 
ATOM     17  C   UNL     1      34.508  -6.949 -23.359  0.00  0.00    +0.117 C 
ENDROOT
BRANCH   4  18
ATOM     18  C   UNL     1      34.359 -14.011 -24.152  0.00  0.00    -0.014 C 
ATOM     19  C   UNL     1      33.872 -14.143 -25.448  0.00  0.00    +0.033 C 
ATOM     20  C   UNL     1      34.998 -15.076 -23.525  0.00  0.00    -0.004 C 
ATOM     21  C   UNL     1      34.027 -15.351 -26.126  0.00  0.00    +0.133 C 
ATOM     22  C   UNL     1      35.154 -16.285 -24.204  0.00  0.00    +0.003 C 
ATOM     23  C   UNL     1      34.668 -16.423 -25.504  0.00  0.00    +0.037 C 
BRANCH  21  24
ATOM     24  O   UNL     1      33.553 -15.486 -27.395  0.00  0.00    -0.506 OA
ATOM     25  H   UNL     1      33.710 -14.813 -28.027  0.00  0.00    +0.292 HD
ENDBRANCH  21  24
ENDBRANCH   4  18
TORSDOF 2
ENDMDL
MODEL 4
REMARK VINA RESULT:      -8.0      3.216      5.587
REMARK  Name = 6857690
REMARK  2 active torsions:
REMARK  status: ('A' for Active; 'I' for Inactive)
REMARK    1  A    between atoms: C_4  and  C_18
REMARK    2  A    between atoms: C_21  and  O_24
REMARK                            x       y       z     vdW  Elec       q    Type
REMARK                         _______ _______ _______ _____ _____    ______ ____
ROOT
ATOM      1  O   UNL     1      31.883  -8.311 -19.500  0.00  0.00    -0.252 OA
ATOM      2  N   UNL     1      31.896  -8.998 -21.697  0.00  0.00    -0.259 N 
ATOM      3  N   UNL     1      31.844 -10.579 -19.897  0.00  0.00    -0.261 N 
ATOM      4  C   UNL     1      32.844  -6.928 -22.634  0.00  0.00    +0.064 C 
ATOM      5  C   UNL     1      31.567  -7.669 -22.200  0.00  0.00    +0.104 C 
ATOM      6  C   UNL     1      33.718  -7.804 -23.528  0.00  0.00    -0.019 C 
ATOM      7  C   UNL     1      33.547  -9.205 -23.539  0.00  0.00    -0.010 C 
ATOM      8  C   UNL     1      32.494  -9.891 -22.697  0.00  0.00    +0.121 C 
ATOM      9  C   UNL     1      34.364  -9.998 -24.361  0.00  0.00    -0.028 C 
ATOM     10  C   UNL     1      34.760  -7.244 -24.288  0.00  0.00    -0.005 C 
ATOM     11  C   UNL     1      35.369  -9.421 -25.134  0.00  0.00    -0.026 C 
ATOM     12  C   UNL     1      31.876  -9.241 -20.317  0.00  0.00    +0.308 C 
ATOM     13  C   UNL     1      35.573  -8.046 -25.091  0.00  0.00    -0.005 C 
ATOM     14  C   UNL     1      34.170 -11.484 -24.415  0.00  0.00    +0.030 C 
ATOM     15  C   UNL     1      36.241 -10.251 -26.016  0.00  0.00    +0.031 C 
ATOM     16  C   UNL     1      31.229 -11.667 -20.653  0.00  0.00    +0.117 C 
ATOM     17  C   UNL     1      32.204 -10.899 -18.522  0.00  0.00    +0.117 C 
ENDROOT
BRANCH   4  18
ATOM     18  C   UNL     1      32.463  -5.582 -23.232  0.00  0.00    -0.014 C 
ATOM     19  C   UNL     1      31.537  -4.774 -22.580  0.00  0.00    +0.033 C 
ATOM     20  C   UNL     1      33.043  -5.170 -24.427  0.00  0.00    -0.004 C 
ATOM     21  C   UNL     1      31.188  -3.540 -23.128  0.00  0.00    +0.133 C 
ATOM     22  C   UNL     1      32.695  -3.935 -24.975  0.00  0.00    +0.003 C 
ATOM     23  C   UNL     1      31.768  -3.120 -24.326  0.00  0.00    +0.037 C 
BRANCH  21  24
ATOM     24  O   UNL     1      30.284  -2.745 -22.495  0.00  0.00    -0.506 OA
ATOM     25  H   UNL     1      29.416  -3.058 -22.335  0.00  0.00    +0.292 HD
ENDBRANCH  21  24
ENDBRANCH   4  18
TORSDOF 2
ENDMDL
MODEL 5
REMARK VINA RESULT:      -7.6      0.936      1.358
REMARK  Name = 6857690
REMARK  2 active torsions:
REMARK  status: ('A' for Active; 'I' for Inactive)
REMARK    1  A    between atoms: C_4  and  C_18
REMARK    2  A    between atoms: C_21  and  O_24
REMARK                            x       y       z     vdW  Elec       q    Type
REMARK                         _______ _______ _______ _____ _____    ______ ____
ROOT
ATOM      1  O   UNL     1      33.282 -13.146 -26.332  0.00  0.00    -0.252 OA
ATOM      2  N   UNL     1      34.072 -12.842 -24.191  0.00  0.00    -0.259 N 
ATOM      3  N   UNL     1      34.154 -14.987 -25.256  0.00  0.00    -0.261 N 
ATOM      4  C   UNL     1      32.790 -10.797 -23.707  0.00  0.00    +0.064 C 
ATOM      5  C   UNL     1      34.075 -11.389 -24.312  0.00  0.00    +0.104 C 
ATOM      6  C   UNL     1      32.513 -11.371 -22.320  0.00  0.00    -0.019 C 
ATOM      7  C   UNL     1      33.123 -12.577 -21.912  0.00  0.00    -0.010 C 
ATOM      8  C   UNL     1      34.080 -13.333 -22.808  0.00  0.00    +0.121 C 
ATOM      9  C   UNL     1      32.853 -13.095 -20.636  0.00  0.00    -0.028 C 
ATOM     10  C   UNL     1      31.585 -10.758 -21.458  0.00  0.00    -0.005 C 
ATOM     11  C   UNL     1      31.956 -12.455 -19.783  0.00  0.00    -0.026 C 
ATOM     12  C   UNL     1      33.804 -13.630 -25.319  0.00  0.00    +0.308 C 
ATOM     13  C   UNL     1      31.316 -11.292 -20.197  0.00  0.00    -0.005 C 
ATOM     14  C   UNL     1      33.521 -14.354 -20.172  0.00  0.00    +0.030 C 
ATOM     15  C   UNL     1      31.663 -12.993 -18.421  0.00  0.00    +0.031 C 
ATOM     16  C   UNL     1      35.263 -15.519 -24.468  0.00  0.00    +0.117 C 
ATOM     17  C   UNL     1      33.567 -15.915 -26.214  0.00  0.00    +0.117 C 
ENDROOT
BRANCH   4  18
ATOM     18  C   UNL     1      32.860  -9.278 -23.769  0.00  0.00    -0.014 C 
ATOM     19  C   UNL     1      34.095  -8.641 -23.709  0.00  0.00    +0.033 C 
ATOM     20  C   UNL     1      31.688  -8.538 -23.887  0.00  0.00    -0.004 C 
ATOM     21  C   UNL     1      34.160  -7.250 -23.767  0.00  0.00    +0.133 C 
ATOM     22  C   UNL     1      31.753  -7.145 -23.946  0.00  0.00    +0.003 C 
ATOM     23  C   UNL     1      32.988  -6.501 -23.885  0.00  0.00    +0.037 C 
BRANCH  21  24
ATOM     24  O   UNL     1      35.366  -6.621 -23.708  0.00  0.00    -0.506 OA
ATOM     25  H   UNL     1      36.079  -7.018 -23.248  0.00  0.00    +0.292 HD
ENDBRANCH  21  24
ENDBRANCH   4  18
TORSDOF 2
ENDMDL
MODEL 6
REMARK VINA RESULT:      -7.4     11.798     15.542
REMARK  Name = 6857690
REMARK  2 active torsions:
REMARK  status: ('A' for Active; 'I' for Inactive)
REMARK    1  A    between atoms: C_4  and  C_18
REMARK    2  A    between atoms: C_21  and  O_24
REMARK                            x       y       z     vdW  Elec       q    Type
REMARK                         _______ _______ _______ _____ _____    ______ ____
ROOT
ATOM      1  O   UNL     1      37.698 -21.456 -17.204  0.00  0.00    -0.252 OA
ATOM      2  N   UNL     1      35.962 -22.967 -17.233  0.00  0.00    -0.259 N 
ATOM      3  N   UNL     1      36.328 -21.456 -19.057  0.00  0.00    -0.261 N 
ATOM      4  C   UNL     1      35.855 -23.318 -14.799  0.00  0.00    +0.064 C 
ATOM      5  C   UNL     1      36.510 -23.741 -16.125  0.00  0.00    +0.104 C 
ATOM      6  C   UNL     1      34.333 -23.274 -14.920  0.00  0.00    -0.019 C 
ATOM      7  C   UNL     1      33.721 -23.199 -16.190  0.00  0.00    -0.010 C 
ATOM      8  C   UNL     1      34.529 -23.181 -17.469  0.00  0.00    +0.121 C 
ATOM      9  C   UNL     1      32.321 -23.152 -16.284  0.00  0.00    -0.028 C 
ATOM     10  C   UNL     1      33.520 -23.221 -13.774  0.00  0.00    -0.005 C 
ATOM     11  C   UNL     1      31.530 -23.135 -15.137  0.00  0.00    -0.026 C 
ATOM     12  C   UNL     1      36.720 -21.931 -17.796  0.00  0.00    +0.308 C 
ATOM     13  C   UNL     1      32.130 -23.161 -13.883  0.00  0.00    -0.005 C 
ATOM     14  C   UNL     1      31.653 -23.112 -17.626  0.00  0.00    +0.030 C 
ATOM     15  C   UNL     1      30.041 -23.090 -15.223  0.00  0.00    +0.031 C 
ATOM     16  C   UNL     1      35.668 -22.267 -20.076  0.00  0.00    +0.117 C 
ATOM     17  C   UNL     1      36.819 -20.161 -19.509  0.00  0.00    +0.117 C 
ENDROOT
BRANCH   4  18
ATOM     18  C   UNL     1      36.382 -24.200 -13.676  0.00  0.00    -0.014 C 
ATOM     19  C   UNL     1      36.169 -23.832 -12.352  0.00  0.00    +0.033 C 
ATOM     20  C   UNL     1      37.073 -25.367 -13.983  0.00  0.00    -0.004 C 
ATOM     21  C   UNL     1      36.651 -24.640 -11.323  0.00  0.00    +0.133 C 
ATOM     22  C   UNL     1      37.556 -26.176 -12.954  0.00  0.00    +0.003 C 
ATOM     23  C   UNL     1      37.345 -25.813 -11.624  0.00  0.00    +0.037 C 
BRANCH  21  24
ATOM     24  O   UNL     1      36.446 -24.286 -10.025  0.00  0.00    -0.506 OA
ATOM     25  H   UNL     1      35.715 -24.635  -9.554  0.00  0.00    +0.292 HD
ENDBRANCH  21  24
ENDBRANCH   4  18
TORSDOF 2
ENDMDL
MODEL 7
REMARK VINA RESULT:      -7.4     11.129     14.441
REMARK  Name = 6857690
REMARK  2 active torsions:
REMARK  status: ('A' for Active; 'I' for Inactive)
REMARK    1  A    between atoms: C_4  and  C_18
REMARK    2  A    between atoms: C_21  and  O_24
REMARK                            x       y       z     vdW  Elec       q    Type
REMARK                         _______ _______ _______ _____ _____    ______ ____
ROOT
ATOM      1  O   UNL     1      31.672 -22.321 -15.218  0.00  0.00    -0.252 OA
ATOM      2  N   UNL     1      33.224 -23.913 -15.815  0.00  0.00    -0.259 N 
ATOM      3  N   UNL     1      31.796 -24.216 -13.915  0.00  0.00    -0.261 N 
ATOM      4  C   UNL     1      34.677 -22.413 -17.119  0.00  0.00    +0.064 C 
ATOM      5  C   UNL     1      33.438 -23.327 -17.133  0.00  0.00    +0.104 C 
ATOM      6  C   UNL     1      35.873 -23.108 -16.473  0.00  0.00    -0.019 C 
ATOM      7  C   UNL     1      35.680 -24.229 -15.638  0.00  0.00    -0.010 C 
ATOM      8  C   UNL     1      34.304 -24.798 -15.365  0.00  0.00    +0.121 C 
ATOM      9  C   UNL     1      36.789 -24.853 -15.045  0.00  0.00    -0.028 C 
ATOM     10  C   UNL     1      37.174 -22.597 -16.628  0.00  0.00    -0.005 C 
ATOM     11  C   UNL     1      38.075 -24.353 -15.239  0.00  0.00    -0.026 C 
ATOM     12  C   UNL     1      32.200 -23.418 -14.995  0.00  0.00    +0.308 C 
ATOM     13  C   UNL     1      38.266 -23.220 -16.023  0.00  0.00    -0.005 C 
ATOM     14  C   UNL     1      36.606 -26.068 -14.186  0.00  0.00    +0.030 C 
ATOM     15  C   UNL     1      39.264 -25.009 -14.618  0.00  0.00    +0.031 C 
ATOM     16  C   UNL     1      31.852 -25.675 -13.899  0.00  0.00    +0.117 C 
ATOM     17  C   UNL     1      31.033 -23.608 -12.832  0.00  0.00    +0.117 C 
ENDROOT
BRANCH   4  18
ATOM     18  C   UNL     1      34.925 -21.885 -18.525  0.00  0.00    -0.014 C 
ATOM     19  C   UNL     1      33.853 -21.463 -19.303  0.00  0.00    +0.033 C 
ATOM     20  C   UNL     1      36.224 -21.829 -19.020  0.00  0.00    -0.004 C 
ATOM     21  C   UNL     1      34.081 -20.978 -20.591  0.00  0.00    +0.133 C 
ATOM     22  C   UNL     1      36.453 -21.344 -20.308  0.00  0.00    +0.003 C 
ATOM     23  C   UNL     1      35.381 -20.918 -21.093  0.00  0.00    +0.037 C 
BRANCH  21  24
ATOM     24  O   UNL     1      33.036 -20.563 -21.357  0.00  0.00    -0.506 OA
ATOM     25  H   UNL     1      33.184 -20.277 -22.236  0.00  0.00    +0.292 HD
ENDBRANCH  21  24
ENDBRANCH   4  18
TORSDOF 2
ENDMDL
MODEL 8
REMARK VINA RESULT:      -7.2      2.950      5.080
REMARK  Name = 6857690
REMARK  2 active torsions:
REMARK  status: ('A' for Active; 'I' for Inactive)
REMARK    1  A    between atoms: C_4  and  C_18
REMARK    2  A    between atoms: C_21  and  O_24
REMARK                            x       y       z     vdW  Elec       q    Type
REMARK                         _______ _______ _______ _____ _____    ______ ____
ROOT
ATOM      1  O   UNL     1      32.620  -8.282 -19.499  0.00  0.00    -0.252 OA
ATOM      2  N   UNL     1      31.986  -9.318 -21.454  0.00  0.00    -0.259 N 
ATOM      3  N   UNL     1      31.621 -10.349 -19.322  0.00  0.00    -0.261 N 
ATOM      4  C   UNL     1      33.500  -8.067 -22.938  0.00  0.00    +0.064 C 
ATOM      5  C   UNL     1      32.129  -8.098 -22.242  0.00  0.00    +0.104 C 
ATOM      6  C   UNL     1      33.791  -9.384 -23.653  0.00  0.00    -0.019 C 
ATOM      7  C   UNL     1      33.081 -10.554 -23.307  0.00  0.00    -0.010 C 
ATOM      8  C   UNL     1      32.003 -10.554 -22.246  0.00  0.00    +0.121 C 
ATOM      9  C   UNL     1      33.366 -11.760 -23.968  0.00  0.00    -0.028 C 
ATOM     10  C   UNL     1      34.824  -9.476 -24.603  0.00  0.00    -0.005 C 
ATOM     11  C   UNL     1      34.370 -11.824 -24.932  0.00  0.00    -0.026 C 
ATOM     12  C   UNL     1      32.107  -9.259 -20.059  0.00  0.00    +0.308 C 
ATOM     13  C   UNL     1      35.104 -10.684 -25.243  0.00  0.00    -0.005 C 
ATOM     14  C   UNL     1      32.595 -13.003 -23.642  0.00  0.00    +0.030 C 
ATOM     15  C   UNL     1      34.679 -13.098 -25.646  0.00  0.00    +0.031 C 
ATOM     16  C   UNL     1      30.507 -11.197 -19.740  0.00  0.00    +0.117 C 
ATOM     17  C   UNL     1      32.053 -10.521 -17.942  0.00  0.00    +0.117 C 
ENDROOT
BRANCH   4  18
ATOM     18  C   UNL     1      33.586  -6.828 -23.819  0.00  0.00    -0.014 C 
ATOM     19  C   UNL     1      32.545  -5.907 -23.818  0.00  0.00    +0.033 C 
ATOM     20  C   UNL     1      34.707  -6.627 -24.618  0.00  0.00    -0.004 C 
ATOM     21  C   UNL     1      32.624  -4.772 -24.624  0.00  0.00    +0.133 C 
ATOM     22  C   UNL     1      34.787  -5.491 -25.424  0.00  0.00    +0.003 C 
ATOM     23  C   UNL     1      33.746  -4.564 -25.427  0.00  0.00    +0.037 C 
BRANCH  21  24
ATOM     24  O   UNL     1      31.607  -3.867 -24.627  0.00  0.00    -0.506 OA
ATOM     25  H   UNL     1      31.249  -3.567 -25.439  0.00  0.00    +0.292 HD
ENDBRANCH  21  24
ENDBRANCH   4  18
TORSDOF 2
ENDMDL
MODEL 9
REMARK VINA RESULT:      -6.5     10.526     13.652
REMARK  Name = 6857690
REMARK  2 active torsions:
REMARK  status: ('A' for Active; 'I' for Inactive)
REMARK    1  A    between atoms: C_4  and  C_18
REMARK    2  A    between atoms: C_21  and  O_24
REMARK                            x       y       z     vdW  Elec       q    Type
REMARK                         _______ _______ _______ _____ _____    ______ ____
ROOT
ATOM      1  O   UNL     1      30.870 -22.343 -17.262  0.00  0.00    -0.252 OA
ATOM      2  N   UNL     1      32.684 -23.758 -17.178  0.00  0.00    -0.259 N 
ATOM      3  N   UNL     1      30.697 -24.202 -15.914  0.00  0.00    -0.261 N 
ATOM      4  C   UNL     1      34.356 -22.117 -17.936  0.00  0.00    +0.064 C 
ATOM      5  C   UNL     1      33.306 -23.161 -18.355  0.00  0.00    +0.104 C 
ATOM      6  C   UNL     1      35.295 -22.670 -16.867  0.00  0.00    -0.019 C 
ATOM      7  C   UNL     1      34.923 -23.800 -16.107  0.00  0.00    -0.010 C 
ATOM      8  C   UNL     1      33.607 -24.515 -16.325  0.00  0.00    +0.121 C 
ATOM      9  C   UNL     1      35.795 -24.293 -15.123  0.00  0.00    -0.028 C 
ATOM     10  C   UNL     1      36.504 -22.020 -16.564  0.00  0.00    -0.005 C 
ATOM     11  C   UNL     1      37.005 -23.655 -14.860  0.00  0.00    -0.026 C 
ATOM     12  C   UNL     1      31.387 -23.373 -16.811  0.00  0.00    +0.308 C 
ATOM     13  C   UNL     1      37.355 -22.513 -15.574  0.00  0.00    -0.005 C 
ATOM     14  C   UNL     1      35.433 -25.514 -14.333  0.00  0.00    +0.030 C 
ATOM     15  C   UNL     1      37.944 -24.170 -13.820  0.00  0.00    +0.031 C 
ATOM     16  C   UNL     1      30.890 -25.646 -15.810  0.00  0.00    +0.117 C 
ATOM     17  C   UNL     1      29.535 -23.674 -15.212  0.00  0.00    +0.117 C 
ENDROOT
BRANCH   4  18
ATOM     18  C   UNL     1      35.047 -21.575 -19.179  0.00  0.00    -0.014 C 
ATOM     19  C   UNL     1      34.320 -20.838 -20.108  0.00  0.00    +0.033 C 
ATOM     20  C   UNL     1      36.402 -21.822 -19.376  0.00  0.00    -0.004 C 
ATOM     21  C   UNL     1      34.954 -20.341 -21.246  0.00  0.00    +0.133 C 
ATOM     22  C   UNL     1      37.037 -21.324 -20.514  0.00  0.00    +0.003 C 
ATOM     23  C   UNL     1      36.313 -20.584 -21.449  0.00  0.00    +0.037 C 
BRANCH  21  24
ATOM     24  O   UNL     1      34.248 -19.619 -22.158  0.00  0.00    -0.506 OA
ATOM     25  H   UNL     1      34.653 -18.901 -22.601  0.00  0.00    +0.292 HD
ENDBRANCH  21  24
ENDBRANCH   4  18
TORSDOF 2
ENDMDL
