MODEL 1
REMARK VINA RESULT:     -11.5      0.000      0.000
REMARK  Name = 54576693
REMARK  3 active torsions:
REMARK  status: ('A' for Active; 'I' for Inactive)
REMARK    1  A    between atoms: N_2  and  C_19
REMARK    2  A    between atoms: N_4  and  C_14
REMARK    3  A    between atoms: C_19  and  C_24
REMARK                            x       y       z     vdW  Elec       q    Type
REMARK                         _______ _______ _______ _____ _____    ______ ____
ROOT
ATOM      1  O   UNL     1      32.414 -22.404 -18.409  0.00  0.00    -0.252 OA
ATOM      2  N   UNL     1      35.520 -20.029 -21.504  0.00  0.00    +0.392 N 
ATOM      3  N   UNL     1      34.273 -21.864 -19.676  0.00  0.00    -0.268 N 
ATOM      4  N   UNL     1      34.475 -23.276 -17.794  0.00  0.00    -0.266 N 
ATOM      5  C   UNL     1      34.179 -19.753 -20.974  0.00  0.00    -0.055 C 
ATOM      6  C   UNL     1      36.327 -20.726 -20.494  0.00  0.00    -0.055 C 
ATOM      7  C   UNL     1      35.677 -22.047 -20.071  0.00  0.00    +0.072 C 
ATOM      8  C   UNL     1      33.476 -21.055 -20.600  0.00  0.00    +0.072 C 
ATOM      9  C   UNL     1      33.629 -22.507 -18.595  0.00  0.00    +0.308 C 
ATOM     10  H   UNL     1      35.432 -20.631 -22.323  0.00  0.00    -0.079 HD
ATOM     11  H   UNL     1      35.255 -23.677 -18.243  0.00  0.00    +0.156 HD
ENDROOT
BRANCH   4  14
ATOM     12 CL   UNL     1      36.988 -23.004 -16.056  0.00  0.00    -0.081 Cl
ATOM     13  N   UNL     1      32.875 -24.185 -14.596  0.00  0.00    -0.241 NA
ATOM     14  C   UNL     1      34.339 -23.543 -16.410  0.00  0.00    +0.082 C 
ATOM     15  C   UNL     1      35.408 -23.453 -15.524  0.00  0.00    +0.074 C 
ATOM     16  C   UNL     1      33.104 -23.909 -15.899  0.00  0.00    +0.114 C 
ATOM     17  C   UNL     1      35.212 -23.729 -14.175  0.00  0.00    +0.033 C 
ATOM     18  C   UNL     1      33.937 -24.087 -13.766  0.00  0.00    +0.100 C 
ENDBRANCH   4  14
BRANCH   2  19
ATOM     19  C   UNL     1      36.175 -18.789 -21.917  0.00  0.00    -0.050 C 
BRANCH  19  24
ATOM     20  F   UNL     1      32.732 -14.489 -25.847  0.00  0.00    -0.125 F 
ATOM     21  F   UNL     1      34.675 -14.403 -26.851  0.00  0.00    -0.125 F 
ATOM     22  O   UNL     1      34.600 -14.981 -24.660  0.00  0.00    -0.395 OA
ATOM     23  O   UNL     1      33.764 -16.430 -26.401  0.00  0.00    -0.395 OA
ATOM     24  C   UNL     1      35.521 -18.189 -23.134  0.00  0.00    -0.040 C 
ATOM     25  C   UNL     1      35.406 -16.802 -23.246  0.00  0.00    +0.034 C 
ATOM     26  C   UNL     1      35.035 -19.033 -24.148  0.00  0.00    -0.003 C 
ATOM     27  C   UNL     1      34.801 -16.299 -24.379  0.00  0.00    +0.181 C 
ATOM     28  C   UNL     1      34.323 -17.126 -25.373  0.00  0.00    +0.182 C 
ATOM     29  C   UNL     1      34.426 -18.499 -25.287  0.00  0.00    +0.040 C 
ATOM     30  C   UNL     1      33.946 -15.086 -25.934  0.00  0.00    +0.589 C 
ENDBRANCH  19  24
ENDBRANCH   2  19
TORSDOF 3
ENDMDL
MODEL 2
REMARK VINA RESULT:     -11.2      5.126      9.549
REMARK  Name = 54576693
REMARK  3 active torsions:
REMARK  status: ('A' for Active; 'I' for Inactive)
REMARK    1  A    between atoms: N_2  and  C_19
REMARK    2  A    between atoms: N_4  and  C_14
REMARK    3  A    between atoms: C_19  and  C_24
REMARK                            x       y       z     vdW  Elec       q    Type
REMARK                         _______ _______ _______ _____ _____    ______ ____
ROOT
ATOM      1  O   UNL     1      37.496 -21.465 -17.809  0.00  0.00    -0.252 OA
ATOM      2  N   UNL     1      34.010 -23.880 -15.187  0.00  0.00    +0.392 N 
ATOM      3  N   UNL     1      35.679 -22.786 -17.256  0.00  0.00    -0.268 N 
ATOM      4  N   UNL     1      35.846 -21.818 -19.402  0.00  0.00    -0.266 N 
ATOM      5  C   UNL     1      35.112 -22.971 -14.848  0.00  0.00    -0.055 C 
ATOM      6  C   UNL     1      33.428 -23.506 -16.483  0.00  0.00    -0.055 C 
ATOM      7  C   UNL     1      34.475 -23.553 -17.600  0.00  0.00    +0.072 C 
ATOM      8  C   UNL     1      36.204 -23.039 -15.912  0.00  0.00    +0.072 C 
ATOM      9  C   UNL     1      36.421 -21.970 -18.139  0.00  0.00    +0.308 C 
ATOM     10  H   UNL     1      34.377 -24.830 -15.256  0.00  0.00    -0.079 HD
ATOM     11  H   UNL     1      35.305 -22.573 -19.729  0.00  0.00    +0.156 HD
ENDROOT
BRANCH   4  14
ATOM     12 CL   UNL     1      33.265 -20.791 -20.703  0.00  0.00    -0.081 Cl
ATOM     13  N   UNL     1      37.399 -19.058 -21.296  0.00  0.00    -0.241 NA
ATOM     14  C   UNL     1      35.955 -20.701 -20.266  0.00  0.00    +0.082 C 
ATOM     15  C   UNL     1      34.853 -20.148 -20.912  0.00  0.00    +0.074 C 
ATOM     16  C   UNL     1      37.194 -20.123 -20.490  0.00  0.00    +0.114 C 
ATOM     17  C   UNL     1      35.025 -19.051 -21.750  0.00  0.00    +0.033 C 
ATOM     18  C   UNL     1      36.306 -18.548 -21.906  0.00  0.00    +0.100 C 
ENDBRANCH   4  14
BRANCH   2  19
ATOM     19  C   UNL     1      32.988 -23.861 -14.141  0.00  0.00    -0.050 C 
BRANCH  19  24
ATOM     20  F   UNL     1      26.704 -22.216 -16.039  0.00  0.00    -0.125 F 
ATOM     21  F   UNL     1      27.550 -22.693 -18.000  0.00  0.00    -0.125 F 
ATOM     22  O   UNL     1      28.945 -22.036 -16.337  0.00  0.00    -0.395 OA
ATOM     23  O   UNL     1      27.819 -24.172 -16.303  0.00  0.00    -0.395 OA
ATOM     24  C   UNL     1      31.600 -23.980 -14.712  0.00  0.00    -0.040 C 
ATOM     25  C   UNL     1      30.976 -22.856 -15.258  0.00  0.00    +0.034 C 
ATOM     26  C   UNL     1      30.944 -25.224 -14.693  0.00  0.00    -0.003 C 
ATOM     27  C   UNL     1      29.704 -23.014 -15.770  0.00  0.00    +0.181 C 
ATOM     28  C   UNL     1      29.062 -24.233 -15.750  0.00  0.00    +0.182 C 
ATOM     29  C   UNL     1      29.657 -25.358 -15.218  0.00  0.00    +0.040 C 
ATOM     30  C   UNL     1      27.764 -22.785 -16.664  0.00  0.00    +0.589 C 
ENDBRANCH  19  24
ENDBRANCH   2  19
TORSDOF 3
ENDMDL
MODEL 3
REMARK VINA RESULT:     -10.9      5.739     10.710
REMARK  Name = 54576693
REMARK  3 active torsions:
REMARK  status: ('A' for Active; 'I' for Inactive)
REMARK    1  A    between atoms: N_2  and  C_19
REMARK    2  A    between atoms: N_4  and  C_14
REMARK    3  A    between atoms: C_19  and  C_24
REMARK                            x       y       z     vdW  Elec       q    Type
REMARK                         _______ _______ _______ _____ _____    ______ ____
ROOT
ATOM      1  O   UNL     1      33.524 -12.848 -25.928  0.00  0.00    -0.252 OA
ATOM      2  N   UNL     1      35.250 -16.963 -23.701  0.00  0.00    +0.392 N 
ATOM      3  N   UNL     1      34.027 -14.437 -24.322  0.00  0.00    -0.268 N 
ATOM      4  N   UNL     1      33.616 -12.196 -23.702  0.00  0.00    -0.266 N 
ATOM      5  C   UNL     1      35.311 -16.424 -25.066  0.00  0.00    -0.055 C 
ATOM      6  C   UNL     1      35.286 -15.867 -22.725  0.00  0.00    -0.055 C 
ATOM      7  C   UNL     1      34.119 -14.896 -22.930  0.00  0.00    +0.072 C 
ATOM      8  C   UNL     1      34.125 -15.498 -25.326  0.00  0.00    +0.072 C 
ATOM      9  C   UNL     1      33.715 -13.124 -24.741  0.00  0.00    +0.308 C 
ATOM     10  H   UNL     1      34.373 -17.472 -23.589  0.00  0.00    -0.079 HD
ATOM     11  H   UNL     1      33.315 -12.546 -22.832  0.00  0.00    +0.156 HD
ENDROOT
BRANCH   4  14
ATOM     12 CL   UNL     1      31.529 -10.284 -22.520  0.00  0.00    -0.081 Cl
ATOM     13  N   UNL     1      35.442  -9.076 -24.438  0.00  0.00    -0.241 NA
ATOM     14  C   UNL     1      33.900 -10.810 -23.760  0.00  0.00    +0.082 C 
ATOM     15  C   UNL     1      33.029  -9.849 -23.257  0.00  0.00    +0.074 C 
ATOM     16  C   UNL     1      35.082 -10.374 -24.335  0.00  0.00    +0.114 C 
ATOM     17  C   UNL     1      33.363  -8.501 -23.344  0.00  0.00    +0.033 C 
ATOM     18  C   UNL     1      34.570  -8.170 -23.938  0.00  0.00    +0.100 C 
ENDBRANCH   4  14
BRANCH   2  19
ATOM     19  C   UNL     1      36.352 -17.895 -23.468  0.00  0.00    -0.050 C 
BRANCH  19  24
ATOM     20  F   UNL     1      32.861 -21.357 -18.819  0.00  0.00    -0.125 F 
ATOM     21  F   UNL     1      33.439 -23.013 -20.129  0.00  0.00    -0.125 F 
ATOM     22  O   UNL     1      33.313 -20.922 -20.998  0.00  0.00    -0.395 OA
ATOM     23  O   UNL     1      35.035 -21.561 -19.429  0.00  0.00    -0.395 OA
ATOM     24  C   UNL     1      36.033 -18.876 -22.371  0.00  0.00    -0.040 C 
ATOM     25  C   UNL     1      34.746 -19.409 -22.271  0.00  0.00    +0.034 C 
ATOM     26  C   UNL     1      37.036 -19.249 -21.458  0.00  0.00    -0.003 C 
ATOM     27  C   UNL     1      34.501 -20.305 -21.251  0.00  0.00    +0.181 C 
ATOM     28  C   UNL     1      35.483 -20.670 -20.355  0.00  0.00    +0.182 C 
ATOM     29  C   UNL     1      36.762 -20.158 -20.434  0.00  0.00    +0.040 C 
ATOM     30  C   UNL     1      33.671 -21.706 -19.849  0.00  0.00    +0.589 C 
ENDBRANCH  19  24
ENDBRANCH   2  19
TORSDOF 3
ENDMDL
MODEL 4
REMARK VINA RESULT:     -10.6      5.962     11.010
REMARK  Name = 54576693
REMARK  3 active torsions:
REMARK  status: ('A' for Active; 'I' for Inactive)
REMARK    1  A    between atoms: N_2  and  C_19
REMARK    2  A    between atoms: N_4  and  C_14
REMARK    3  A    between atoms: C_19  and  C_24
REMARK                            x       y       z     vdW  Elec       q    Type
REMARK                         _______ _______ _______ _____ _____    ______ ____
ROOT
ATOM      1  O   UNL     1      37.444 -19.623 -20.190  0.00  0.00    -0.252 OA
ATOM      2  N   UNL     1      34.770 -23.118 -17.844  0.00  0.00    +0.392 N 
ATOM      3  N   UNL     1      35.961 -21.349 -19.772  0.00  0.00    -0.268 N 
ATOM      4  N   UNL     1      35.694 -19.975 -21.673  0.00  0.00    -0.266 N 
ATOM      5  C   UNL     1      35.735 -22.096 -17.418  0.00  0.00    -0.055 C 
ATOM      6  C   UNL     1      33.979 -22.622 -18.977  0.00  0.00    -0.055 C 
ATOM      7  C   UNL     1      34.872 -22.253 -20.165  0.00  0.00    +0.072 C 
ATOM      8  C   UNL     1      36.683 -21.749 -18.563  0.00  0.00    +0.072 C 
ATOM      9  C   UNL     1      36.438 -20.252 -20.525  0.00  0.00    +0.308 C 
ATOM     10  H   UNL     1      35.283 -23.948 -18.143  0.00  0.00    -0.079 HD
ATOM     11  H   UNL     1      35.253 -20.743 -22.103  0.00  0.00    +0.156 HD
ENDROOT
BRANCH   4  14
ATOM     12 CL   UNL     1      35.215 -19.947 -24.703  0.00  0.00    -0.081 Cl
ATOM     13  N   UNL     1      35.371 -16.315 -22.014  0.00  0.00    -0.241 NA
ATOM     14  C   UNL     1      35.504 -18.713 -22.289  0.00  0.00    +0.082 C 
ATOM     15  C   UNL     1      35.279 -18.577 -23.655  0.00  0.00    +0.074 C 
ATOM     16  C   UNL     1      35.540 -17.562 -21.520  0.00  0.00    +0.114 C 
ATOM     17  C   UNL     1      35.101 -17.310 -24.201  0.00  0.00    +0.033 C 
ATOM     18  C   UNL     1      35.155 -16.222 -23.345  0.00  0.00    +0.100 C 
ENDBRANCH   4  14
BRANCH   2  19
ATOM     19  C   UNL     1      33.897 -23.495 -16.733  0.00  0.00    -0.050 C 
BRANCH  19  24
ATOM     20  F   UNL     1      36.832 -23.863 -10.647  0.00  0.00    -0.125 F 
ATOM     21  F   UNL     1      35.408 -25.514 -10.451  0.00  0.00    -0.125 F 
ATOM     22  O   UNL     1      34.948 -23.838 -11.909  0.00  0.00    -0.395 OA
ATOM     23  O   UNL     1      36.731 -25.421 -12.290  0.00  0.00    -0.395 OA
ATOM     24  C   UNL     1      34.679 -24.032 -15.564  0.00  0.00    -0.040 C 
ATOM     25  C   UNL     1      34.365 -23.611 -14.269  0.00  0.00    +0.034 C 
ATOM     26  C   UNL     1      35.717 -24.954 -15.786  0.00  0.00    -0.003 C 
ATOM     27  C   UNL     1      35.108 -24.131 -13.229  0.00  0.00    +0.181 C 
ATOM     28  C   UNL     1      36.126 -25.035 -13.447  0.00  0.00    +0.182 C 
ATOM     29  C   UNL     1      36.455 -25.466 -14.716  0.00  0.00    +0.040 C 
ATOM     30  C   UNL     1      35.978 -24.659 -11.337  0.00  0.00    +0.589 C 
ENDBRANCH  19  24
ENDBRANCH   2  19
TORSDOF 3
ENDMDL
MODEL 5
REMARK VINA RESULT:     -10.5      7.768     12.321
REMARK  Name = 54576693
REMARK  3 active torsions:
REMARK  status: ('A' for Active; 'I' for Inactive)
REMARK    1  A    between atoms: N_2  and  C_19
REMARK    2  A    between atoms: N_4  and  C_14
REMARK    3  A    between atoms: C_19  and  C_24
REMARK                            x       y       z     vdW  Elec       q    Type
REMARK                         _______ _______ _______ _____ _____    ______ ____
ROOT
ATOM      1  O   UNL     1      31.878  -9.381 -21.650  0.00  0.00    -0.252 OA
ATOM      2  N   UNL     1      33.829 -13.025 -24.440  0.00  0.00    +0.392 N 
ATOM      3  N   UNL     1      33.278 -10.561 -23.065  0.00  0.00    -0.268 N 
ATOM      4  N   UNL     1      33.250  -8.201 -23.102  0.00  0.00    -0.266 N 
ATOM      5  C   UNL     1      32.613 -12.884 -23.628  0.00  0.00    -0.055 C 
ATOM      6  C   UNL     1      34.170 -11.740 -25.064  0.00  0.00    -0.055 C 
ATOM      7  C   UNL     1      34.397 -10.650 -24.012  0.00  0.00    +0.072 C 
ATOM      8  C   UNL     1      32.825 -11.846 -22.528  0.00  0.00    +0.072 C 
ATOM      9  C   UNL     1      32.728  -9.368 -22.543  0.00  0.00    +0.308 C 
ATOM     10  H   UNL     1      34.598 -13.307 -23.832  0.00  0.00    -0.079 HD
ATOM     11  H   UNL     1      34.183  -8.246 -23.415  0.00  0.00    +0.156 HD
ENDROOT
BRANCH   4  14
ATOM     12 CL   UNL     1      34.575  -6.141 -24.949  0.00  0.00    -0.081 Cl
ATOM     13  N   UNL     1      30.691  -5.573 -22.707  0.00  0.00    -0.241 NA
ATOM     14  C   UNL     1      32.589  -6.960 -23.271  0.00  0.00    +0.082 C 
ATOM     15  C   UNL     1      33.095  -5.949 -24.083  0.00  0.00    +0.074 C 
ATOM     16  C   UNL     1      31.394  -6.723 -22.611  0.00  0.00    +0.114 C 
ATOM     17  C   UNL     1      32.399  -4.751 -24.207  0.00  0.00    +0.033 C 
ATOM     18  C   UNL     1      31.213  -4.614 -23.504  0.00  0.00    +0.100 C 
ENDBRANCH   4  14
BRANCH   2  19
ATOM     19  C   UNL     1      33.649 -14.059 -25.458  0.00  0.00    -0.050 C 
BRANCH  19  24
ATOM     20  F   UNL     1      37.596 -18.635 -22.414  0.00  0.00    -0.125 F 
ATOM     21  F   UNL     1      35.702 -19.080 -21.410  0.00  0.00    -0.125 F 
ATOM     22  O   UNL     1      36.024 -17.007 -22.270  0.00  0.00    -0.395 OA
ATOM     23  O   UNL     1      35.737 -18.951 -23.673  0.00  0.00    -0.395 OA
ATOM     24  C   UNL     1      34.198 -15.387 -25.010  0.00  0.00    -0.040 C 
ATOM     25  C   UNL     1      34.866 -15.484 -23.787  0.00  0.00    +0.034 C 
ATOM     26  C   UNL     1      34.030 -16.519 -25.827  0.00  0.00    -0.003 C 
ATOM     27  C   UNL     1      35.350 -16.723 -23.419  0.00  0.00    +0.181 C 
ATOM     28  C   UNL     1      35.187 -17.832 -24.220  0.00  0.00    +0.182 C 
ATOM     29  C   UNL     1      34.530 -17.762 -25.431  0.00  0.00    +0.040 C 
ATOM     30  C   UNL     1      36.259 -18.412 -22.451  0.00  0.00    +0.589 C 
ENDBRANCH  19  24
ENDBRANCH   2  19
TORSDOF 3
ENDMDL
MODEL 6
REMARK VINA RESULT:     -10.4      4.605      7.022
REMARK  Name = 54576693
REMARK  3 active torsions:
REMARK  status: ('A' for Active; 'I' for Inactive)
REMARK    1  A    between atoms: N_2  and  C_19
REMARK    2  A    between atoms: N_4  and  C_14
REMARK    3  A    between atoms: C_19  and  C_24
REMARK                            x       y       z     vdW  Elec       q    Type
REMARK                         _______ _______ _______ _____ _____    ______ ____
ROOT
ATOM      1  O   UNL     1      35.777 -18.893 -23.780  0.00  0.00    -0.252 OA
ATOM      2  N   UNL     1      34.251 -14.159 -24.133  0.00  0.00    +0.392 N 
ATOM      3  N   UNL     1      35.246 -16.706 -23.245  0.00  0.00    -0.268 N 
ATOM      4  N   UNL     1      35.303 -18.368 -21.569  0.00  0.00    -0.266 N 
ATOM      5  C   UNL     1      34.318 -15.295 -25.061  0.00  0.00    -0.055 C 
ATOM      6  C   UNL     1      33.953 -14.634 -22.776  0.00  0.00    -0.055 C 
ATOM      7  C   UNL     1      35.015 -15.620 -22.282  0.00  0.00    +0.072 C 
ATOM      8  C   UNL     1      35.412 -16.269 -24.633  0.00  0.00    +0.072 C 
ATOM      9  C   UNL     1      35.458 -18.065 -22.923  0.00  0.00    +0.308 C 
ATOM     10  H   UNL     1      35.157 -13.690 -24.123  0.00  0.00    -0.079 HD
ATOM     11  H   UNL     1      35.519 -17.647 -20.934  0.00  0.00    +0.156 HD
ENDROOT
BRANCH   4  14
ATOM     12 CL   UNL     1      37.437 -20.157 -20.284  0.00  0.00    -0.081 Cl
ATOM     13  N   UNL     1      33.020 -21.082 -20.553  0.00  0.00    -0.241 NA
ATOM     14  C   UNL     1      34.870 -19.594 -21.008  0.00  0.00    +0.082 C 
ATOM     15  C   UNL     1      35.747 -20.487 -20.399  0.00  0.00    +0.074 C 
ATOM     16  C   UNL     1      33.529 -19.937 -21.058  0.00  0.00    +0.114 C 
ATOM     17  C   UNL     1      35.261 -21.677 -19.868  0.00  0.00    +0.033 C 
ATOM     18  C   UNL     1      33.902 -21.925 -19.969  0.00  0.00    +0.100 C 
ENDBRANCH   4  14
BRANCH   2  19
ATOM     19  C   UNL     1      33.243 -13.195 -24.572  0.00  0.00    -0.050 C 
BRANCH  19  24
ATOM     20  F   UNL     1      32.927  -6.602 -23.081  0.00  0.00    -0.125 F 
ATOM     21  F   UNL     1      34.155  -7.283 -21.402  0.00  0.00    -0.125 F 
ATOM     22  O   UNL     1      32.769  -8.764 -22.418  0.00  0.00    -0.395 OA
ATOM     23  O   UNL     1      34.742  -7.894 -23.506  0.00  0.00    -0.395 OA
ATOM     24  C   UNL     1      33.674 -11.776 -24.309  0.00  0.00    -0.040 C 
ATOM     25  C   UNL     1      32.930 -10.977 -23.438  0.00  0.00    +0.034 C 
ATOM     26  C   UNL     1      34.822 -11.269 -24.943  0.00  0.00    -0.003 C 
ATOM     27  C   UNL     1      33.364  -9.684 -23.227  0.00  0.00    +0.181 C 
ATOM     28  C   UNL     1      34.489  -9.187 -23.849  0.00  0.00    +0.182 C 
ATOM     29  C   UNL     1      35.240  -9.956 -24.713  0.00  0.00    +0.040 C 
ATOM     30  C   UNL     1      33.651  -7.647 -22.608  0.00  0.00    +0.589 C 
ENDBRANCH  19  24
ENDBRANCH   2  19
TORSDOF 3
ENDMDL
MODEL 7
REMARK VINA RESULT:     -10.3      8.670     13.514
REMARK  Name = 54576693
REMARK  3 active torsions:
REMARK  status: ('A' for Active; 'I' for Inactive)
REMARK    1  A    between atoms: N_2  and  C_19
REMARK    2  A    between atoms: N_4  and  C_14
REMARK    3  A    between atoms: C_19  and  C_24
REMARK                            x       y       z     vdW  Elec       q    Type
REMARK                         _______ _______ _______ _____ _____    ______ ____
ROOT
ATOM      1  O   UNL     1      31.546  -7.481 -22.171  0.00  0.00    -0.252 OA
ATOM      2  N   UNL     1      33.915 -11.620 -23.627  0.00  0.00    +0.392 N 
ATOM      3  N   UNL     1      33.175  -8.925 -22.954  0.00  0.00    -0.268 N 
ATOM      4  N   UNL     1      33.257  -6.626 -23.484  0.00  0.00    -0.266 N 
ATOM      5  C   UNL     1      32.556 -11.318 -23.161  0.00  0.00    -0.055 C 
ATOM      6  C   UNL     1      34.442 -10.494 -24.408  0.00  0.00    -0.055 C 
ATOM      7  C   UNL     1      34.473  -9.205 -23.582  0.00  0.00    +0.072 C 
ATOM      8  C   UNL     1      32.560 -10.070 -22.281  0.00  0.00    +0.072 C 
ATOM      9  C   UNL     1      32.574  -7.652 -22.830  0.00  0.00    +0.308 C 
ATOM     10  H   UNL     1      34.516 -11.763 -22.814  0.00  0.00    -0.079 HD
ATOM     11  H   UNL     1      34.233  -6.731 -23.560  0.00  0.00    +0.156 HD
ENDROOT
BRANCH   4  14
ATOM     12 CL   UNL     1      34.765  -5.355 -25.833  0.00  0.00    -0.081 Cl
ATOM     13  N   UNL     1      30.924  -3.816 -24.011  0.00  0.00    -0.241 NA
ATOM     14  C   UNL     1      32.704  -5.452 -24.052  0.00  0.00    +0.082 C 
ATOM     15  C   UNL     1      33.299  -4.788 -25.120  0.00  0.00    +0.074 C 
ATOM     16  C   UNL     1      31.528  -4.929 -23.539  0.00  0.00    +0.114 C 
ATOM     17  C   UNL     1      32.708  -3.639 -25.633  0.00  0.00    +0.033 C 
ATOM     18  C   UNL     1      31.532  -3.198 -25.049  0.00  0.00    +0.100 C 
ENDBRANCH   4  14
BRANCH   2  19
ATOM     19  C   UNL     1      33.925 -12.846 -24.423  0.00  0.00    -0.050 C 
BRANCH  19  24
ATOM     20  F   UNL     1      35.168 -19.260 -22.659  0.00  0.00    -0.125 F 
ATOM     21  F   UNL     1      37.215 -18.484 -22.630  0.00  0.00    -0.125 F 
ATOM     22  O   UNL     1      35.671 -17.451 -23.932  0.00  0.00    -0.395 OA
ATOM     23  O   UNL     1      35.597 -17.348 -21.520  0.00  0.00    -0.395 OA
ATOM     24  C   UNL     1      34.365 -14.036 -23.613  0.00  0.00    -0.040 C 
ATOM     25  C   UNL     1      34.814 -15.189 -24.262  0.00  0.00    +0.034 C 
ATOM     26  C   UNL     1      34.323 -13.976 -22.209  0.00  0.00    -0.003 C 
ATOM     27  C   UNL     1      35.209 -16.253 -23.478  0.00  0.00    +0.181 C 
ATOM     28  C   UNL     1      35.167 -16.194 -22.102  0.00  0.00    +0.182 C 
ATOM     29  C   UNL     1      34.728 -15.067 -21.437  0.00  0.00    +0.040 C 
ATOM     30  C   UNL     1      35.908 -18.124 -22.685  0.00  0.00    +0.589 C 
ENDBRANCH  19  24
ENDBRANCH   2  19
TORSDOF 3
ENDMDL
MODEL 8
REMARK VINA RESULT:     -10.3      8.838     12.011
REMARK  Name = 54576693
REMARK  3 active torsions:
REMARK  status: ('A' for Active; 'I' for Inactive)
REMARK    1  A    between atoms: N_2  and  C_19
REMARK    2  A    between atoms: N_4  and  C_14
REMARK    3  A    between atoms: C_19  and  C_24
REMARK                            x       y       z     vdW  Elec       q    Type
REMARK                         _______ _______ _______ _____ _____    ______ ____
ROOT
ATOM      1  O   UNL     1      32.043 -13.761 -21.378  0.00  0.00    -0.252 OA
ATOM      2  N   UNL     1      32.276  -8.791 -21.710  0.00  0.00    +0.392 N 
ATOM      3  N   UNL     1      32.220 -11.617 -22.231  0.00  0.00    -0.268 N 
ATOM      4  N   UNL     1      33.087 -13.458 -23.429  0.00  0.00    -0.266 N 
ATOM      5  C   UNL     1      32.163  -9.748 -20.602  0.00  0.00    -0.055 C 
ATOM      6  C   UNL     1      33.101  -9.358 -22.784  0.00  0.00    -0.055 C 
ATOM      7  C   UNL     1      32.507 -10.667 -23.314  0.00  0.00    +0.072 C 
ATOM      8  C   UNL     1      31.516 -11.044 -21.083  0.00  0.00    +0.072 C 
ATOM      9  C   UNL     1      32.434 -13.013 -22.278  0.00  0.00    +0.308 C 
ATOM     10  H   UNL     1      31.343  -8.604 -22.079  0.00  0.00    -0.079 HD
ATOM     11  H   UNL     1      32.937 -12.930 -24.247  0.00  0.00    +0.156 HD
ENDROOT
BRANCH   4  14
ATOM     12 CL   UNL     1      33.477 -14.628 -26.237  0.00  0.00    -0.081 Cl
ATOM     13  N   UNL     1      35.386 -16.168 -22.439  0.00  0.00    -0.241 NA
ATOM     14  C   UNL     1      33.942 -14.581 -23.551  0.00  0.00    +0.082 C 
ATOM     15  C   UNL     1      34.194 -15.196 -24.773  0.00  0.00    +0.074 C 
ATOM     16  C   UNL     1      34.557 -15.102 -22.424  0.00  0.00    +0.114 C 
ATOM     17  C   UNL     1      35.041 -16.298 -24.828  0.00  0.00    +0.033 C 
ATOM     18  C   UNL     1      35.608 -16.740 -23.644  0.00  0.00    +0.100 C 
ENDBRANCH   4  14
BRANCH   2  19
ATOM     19  C   UNL     1      32.843  -7.527 -21.241  0.00  0.00    -0.050 C 
BRANCH  19  24
ATOM     20  F   UNL     1      32.501  -1.786 -24.806  0.00  0.00    -0.125 F 
ATOM     21  F   UNL     1      31.548  -3.143 -26.234  0.00  0.00    -0.125 F 
ATOM     22  O   UNL     1      32.992  -3.997 -24.708  0.00  0.00    -0.395 OA
ATOM     23  O   UNL     1      30.825  -3.131 -24.085  0.00  0.00    -0.395 OA
ATOM     24  C   UNL     1      32.272  -6.348 -21.982  0.00  0.00    -0.040 C 
ATOM     25  C   UNL     1      32.998  -5.766 -23.024  0.00  0.00    +0.034 C 
ATOM     26  C   UNL     1      31.010  -5.843 -21.620  0.00  0.00    -0.003 C 
ATOM     27  C   UNL     1      32.434  -4.689 -23.675  0.00  0.00    +0.181 C 
ATOM     28  C   UNL     1      31.197  -4.194 -23.320  0.00  0.00    +0.182 C 
ATOM     29  C   UNL     1      30.460  -4.751 -22.295  0.00  0.00    +0.040 C 
ATOM     30  C   UNL     1      31.965  -3.023 -24.949  0.00  0.00    +0.589 C 
ENDBRANCH  19  24
ENDBRANCH   2  19
TORSDOF 3
ENDMDL
MODEL 9
REMARK VINA RESULT:     -10.3      3.964      6.384
REMARK  Name = 54576693
REMARK  3 active torsions:
REMARK  status: ('A' for Active; 'I' for Inactive)
REMARK    1  A    between atoms: N_2  and  C_19
REMARK    2  A    between atoms: N_4  and  C_14
REMARK    3  A    between atoms: C_19  and  C_24
REMARK                            x       y       z     vdW  Elec       q    Type
REMARK                         _______ _______ _______ _____ _____    ______ ____
ROOT
ATOM      1  O   UNL     1      35.357 -19.834 -23.970  0.00  0.00    -0.252 OA
ATOM      2  N   UNL     1      34.557 -14.996 -24.876  0.00  0.00    +0.392 N 
ATOM      3  N   UNL     1      35.261 -17.535 -23.726  0.00  0.00    -0.268 N 
ATOM      4  N   UNL     1      35.305 -18.940 -21.829  0.00  0.00    -0.266 N 
ATOM      5  C   UNL     1      34.306 -16.240 -25.614  0.00  0.00    -0.055 C 
ATOM      6  C   UNL     1      34.393 -15.223 -23.434  0.00  0.00    -0.055 C 
ATOM      7  C   UNL     1      35.349 -16.306 -22.926  0.00  0.00    +0.072 C 
ATOM      8  C   UNL     1      35.285 -17.327 -25.175  0.00  0.00    +0.072 C 
ATOM      9  C   UNL     1      35.302 -18.855 -23.222  0.00  0.00    +0.308 C 
ATOM     10  H   UNL     1      35.517 -14.699 -25.052  0.00  0.00    -0.079 HD
ATOM     11  H   UNL     1      35.723 -18.190 -21.347  0.00  0.00    +0.156 HD
ENDROOT
BRANCH   4  14
ATOM     12 CL   UNL     1      37.298 -20.675 -20.273  0.00  0.00    -0.081 Cl
ATOM     13  N   UNL     1      32.801 -21.146 -20.255  0.00  0.00    -0.241 NA
ATOM     14  C   UNL     1      34.773 -19.983 -21.032  0.00  0.00    +0.082 C 
ATOM     15  C   UNL     1      35.579 -20.834 -20.283  0.00  0.00    +0.074 C 
ATOM     16  C   UNL     1      33.402 -20.180 -20.983  0.00  0.00    +0.114 C 
ATOM     17  C   UNL     1      34.997 -21.842 -19.520  0.00  0.00    +0.033 C 
ATOM     18  C   UNL     1      33.617 -21.954 -19.540  0.00  0.00    +0.100 C 
ENDBRANCH   4  14
BRANCH   2  19
ATOM     19  C   UNL     1      33.659 -13.937 -25.334  0.00  0.00    -0.050 C 
BRANCH  19  24
ATOM     20  F   UNL     1      30.332 -11.106 -20.167  0.00  0.00    -0.125 F 
ATOM     21  F   UNL     1      32.212 -11.587 -19.153  0.00  0.00    -0.125 F 
ATOM     22  O   UNL     1      31.611 -12.795 -20.976  0.00  0.00    -0.395 OA
ATOM     23  O   UNL     1      32.287 -10.482 -21.132  0.00  0.00    -0.395 OA
ATOM     24  C   UNL     1      33.307 -12.982 -24.225  0.00  0.00    -0.040 C 
ATOM     25  C   UNL     1      32.594 -13.442 -23.115  0.00  0.00    +0.034 C 
ATOM     26  C   UNL     1      33.701 -11.635 -24.316  0.00  0.00    -0.003 C 
ATOM     27  C   UNL     1      32.295 -12.531 -22.124  0.00  0.00    +0.181 C 
ATOM     28  C   UNL     1      32.681 -11.210 -22.212  0.00  0.00    +0.182 C 
ATOM     29  C   UNL     1      33.386 -10.732 -23.298  0.00  0.00    +0.040 C 
ATOM     30  C   UNL     1      31.616 -11.494 -20.368  0.00  0.00    +0.589 C 
ENDBRANCH  19  24
ENDBRANCH   2  19
TORSDOF 3
ENDMDL
