MODEL 1
REMARK VINA RESULT:     -10.9      0.000      0.000
REMARK  Name = 4249
REMARK  7 active torsions:
REMARK  status: ('A' for Active; 'I' for Inactive)
REMARK    1  A    between atoms: N_1  and  C_17
REMARK    2  A    between atoms: C_2  and  C_8
REMARK    3  A    between atoms: C_2  and  O_15
REMARK    4  A    between atoms: C_17  and  C_18
REMARK    5  A    between atoms: C_18  and  C_19
REMARK    6  A    between atoms: C_19  and  C_21
REMARK    7  A    between atoms: C_21  and  C_23
REMARK                            x       y       z     vdW  Elec       q    Type
REMARK                         _______ _______ _______ _____ _____    ______ ____
ROOT
ATOM      1  N   UNL     1      35.602 -20.305 -20.510  0.00  0.00    +0.387 N 
ATOM      2  C   UNL     1      34.233 -22.443 -18.967  0.00  0.00    +0.103 C 
ATOM      3  C   UNL     1      33.494 -21.286 -19.676  0.00  0.00    +0.008 C 
ATOM      4  C   UNL     1      35.694 -22.009 -18.709  0.00  0.00    +0.008 C 
ATOM      5  C   UNL     1      34.255 -20.742 -20.891  0.00  0.00    -0.075 C 
ATOM      6  C   UNL     1      36.378 -21.415 -19.947  0.00  0.00    -0.075 C 
ATOM      7  H   UNL     1      35.508 -19.589 -19.789  0.00  0.00    -0.080 HD
ENDROOT
BRANCH   2   8
ATOM      8  C   UNL     1      33.581 -22.928 -17.672  0.00  0.00    +0.002 C 
ATOM      9  C   UNL     1      32.201 -22.821 -17.507  0.00  0.00    -0.002 C 
ATOM     10  C   UNL     1      34.366 -23.478 -16.660  0.00  0.00    -0.002 C 
ATOM     11  C   UNL     1      31.606 -23.264 -16.325  0.00  0.00    -0.005 C 
ATOM     12  C   UNL     1      33.771 -23.921 -15.480  0.00  0.00    -0.005 C 
ATOM     13  C   UNL     1      32.391 -23.814 -15.312  0.00  0.00    -0.022 C 
ATOM     14  C   UNL     1      31.754 -24.287 -14.049  0.00  0.00    +0.031 C 
ENDBRANCH   2   8
BRANCH   2  15
ATOM     15  O   UNL     1      34.220 -23.576 -19.849  0.00  0.00    -0.383 OA
ATOM     16  H   UNL     1      34.141 -24.391 -19.329  0.00  0.00    +0.211 HD
ENDBRANCH   2  15
BRANCH   1  17
ATOM     17  C   UNL     1      36.296 -19.723 -21.658  0.00  0.00    -0.077 C 
BRANCH  17  18
ATOM     18  C   UNL     1      35.285 -19.187 -22.673  0.00  0.00    -0.015 C 
BRANCH  18  19
ATOM     19  C   UNL     1      35.844 -18.017 -23.487  0.00  0.00    +0.067 C 
BRANCH  19  21
ATOM     20  O   UNL     1      35.359 -16.294 -21.868  0.00  0.00    -0.291 OA
ATOM     21  C   UNL     1      35.316 -16.662 -23.040  0.00  0.00    +0.173 C 
BRANCH  21  23
ATOM     22  F   UNL     1      33.181 -13.223 -26.885  0.00  0.00    -0.204 F 
ATOM     23  C   UNL     1      34.747 -15.743 -24.067  0.00  0.00    +0.035 C 
ATOM     24  C   UNL     1      34.441 -16.250 -25.310  0.00  0.00    +0.005 C 
ATOM     25  C   UNL     1      34.546 -14.422 -23.733  0.00  0.00    +0.005 C 
ATOM     26  C   UNL     1      33.907 -15.390 -26.271  0.00  0.00    +0.030 C 
ATOM     27  C   UNL     1      34.012 -13.562 -24.694  0.00  0.00    +0.030 C 
ATOM     28  C   UNL     1      33.693 -14.048 -25.963  0.00  0.00    +0.140 C 
ENDBRANCH  21  23
ENDBRANCH  19  21
ENDBRANCH  18  19
ENDBRANCH  17  18
ENDBRANCH   1  17
TORSDOF 7
ENDMDL
MODEL 2
REMARK VINA RESULT:     -10.9      2.834      5.009
REMARK  Name = 4249
REMARK  7 active torsions:
REMARK  status: ('A' for Active; 'I' for Inactive)
REMARK    1  A    between atoms: N_1  and  C_17
REMARK    2  A    between atoms: C_2  and  C_8
REMARK    3  A    between atoms: C_2  and  O_15
REMARK    4  A    between atoms: C_17  and  C_18
REMARK    5  A    between atoms: C_18  and  C_19
REMARK    6  A    between atoms: C_19  and  C_21
REMARK    7  A    between atoms: C_21  and  C_23
REMARK                            x       y       z     vdW  Elec       q    Type
REMARK                         _______ _______ _______ _____ _____    ______ ____
ROOT
ATOM      1  N   UNL     1      35.004 -16.648 -23.643  0.00  0.00    +0.387 N 
ATOM      2  C   UNL     1      35.576 -19.047 -21.987  0.00  0.00    +0.103 C 
ATOM      3  C   UNL     1      34.965 -19.106 -23.405  0.00  0.00    +0.008 C 
ATOM      4  C   UNL     1      35.303 -17.646 -21.391  0.00  0.00    +0.008 C 
ATOM      5  C   UNL     1      35.370 -17.916 -24.283  0.00  0.00    -0.075 C 
ATOM      6  C   UNL     1      35.669 -16.501 -22.344  0.00  0.00    -0.075 C 
ATOM      7  H   UNL     1      33.996 -16.656 -23.483  0.00  0.00    -0.080 HD
ENDROOT
BRANCH   2   8
ATOM      8  C   UNL     1      35.095 -20.139 -21.031  0.00  0.00    +0.002 C 
ATOM      9  C   UNL     1      33.729 -20.356 -20.854  0.00  0.00    -0.002 C 
ATOM     10  C   UNL     1      36.021 -20.916 -20.338  0.00  0.00    -0.002 C 
ATOM     11  C   UNL     1      33.290 -21.353 -19.982  0.00  0.00    -0.005 C 
ATOM     12  C   UNL     1      35.582 -21.912 -19.466  0.00  0.00    -0.005 C 
ATOM     13  C   UNL     1      34.216 -22.130 -19.289  0.00  0.00    -0.022 C 
ATOM     14  C   UNL     1      33.746 -23.196 -18.356  0.00  0.00    +0.031 C 
ENDBRANCH   2   8
BRANCH   2  15
ATOM     15  O   UNL     1      36.993 -19.245 -22.111  0.00  0.00    -0.383 OA
ATOM     16  H   UNL     1      37.355 -18.604 -22.742  0.00  0.00    +0.211 HD
ENDBRANCH   2  15
BRANCH   1  17
ATOM     17  C   UNL     1      35.328 -15.521 -24.517  0.00  0.00    -0.077 C 
BRANCH  17  18
ATOM     18  C   UNL     1      34.212 -15.306 -25.540  0.00  0.00    -0.015 C 
BRANCH  18  19
ATOM     19  C   UNL     1      33.133 -14.346 -25.030  0.00  0.00    +0.067 C 
BRANCH  19  21
ATOM     20  O   UNL     1      34.546 -12.432 -24.633  0.00  0.00    -0.291 OA
ATOM     21  C   UNL     1      33.688 -13.198 -24.202  0.00  0.00    +0.173 C 
BRANCH  21  23
ATOM     22  F   UNL     1      31.678 -12.405 -19.053  0.00  0.00    -0.204 F 
ATOM     23  C   UNL     1      33.152 -12.986 -22.826  0.00  0.00    +0.035 C 
ATOM     24  C   UNL     1      32.518 -11.797 -22.540  0.00  0.00    +0.005 C 
ATOM     25  C   UNL     1      33.310 -13.986 -21.894  0.00  0.00    +0.005 C 
ATOM     26  C   UNL     1      32.016 -11.600 -21.253  0.00  0.00    +0.030 C 
ATOM     27  C   UNL     1      32.808 -13.789 -20.607  0.00  0.00    +0.030 C 
ATOM     28  C   UNL     1      32.160 -12.595 -20.288  0.00  0.00    +0.140 C 
ENDBRANCH  21  23
ENDBRANCH  19  21
ENDBRANCH  18  19
ENDBRANCH  17  18
ENDBRANCH   1  17
TORSDOF 7
ENDMDL
MODEL 3
REMARK VINA RESULT:     -10.8      3.518      5.731
REMARK  Name = 4249
REMARK  7 active torsions:
REMARK  status: ('A' for Active; 'I' for Inactive)
REMARK    1  A    between atoms: N_1  and  C_17
REMARK    2  A    between atoms: C_2  and  C_8
REMARK    3  A    between atoms: C_2  and  O_15
REMARK    4  A    between atoms: C_17  and  C_18
REMARK    5  A    between atoms: C_18  and  C_19
REMARK    6  A    between atoms: C_19  and  C_21
REMARK    7  A    between atoms: C_21  and  C_23
REMARK                            x       y       z     vdW  Elec       q    Type
REMARK                         _______ _______ _______ _____ _____    ______ ____
ROOT
ATOM      1  N   UNL     1      34.729 -16.112 -23.544  0.00  0.00    +0.387 N 
ATOM      2  C   UNL     1      35.561 -18.559 -22.079  0.00  0.00    +0.103 C 
ATOM      3  C   UNL     1      34.957 -18.571 -23.501  0.00  0.00    +0.008 C 
ATOM      4  C   UNL     1      35.140 -17.247 -21.376  0.00  0.00    +0.008 C 
ATOM      5  C   UNL     1      35.228 -17.279 -24.280  0.00  0.00    -0.075 C 
ATOM      6  C   UNL     1      35.377 -15.997 -22.234  0.00  0.00    -0.075 C 
ATOM      7  H   UNL     1      33.728 -16.242 -23.391  0.00  0.00    -0.080 HD
ENDROOT
BRANCH   2   8
ATOM      8  C   UNL     1      35.203 -19.768 -21.214  0.00  0.00    +0.002 C 
ATOM      9  C   UNL     1      33.865 -20.100 -21.003  0.00  0.00    -0.002 C 
ATOM     10  C   UNL     1      36.213 -20.538 -20.641  0.00  0.00    -0.002 C 
ATOM     11  C   UNL     1      33.539 -21.204 -20.216  0.00  0.00    -0.005 C 
ATOM     12  C   UNL     1      35.887 -21.641 -19.853  0.00  0.00    -0.005 C 
ATOM     13  C   UNL     1      34.549 -21.975 -19.641  0.00  0.00    -0.022 C 
ATOM     14  C   UNL     1      34.200 -23.155 -18.798  0.00  0.00    +0.031 C 
ENDBRANCH   2   8
BRANCH   2  15
ATOM     15  O   UNL     1      36.991 -18.592 -22.210  0.00  0.00    -0.383 OA
ATOM     16  H   UNL     1      37.278 -17.881 -22.803  0.00  0.00    +0.211 HD
ENDBRANCH   2  15
BRANCH   1  17
ATOM     17  C   UNL     1      34.927 -14.891 -24.324  0.00  0.00    -0.077 C 
BRANCH  17  18
ATOM     18  C   UNL     1      34.606 -13.661 -23.473  0.00  0.00    -0.015 C 
BRANCH  18  19
ATOM     19  C   UNL     1      33.100 -13.407 -23.362  0.00  0.00    +0.067 C 
BRANCH  19  21
ATOM     20  O   UNL     1      32.400 -14.408 -21.281  0.00  0.00    -0.291 OA
ATOM     21  C   UNL     1      32.595 -13.381 -21.928  0.00  0.00    +0.173 C 
BRANCH  21  23
ATOM     22  F   UNL     1      31.681  -8.435 -19.505  0.00  0.00    -0.204 F 
ATOM     23  C   UNL     1      32.350 -12.060 -21.281  0.00  0.00    +0.035 C 
ATOM     24  C   UNL     1      32.215 -12.010 -19.911  0.00  0.00    +0.005 C 
ATOM     25  C   UNL     1      32.270 -10.940 -22.077  0.00  0.00    +0.005 C 
ATOM     26  C   UNL     1      31.987 -10.774 -19.306  0.00  0.00    +0.030 C 
ATOM     27  C   UNL     1      32.041  -9.703 -21.472  0.00  0.00    +0.030 C 
ATOM     28  C   UNL     1      31.901  -9.621 -20.085  0.00  0.00    +0.140 C 
ENDBRANCH  21  23
ENDBRANCH  19  21
ENDBRANCH  18  19
ENDBRANCH  17  18
ENDBRANCH   1  17
TORSDOF 7
ENDMDL
MODEL 4
REMARK VINA RESULT:     -10.7      1.931      2.578
REMARK  Name = 4249
REMARK  7 active torsions:
REMARK  status: ('A' for Active; 'I' for Inactive)
REMARK    1  A    between atoms: N_1  and  C_17
REMARK    2  A    between atoms: C_2  and  C_8
REMARK    3  A    between atoms: C_2  and  O_15
REMARK    4  A    between atoms: C_17  and  C_18
REMARK    5  A    between atoms: C_18  and  C_19
REMARK    6  A    between atoms: C_19  and  C_21
REMARK    7  A    between atoms: C_21  and  C_23
REMARK                            x       y       z     vdW  Elec       q    Type
REMARK                         _______ _______ _______ _____ _____    ______ ____
ROOT
ATOM      1  N   UNL     1      35.416 -20.152 -20.600  0.00  0.00    +0.387 N 
ATOM      2  C   UNL     1      34.235 -22.373 -19.020  0.00  0.00    +0.103 C 
ATOM      3  C   UNL     1      33.408 -21.227 -19.645  0.00  0.00    +0.008 C 
ATOM      4  C   UNL     1      35.696 -21.892 -18.854  0.00  0.00    +0.008 C 
ATOM      5  C   UNL     1      34.061 -20.629 -20.897  0.00  0.00    -0.075 C 
ATOM      6  C   UNL     1      36.268 -21.245 -20.122  0.00  0.00    -0.075 C 
ATOM      7  H   UNL     1      35.349 -19.456 -19.857  0.00  0.00    -0.080 HD
ENDROOT
BRANCH   2   8
ATOM      8  C   UNL     1      33.695 -22.911 -17.694  0.00  0.00    +0.002 C 
ATOM      9  C   UNL     1      34.578 -23.366 -16.717  0.00  0.00    -0.002 C 
ATOM     10  C   UNL     1      32.320 -22.944 -17.465  0.00  0.00    -0.002 C 
ATOM     11  C   UNL     1      34.084 -23.856 -15.507  0.00  0.00    -0.005 C 
ATOM     12  C   UNL     1      31.828 -23.434 -16.256  0.00  0.00    -0.005 C 
ATOM     13  C   UNL     1      32.710 -23.889 -15.277  0.00  0.00    -0.022 C 
ATOM     14  C   UNL     1      32.183 -24.414 -13.984  0.00  0.00    +0.031 C 
ENDBRANCH   2   8
BRANCH   2  15
ATOM     15  O   UNL     1      34.199 -23.486 -19.927  0.00  0.00    -0.383 OA
ATOM     16  H   UNL     1      33.650 -23.260 -20.694  0.00  0.00    +0.211 HD
ENDBRANCH   2  15
BRANCH   1  17
ATOM     17  C   UNL     1      36.006 -19.519 -21.779  0.00  0.00    -0.077 C 
BRANCH  17  18
ATOM     18  C   UNL     1      35.123 -18.367 -22.261  0.00  0.00    -0.015 C 
BRANCH  18  19
ATOM     19  C   UNL     1      35.603 -17.010 -21.740  0.00  0.00    +0.067 C 
BRANCH  19  21
ATOM     20  O   UNL     1      35.706 -15.683 -23.753  0.00  0.00    -0.291 OA
ATOM     21  C   UNL     1      35.214 -15.846 -22.639  0.00  0.00    +0.173 C 
BRANCH  21  23
ATOM     22  F   UNL     1      31.358 -12.239 -20.824  0.00  0.00    -0.204 F 
ATOM     23  C   UNL     1      34.183 -14.883 -22.154  0.00  0.00    +0.035 C 
ATOM     24  C   UNL     1      33.822 -14.915 -20.826  0.00  0.00    +0.005 C 
ATOM     25  C   UNL     1      33.632 -13.997 -23.053  0.00  0.00    +0.005 C 
ATOM     26  C   UNL     1      32.858 -14.013 -20.373  0.00  0.00    +0.030 C 
ATOM     27  C   UNL     1      32.669 -13.095 -22.600  0.00  0.00    +0.030 C 
ATOM     28  C   UNL     1      32.282 -13.104 -21.259  0.00  0.00    +0.140 C 
ENDBRANCH  21  23
ENDBRANCH  19  21
ENDBRANCH  18  19
ENDBRANCH  17  18
ENDBRANCH   1  17
TORSDOF 7
ENDMDL
MODEL 5
REMARK VINA RESULT:     -10.6      4.909     10.659
REMARK  Name = 4249
REMARK  7 active torsions:
REMARK  status: ('A' for Active; 'I' for Inactive)
REMARK    1  A    between atoms: N_1  and  C_17
REMARK    2  A    between atoms: C_2  and  C_8
REMARK    3  A    between atoms: C_2  and  O_15
REMARK    4  A    between atoms: C_17  and  C_18
REMARK    5  A    between atoms: C_18  and  C_19
REMARK    6  A    between atoms: C_19  and  C_21
REMARK    7  A    between atoms: C_21  and  C_23
REMARK                            x       y       z     vdW  Elec       q    Type
REMARK                         _______ _______ _______ _____ _____    ______ ____
ROOT
ATOM      1  N   UNL     1      33.197 -23.438 -15.577  0.00  0.00    +0.387 N 
ATOM      2  C   UNL     1      33.973 -22.829 -18.379  0.00  0.00    +0.103 C 
ATOM      3  C   UNL     1      34.979 -22.936 -17.211  0.00  0.00    +0.008 C 
ATOM      4  C   UNL     1      32.574 -22.521 -17.796  0.00  0.00    +0.008 C 
ATOM      5  C   UNL     1      34.502 -23.867 -16.090  0.00  0.00    -0.075 C 
ATOM      6  C   UNL     1      32.184 -23.446 -16.636  0.00  0.00    -0.075 C 
ATOM      7  H   UNL     1      33.293 -22.479 -15.238  0.00  0.00    -0.080 HD
ENDROOT
BRANCH   2   8
ATOM      8  C   UNL     1      34.341 -21.809 -19.457  0.00  0.00    +0.002 C 
ATOM      9  C   UNL     1      35.681 -21.561 -19.750  0.00  0.00    -0.002 C 
ATOM     10  C   UNL     1      33.337 -21.130 -20.145  0.00  0.00    -0.002 C 
ATOM     11  C   UNL     1      36.017 -20.631 -20.735  0.00  0.00    -0.005 C 
ATOM     12  C   UNL     1      33.673 -20.201 -21.129  0.00  0.00    -0.005 C 
ATOM     13  C   UNL     1      35.013 -19.952 -21.424  0.00  0.00    -0.022 C 
ATOM     14  C   UNL     1      35.373 -18.957 -22.476  0.00  0.00    +0.031 C 
ENDBRANCH   2   8
BRANCH   2  15
ATOM     15  O   UNL     1      33.942 -24.099 -19.048  0.00  0.00    -0.383 OA
ATOM     16  H   UNL     1      34.807 -24.530 -18.965  0.00  0.00    +0.211 HD
ENDBRANCH   2  15
BRANCH   1  17
ATOM     17  C   UNL     1      32.781 -24.287 -14.461  0.00  0.00    -0.077 C 
BRANCH  17  18
ATOM     18  C   UNL     1      33.985 -25.037 -13.888  0.00  0.00    -0.015 C 
BRANCH  18  19
ATOM     19  C   UNL     1      34.662 -24.266 -12.751  0.00  0.00    +0.067 C 
BRANCH  19  21
ATOM     20  O   UNL     1      36.036 -25.392 -11.117  0.00  0.00    -0.291 OA
ATOM     21  C   UNL     1      35.938 -24.926 -12.250  0.00  0.00    +0.173 C 
BRANCH  21  23
ATOM     22  F   UNL     1      40.292 -25.302 -15.725  0.00  0.00    -0.204 F 
ATOM     23  C   UNL     1      37.101 -25.025 -13.177  0.00  0.00    +0.035 C 
ATOM     24  C   UNL     1      37.946 -26.107 -13.063  0.00  0.00    +0.005 C 
ATOM     25  C   UNL     1      37.286 -24.034 -14.114  0.00  0.00    +0.005 C 
ATOM     26  C   UNL     1      39.034 -26.200 -13.932  0.00  0.00    +0.030 C 
ATOM     27  C   UNL     1      38.374 -24.127 -14.983  0.00  0.00    +0.030 C 
ATOM     28  C   UNL     1      39.248 -25.212 -14.892  0.00  0.00    +0.140 C 
ENDBRANCH  21  23
ENDBRANCH  19  21
ENDBRANCH  18  19
ENDBRANCH  17  18
ENDBRANCH   1  17
TORSDOF 7
ENDMDL
MODEL 6
REMARK VINA RESULT:     -10.6      1.997      2.408
REMARK  Name = 4249
REMARK  7 active torsions:
REMARK  status: ('A' for Active; 'I' for Inactive)
REMARK    1  A    between atoms: N_1  and  C_17
REMARK    2  A    between atoms: C_2  and  C_8
REMARK    3  A    between atoms: C_2  and  O_15
REMARK    4  A    between atoms: C_17  and  C_18
REMARK    5  A    between atoms: C_18  and  C_19
REMARK    6  A    between atoms: C_19  and  C_21
REMARK    7  A    between atoms: C_21  and  C_23
REMARK                            x       y       z     vdW  Elec       q    Type
REMARK                         _______ _______ _______ _____ _____    ______ ____
ROOT
ATOM      1  N   UNL     1      34.957 -20.002 -20.962  0.00  0.00    +0.387 N 
ATOM      2  C   UNL     1      34.253 -22.261 -19.165  0.00  0.00    +0.103 C 
ATOM      3  C   UNL     1      33.234 -21.217 -19.676  0.00  0.00    +0.008 C 
ATOM      4  C   UNL     1      35.669 -21.645 -19.244  0.00  0.00    +0.008 C 
ATOM      5  C   UNL     1      33.623 -20.610 -21.029  0.00  0.00    -0.075 C 
ATOM      6  C   UNL     1      35.973 -20.996 -20.601  0.00  0.00    -0.075 C 
ATOM      7  H   UNL     1      34.941 -19.288 -20.233  0.00  0.00    -0.080 HD
ENDROOT
BRANCH   2   8
ATOM      8  C   UNL     1      33.979 -22.796 -17.759  0.00  0.00    +0.002 C 
ATOM      9  C   UNL     1      32.672 -23.076 -17.365  0.00  0.00    -0.002 C 
ATOM     10  C   UNL     1      35.036 -23.004 -16.875  0.00  0.00    -0.002 C 
ATOM     11  C   UNL     1      32.423 -23.565 -16.082  0.00  0.00    -0.005 C 
ATOM     12  C   UNL     1      34.786 -23.493 -15.594  0.00  0.00    -0.005 C 
ATOM     13  C   UNL     1      33.479 -23.774 -15.197  0.00  0.00    -0.022 C 
ATOM     14  C   UNL     1      33.212 -24.296 -13.826  0.00  0.00    +0.031 C 
ENDBRANCH   2   8
BRANCH   2  15
ATOM     15  O   UNL     1      34.181 -23.404 -20.031  0.00  0.00    -0.383 OA
ATOM     16  H   UNL     1      33.925 -23.120 -20.922  0.00  0.00    +0.211 HD
ENDBRANCH   2  15
BRANCH   1  17
ATOM     17  C   UNL     1      35.293 -19.362 -22.234  0.00  0.00    -0.077 C 
BRANCH  17  18
ATOM     18  C   UNL     1      36.134 -18.108 -21.990  0.00  0.00    -0.015 C 
BRANCH  18  19
ATOM     19  C   UNL     1      35.306 -16.957 -21.412  0.00  0.00    +0.067 C 
BRANCH  19  21
ATOM     20  O   UNL     1      35.706 -15.734 -23.453  0.00  0.00    -0.291 OA
ATOM     21  C   UNL     1      35.089 -15.815 -22.394  0.00  0.00    +0.173 C 
BRANCH  21  23
ATOM     22  F   UNL     1      31.294 -11.911 -21.158  0.00  0.00    -0.204 F 
ATOM     23  C   UNL     1      34.077 -14.772 -22.063  0.00  0.00    +0.035 C 
ATOM     24  C   UNL     1      33.667 -13.911 -23.057  0.00  0.00    +0.005 C 
ATOM     25  C   UNL     1      33.588 -14.709 -20.778  0.00  0.00    +0.005 C 
ATOM     26  C   UNL     1      32.718 -12.935 -22.748  0.00  0.00    +0.030 C 
ATOM     27  C   UNL     1      32.639 -13.733 -20.469  0.00  0.00    +0.030 C 
ATOM     28  C   UNL     1      32.204 -12.847 -21.455  0.00  0.00    +0.140 C 
ENDBRANCH  21  23
ENDBRANCH  19  21
ENDBRANCH  18  19
ENDBRANCH  17  18
ENDBRANCH   1  17
TORSDOF 7
ENDMDL
MODEL 7
REMARK VINA RESULT:     -10.5      0.838      1.391
REMARK  Name = 4249
REMARK  7 active torsions:
REMARK  status: ('A' for Active; 'I' for Inactive)
REMARK    1  A    between atoms: N_1  and  C_17
REMARK    2  A    between atoms: C_2  and  C_8
REMARK    3  A    between atoms: C_2  and  O_15
REMARK    4  A    between atoms: C_17  and  C_18
REMARK    5  A    between atoms: C_18  and  C_19
REMARK    6  A    between atoms: C_19  and  C_21
REMARK    7  A    between atoms: C_21  and  C_23
REMARK                            x       y       z     vdW  Elec       q    Type
REMARK                         _______ _______ _______ _____ _____    ______ ____
ROOT
ATOM      1  N   UNL     1      35.133 -20.607 -20.418  0.00  0.00    +0.387 N 
ATOM      2  C   UNL     1      33.897 -22.675 -18.680  0.00  0.00    +0.103 C 
ATOM      3  C   UNL     1      33.096 -21.572 -19.409  0.00  0.00    +0.008 C 
ATOM      4  C   UNL     1      35.362 -22.203 -18.532  0.00  0.00    +0.008 C 
ATOM      5  C   UNL     1      33.775 -21.087 -20.695  0.00  0.00    -0.075 C 
ATOM      6  C   UNL     1      35.961 -21.669 -19.840  0.00  0.00    -0.075 C 
ATOM      7  H   UNL     1      35.065 -19.852 -19.734  0.00  0.00    -0.080 HD
ENDROOT
BRANCH   2   8
ATOM      8  C   UNL     1      33.330 -23.095 -17.324  0.00  0.00    +0.002 C 
ATOM      9  C   UNL     1      34.182 -23.590 -16.337  0.00  0.00    -0.002 C 
ATOM     10  C   UNL     1      31.963 -22.983 -17.076  0.00  0.00    -0.002 C 
ATOM     11  C   UNL     1      33.664 -23.972 -15.100  0.00  0.00    -0.005 C 
ATOM     12  C   UNL     1      31.446 -23.367 -15.838  0.00  0.00    -0.005 C 
ATOM     13  C   UNL     1      32.297 -23.861 -14.850  0.00  0.00    -0.022 C 
ATOM     14  C   UNL     1      31.744 -24.271 -13.527  0.00  0.00    +0.031 C 
ENDBRANCH   2   8
BRANCH   2  15
ATOM     15  O   UNL     1      33.856 -23.857 -19.495  0.00  0.00    -0.383 OA
ATOM     16  H   UNL     1      33.662 -24.627 -18.938  0.00  0.00    +0.211 HD
ENDBRANCH   2  15
BRANCH   1  17
ATOM     17  C   UNL     1      35.748 -20.080 -21.635  0.00  0.00    -0.077 C 
BRANCH  17  18
ATOM     18  C   UNL     1      36.896 -19.133 -21.282  0.00  0.00    -0.015 C 
BRANCH  18  19
ATOM     19  C   UNL     1      36.973 -17.933 -22.230  0.00  0.00    +0.067 C 
BRANCH  19  21
ATOM     20  O   UNL     1      35.277 -16.680 -21.058  0.00  0.00    -0.291 OA
ATOM     21  C   UNL     1      35.768 -17.009 -22.134  0.00  0.00    +0.173 C 
BRANCH  21  23
ATOM     22  F   UNL     1      33.563 -14.992 -26.851  0.00  0.00    -0.204 F 
ATOM     23  C   UNL     1      35.180 -16.470 -23.395  0.00  0.00    +0.035 C 
ATOM     24  C   UNL     1      35.148 -17.280 -24.508  0.00  0.00    +0.005 C 
ATOM     25  C   UNL     1      34.690 -15.183 -23.397  0.00  0.00    +0.005 C 
ATOM     26  C   UNL     1      34.596 -16.775 -25.686  0.00  0.00    +0.030 C 
ATOM     27  C   UNL     1      34.138 -14.679 -24.576  0.00  0.00    +0.030 C 
ATOM     28  C   UNL     1      34.092 -15.476 -25.720  0.00  0.00    +0.140 C 
ENDBRANCH  21  23
ENDBRANCH  19  21
ENDBRANCH  18  19
ENDBRANCH  17  18
ENDBRANCH   1  17
TORSDOF 7
ENDMDL
MODEL 8
REMARK VINA RESULT:     -10.2      3.655     10.033
REMARK  Name = 4249
REMARK  7 active torsions:
REMARK  status: ('A' for Active; 'I' for Inactive)
REMARK    1  A    between atoms: N_1  and  C_17
REMARK    2  A    between atoms: C_2  and  C_8
REMARK    3  A    between atoms: C_2  and  O_15
REMARK    4  A    between atoms: C_17  and  C_18
REMARK    5  A    between atoms: C_18  and  C_19
REMARK    6  A    between atoms: C_19  and  C_21
REMARK    7  A    between atoms: C_21  and  C_23
REMARK                            x       y       z     vdW  Elec       q    Type
REMARK                         _______ _______ _______ _____ _____    ______ ____
ROOT
ATOM      1  N   UNL     1      36.103 -20.026 -20.354  0.00  0.00    +0.387 N 
ATOM      2  C   UNL     1      35.635 -18.742 -22.992  0.00  0.00    +0.103 C 
ATOM      3  C   UNL     1      36.857 -18.444 -22.095  0.00  0.00    +0.008 C 
ATOM      4  C   UNL     1      34.500 -19.308 -22.107  0.00  0.00    +0.008 C 
ATOM      5  C   UNL     1      37.239 -19.621 -21.189  0.00  0.00    -0.075 C 
ATOM      6  C   UNL     1      34.962 -20.438 -21.178  0.00  0.00    -0.075 C 
ATOM      7  H   UNL     1      35.817 -19.218 -19.800  0.00  0.00    -0.080 HD
ENDROOT
BRANCH   2   8
ATOM      8  C   UNL     1      35.132 -17.555 -23.814  0.00  0.00    +0.002 C 
ATOM      9  C   UNL     1      35.233 -16.262 -23.302  0.00  0.00    -0.002 C 
ATOM     10  C   UNL     1      34.574 -17.767 -25.074  0.00  0.00    -0.002 C 
ATOM     11  C   UNL     1      34.775 -15.179 -24.053  0.00  0.00    -0.005 C 
ATOM     12  C   UNL     1      34.117 -16.684 -25.823  0.00  0.00    -0.005 C 
ATOM     13  C   UNL     1      34.218 -15.390 -25.313  0.00  0.00    -0.022 C 
ATOM     14  C   UNL     1      33.727 -14.231 -26.115  0.00  0.00    +0.031 C 
ENDBRANCH   2   8
BRANCH   2  15
ATOM     15  O   UNL     1      36.029 -19.734 -23.954  0.00  0.00    -0.383 OA
ATOM     16  H   UNL     1      35.580 -20.571 -23.758  0.00  0.00    +0.211 HD
ENDBRANCH   2  15
BRANCH   1  17
ATOM     17  C   UNL     1      36.495 -21.101 -19.443  0.00  0.00    -0.077 C 
BRANCH  17  18
ATOM     18  C   UNL     1      35.503 -22.262 -19.536  0.00  0.00    -0.015 C 
BRANCH  18  19
ATOM     19  C   UNL     1      34.938 -22.654 -18.168  0.00  0.00    +0.067 C 
BRANCH  19  21
ATOM     20  O   UNL     1      32.729 -22.425 -19.113  0.00  0.00    -0.291 OA
ATOM     21  C   UNL     1      33.417 -22.681 -18.128  0.00  0.00    +0.173 C 
BRANCH  21  23
ATOM     22  F   UNL     1      30.896 -24.069 -13.343  0.00  0.00    -0.204 F 
ATOM     23  C   UNL     1      32.744 -23.053 -16.850  0.00  0.00    +0.035 C 
ATOM     24  C   UNL     1      33.523 -23.346 -15.754  0.00  0.00    +0.005 C 
ATOM     25  C   UNL     1      31.368 -23.087 -16.814  0.00  0.00    +0.005 C 
ATOM     26  C   UNL     1      32.892 -23.693 -14.558  0.00  0.00    +0.030 C 
ATOM     27  C   UNL     1      30.737 -23.434 -15.619  0.00  0.00    +0.030 C 
ATOM     28  C   UNL     1      31.501 -23.736 -14.490  0.00  0.00    +0.140 C 
ENDBRANCH  21  23
ENDBRANCH  19  21
ENDBRANCH  18  19
ENDBRANCH  17  18
ENDBRANCH   1  17
TORSDOF 7
ENDMDL
MODEL 9
REMARK VINA RESULT:     -10.1      6.771     13.605
REMARK  Name = 4249
REMARK  7 active torsions:
REMARK  status: ('A' for Active; 'I' for Inactive)
REMARK    1  A    between atoms: N_1  and  C_17
REMARK    2  A    between atoms: C_2  and  C_8
REMARK    3  A    between atoms: C_2  and  O_15
REMARK    4  A    between atoms: C_17  and  C_18
REMARK    5  A    between atoms: C_18  and  C_19
REMARK    6  A    between atoms: C_19  and  C_21
REMARK    7  A    between atoms: C_21  and  C_23
REMARK                            x       y       z     vdW  Elec       q    Type
REMARK                         _______ _______ _______ _____ _____    ______ ____
ROOT
ATOM      1  N   UNL     1      32.366  -9.495 -21.109  0.00  0.00    +0.387 N 
ATOM      2  C   UNL     1      32.400  -7.130 -22.906  0.00  0.00    +0.103 C 
ATOM      3  C   UNL     1      31.991  -8.550 -23.359  0.00  0.00    +0.008 C 
ATOM      4  C   UNL     1      33.283  -7.252 -21.643  0.00  0.00    +0.008 C 
ATOM      5  C   UNL     1      31.415  -9.401 -22.221  0.00  0.00    -0.075 C 
ATOM      6  C   UNL     1      32.681  -8.168 -20.569  0.00  0.00    -0.075 C 
ATOM      7  H   UNL     1      33.230  -9.903 -21.468  0.00  0.00    -0.080 HD
ENDROOT
BRANCH   2   8
ATOM      8  C   UNL     1      33.103  -6.290 -23.973  0.00  0.00    +0.002 C 
ATOM      9  C   UNL     1      34.400  -6.615 -24.370  0.00  0.00    -0.002 C 
ATOM     10  C   UNL     1      32.448  -5.202 -24.547  0.00  0.00    -0.002 C 
ATOM     11  C   UNL     1      35.041  -5.848 -25.344  0.00  0.00    -0.005 C 
ATOM     12  C   UNL     1      33.090  -4.437 -25.520  0.00  0.00    -0.005 C 
ATOM     13  C   UNL     1      34.386  -4.760 -25.919  0.00  0.00    -0.022 C 
ATOM     14  C   UNL     1      35.073  -3.941 -26.959  0.00  0.00    +0.031 C 
ENDBRANCH   2   8
BRANCH   2  15
ATOM     15  O   UNL     1      31.200  -6.410 -22.583  0.00  0.00    -0.383 OA
ATOM     16  H   UNL     1      31.346  -5.881 -21.784  0.00  0.00    +0.211 HD
ENDBRANCH   2  15
BRANCH   1  17
ATOM     17  C   UNL     1      31.841 -10.365 -20.057  0.00  0.00    -0.077 C 
BRANCH  17  18
ATOM     18  C   UNL     1      31.303 -11.663 -20.663  0.00  0.00    -0.015 C 
BRANCH  18  19
ATOM     19  C   UNL     1      32.347 -12.783 -20.657  0.00  0.00    +0.067 C 
BRANCH  19  21
ATOM     20  O   UNL     1      32.952 -12.143 -22.904  0.00  0.00    -0.291 OA
ATOM     21  C   UNL     1      33.045 -12.965 -21.996  0.00  0.00    +0.173 C 
BRANCH  21  23
ATOM     22  F   UNL     1      36.201 -17.507 -22.766  0.00  0.00    -0.204 F 
ATOM     23  C   UNL     1      33.889 -14.178 -22.202  0.00  0.00    +0.035 C 
ATOM     24  C   UNL     1      34.292 -14.897 -21.099  0.00  0.00    +0.005 C 
ATOM     25  C   UNL     1      34.233 -14.533 -23.487  0.00  0.00    +0.005 C 
ATOM     26  C   UNL     1      35.081 -16.032 -21.292  0.00  0.00    +0.030 C 
ATOM     27  C   UNL     1      35.021 -15.668 -23.680  0.00  0.00    +0.030 C 
ATOM     28  C   UNL     1      35.445 -16.418 -22.581  0.00  0.00    +0.140 C 
ENDBRANCH  21  23
ENDBRANCH  19  21
ENDBRANCH  18  19
ENDBRANCH  17  18
ENDBRANCH   1  17
TORSDOF 7
ENDMDL
