MODEL 1
REMARK VINA RESULT:     -10.6      0.000      0.000
REMARK  Name = 151194
REMARK  3 active torsions:
REMARK  status: ('A' for Active; 'I' for Inactive)
REMARK    1  A    between atoms: N_1  and  C_14
REMARK    2  A    between atoms: C_6  and  C_20
REMARK    3  A    between atoms: C_20  and  C_22
REMARK                            x       y       z     vdW  Elec       q    Type
REMARK                         _______ _______ _______ _____ _____    ______ ____
ROOT
ATOM      1  N   UNL     1      35.316 -19.400 -22.176  0.00  0.00    -0.297 N 
ATOM      2  N   UNL     1      35.283 -15.913 -21.233  0.00  0.00    -0.151 NA
ATOM      3  N   UNL     1      35.379 -17.267 -21.171  0.00  0.00    -0.133 NA
ATOM      4  C   UNL     1      34.831 -16.030 -23.600  0.00  0.00    +0.018 A 
ATOM      5  C   UNL     1      34.930 -17.428 -23.536  0.00  0.00    +0.035 A 
ATOM      6  C   UNL     1      35.017 -15.322 -22.418  0.00  0.00    +0.085 A 
ATOM      7  C   UNL     1      35.206 -17.994 -22.297  0.00  0.00    +0.154 A 
ATOM      8  C   UNL     1      34.554 -15.408 -24.829  0.00  0.00    +0.001 C 
ATOM      9  C   UNL     1      34.751 -18.191 -24.703  0.00  0.00    +0.003 C 
ATOM     10  C   UNL     1      34.378 -16.175 -25.982  0.00  0.00    +0.000 C 
ATOM     11  C   UNL     1      34.476 -17.564 -25.919  0.00  0.00    +0.000 C 
ATOM     12  H   UNL     1      35.646 -19.843 -22.991  0.00  0.00    +0.154 HD
ENDROOT
BRANCH   1  14
ATOM     13 CL   UNL     1      34.180 -23.135 -17.724  0.00  0.00    -0.082 Cl
ATOM     14  C   UNL     1      35.047 -20.286 -21.120  0.00  0.00    +0.049 C 
ATOM     15  C   UNL     1      33.727 -20.556 -20.748  0.00  0.00    +0.016 C 
ATOM     16  C   UNL     1      36.097 -20.902 -20.435  0.00  0.00    +0.016 C 
ATOM     17  C   UNL     1      33.459 -21.436 -19.699  0.00  0.00    +0.013 C 
ATOM     18  C   UNL     1      35.830 -21.783 -19.385  0.00  0.00    +0.013 C 
ATOM     19  C   UNL     1      34.511 -22.049 -19.018  0.00  0.00    +0.058 C 
ENDBRANCH   1  14
BRANCH   6  20
ATOM     20  C   UNL     1      34.935 -13.831 -22.372  0.00  0.00    +0.074 C 
BRANCH  20  22
ATOM     21  N   UNL     1      31.248 -12.344 -20.768  0.00  0.00    -0.242 NA
ATOM     22  C   UNL     1      33.632 -13.306 -21.806  0.00  0.00    -0.013 C 
ATOM     23  C   UNL     1      33.241 -13.695 -20.542  0.00  0.00    +0.017 C 
ATOM     24  C   UNL     1      32.863 -12.449 -22.565  0.00  0.00    +0.017 C 
ATOM     25  C   UNL     1      32.042 -13.187 -20.069  0.00  0.00    +0.099 C 
ATOM     26  C   UNL     1      31.681 -11.997 -22.002  0.00  0.00    +0.099 C 
ENDBRANCH  20  22
ENDBRANCH   6  20
TORSDOF 3
ENDMDL
MODEL 2
REMARK VINA RESULT:     -10.6      5.367      9.767
REMARK  Name = 151194
REMARK  3 active torsions:
REMARK  status: ('A' for Active; 'I' for Inactive)
REMARK    1  A    between atoms: N_1  and  C_14
REMARK    2  A    between atoms: C_6  and  C_20
REMARK    3  A    between atoms: C_20  and  C_22
REMARK                            x       y       z     vdW  Elec       q    Type
REMARK                         _______ _______ _______ _____ _____    ______ ____
ROOT
ATOM      1  N   UNL     1      35.466 -22.409 -18.545  0.00  0.00    -0.297 N 
ATOM      2  N   UNL     1      32.231 -23.104 -17.095  0.00  0.00    -0.151 NA
ATOM      3  N   UNL     1      33.200 -22.726 -17.968  0.00  0.00    -0.133 NA
ATOM      4  C   UNL     1      33.901 -23.669 -15.449  0.00  0.00    +0.018 A 
ATOM      5  C   UNL     1      34.903 -23.279 -16.351  0.00  0.00    +0.035 A 
ATOM      6  C   UNL     1      32.582 -23.561 -15.873  0.00  0.00    +0.085 A 
ATOM      7  C   UNL     1      34.496 -22.816 -17.596  0.00  0.00    +0.154 A 
ATOM      8  C   UNL     1      34.259 -24.146 -14.176  0.00  0.00    +0.001 C 
ATOM      9  C   UNL     1      36.253 -23.369 -15.971  0.00  0.00    +0.003 C 
ATOM     10  C   UNL     1      35.603 -24.231 -13.809  0.00  0.00    +0.000 C 
ATOM     11  C   UNL     1      36.598 -23.843 -14.706  0.00  0.00    +0.000 C 
ATOM     12  H   UNL     1      36.322 -22.887 -18.466  0.00  0.00    +0.154 HD
ENDROOT
BRANCH   1  14
ATOM     13 CL   UNL     1      35.366 -18.389 -22.891  0.00  0.00    -0.082 Cl
ATOM     14  C   UNL     1      35.443 -21.456 -19.576  0.00  0.00    +0.049 C 
ATOM     15  C   UNL     1      34.230 -21.086 -20.165  0.00  0.00    +0.016 C 
ATOM     16  C   UNL     1      36.632 -20.871 -20.020  0.00  0.00    +0.016 C 
ATOM     17  C   UNL     1      34.206 -20.139 -21.189  0.00  0.00    +0.013 C 
ATOM     18  C   UNL     1      36.609 -19.923 -21.044  0.00  0.00    +0.013 C 
ATOM     19  C   UNL     1      35.396 -19.558 -21.628  0.00  0.00    +0.058 C 
ENDBRANCH   1  14
BRANCH   6  20
ATOM     20  C   UNL     1      31.437 -23.949 -14.994  0.00  0.00    +0.074 C 
BRANCH  20  22
ATOM     21  N   UNL     1      27.592 -23.324 -16.780  0.00  0.00    -0.242 NA
ATOM     22  C   UNL     1      30.079 -23.728 -15.625  0.00  0.00    -0.013 C 
ATOM     23  C   UNL     1      29.394 -22.561 -15.360  0.00  0.00    +0.017 C 
ATOM     24  C   UNL     1      29.553 -24.699 -16.452  0.00  0.00    +0.017 C 
ATOM     25  C   UNL     1      28.156 -22.407 -15.962  0.00  0.00    +0.099 C 
ATOM     26  C   UNL     1      28.308 -24.449 -17.005  0.00  0.00    +0.099 C 
ENDBRANCH  20  22
ENDBRANCH   6  20
TORSDOF 3
ENDMDL
MODEL 3
REMARK VINA RESULT:      -9.8      6.089     11.027
REMARK  Name = 151194
REMARK  3 active torsions:
REMARK  status: ('A' for Active; 'I' for Inactive)
REMARK    1  A    between atoms: N_1  and  C_14
REMARK    2  A    between atoms: C_6  and  C_20
REMARK    3  A    between atoms: C_20  and  C_22
REMARK                            x       y       z     vdW  Elec       q    Type
REMARK                         _______ _______ _______ _____ _____    ______ ____
ROOT
ATOM      1  N   UNL     1      33.440  -7.464 -22.510  0.00  0.00    -0.297 N 
ATOM      2  N   UNL     1      32.955 -10.851 -23.671  0.00  0.00    -0.151 NA
ATOM      3  N   UNL     1      33.306  -9.539 -23.625  0.00  0.00    -0.133 NA
ATOM      4  C   UNL     1      32.084 -10.721 -21.425  0.00  0.00    +0.018 A 
ATOM      5  C   UNL     1      32.446  -9.366 -21.377  0.00  0.00    +0.035 A 
ATOM      6  C   UNL     1      32.362 -11.416 -22.597  0.00  0.00    +0.085 A 
ATOM      7  C   UNL     1      33.054  -8.827 -22.505  0.00  0.00    +0.154 A 
ATOM      8  C   UNL     1      31.466 -11.316 -20.312  0.00  0.00    +0.001 C 
ATOM      9  C   UNL     1      32.187  -8.620 -20.216  0.00  0.00    +0.003 C 
ATOM     10  C   UNL     1      31.214 -10.565 -19.163  0.00  0.00    +0.000 C 
ATOM     11  C   UNL     1      31.574  -9.218 -19.115  0.00  0.00    +0.000 C 
ATOM     12  H   UNL     1      33.681  -7.118 -21.621  0.00  0.00    +0.154 HD
ENDROOT
BRANCH   1  14
ATOM     13 CL   UNL     1      33.884  -3.452 -26.841  0.00  0.00    -0.082 Cl
ATOM     14  C   UNL     1      33.545  -6.512 -23.537  0.00  0.00    +0.049 C 
ATOM     15  C   UNL     1      34.677  -6.484 -24.356  0.00  0.00    +0.016 C 
ATOM     16  C   UNL     1      32.519  -5.587 -23.745  0.00  0.00    +0.016 C 
ATOM     17  C   UNL     1      34.782  -5.539 -25.376  0.00  0.00    +0.013 C 
ATOM     18  C   UNL     1      32.623  -4.641 -24.767  0.00  0.00    +0.013 C 
ATOM     19  C   UNL     1      33.755  -4.618 -25.582  0.00  0.00    +0.058 C 
ENDBRANCH   1  14
BRANCH   6  20
ATOM     20  C   UNL     1      32.020 -12.862 -22.756  0.00  0.00    +0.074 C 
BRANCH  20  22
ATOM     21  N   UNL     1      35.270 -15.520 -21.893  0.00  0.00    -0.242 NA
ATOM     22  C   UNL     1      33.169 -13.800 -22.451  0.00  0.00    -0.013 C 
ATOM     23  C   UNL     1      33.445 -14.124 -21.140  0.00  0.00    +0.017 C 
ATOM     24  C   UNL     1      33.915 -14.314 -23.492  0.00  0.00    +0.017 C 
ATOM     25  C   UNL     1      34.505 -14.987 -20.914  0.00  0.00    +0.099 C 
ATOM     26  C   UNL     1      34.953 -15.169 -23.160  0.00  0.00    +0.099 C 
ENDBRANCH  20  22
ENDBRANCH   6  20
TORSDOF 3
ENDMDL
MODEL 4
REMARK VINA RESULT:      -9.8      4.764      9.065
REMARK  Name = 151194
REMARK  3 active torsions:
REMARK  status: ('A' for Active; 'I' for Inactive)
REMARK    1  A    between atoms: N_1  and  C_14
REMARK    2  A    between atoms: C_6  and  C_20
REMARK    3  A    between atoms: C_20  and  C_22
REMARK                            x       y       z     vdW  Elec       q    Type
REMARK                         _______ _______ _______ _____ _____    ______ ____
ROOT
ATOM      1  N   UNL     1      36.363 -21.304 -19.627  0.00  0.00    -0.297 N 
ATOM      2  N   UNL     1      33.461 -23.205 -18.616  0.00  0.00    -0.151 NA
ATOM      3  N   UNL     1      34.323 -22.458 -19.355  0.00  0.00    -0.133 NA
ATOM      4  C   UNL     1      35.002 -23.188 -16.760  0.00  0.00    +0.018 A 
ATOM      5  C   UNL     1      35.892 -22.417 -17.523  0.00  0.00    +0.035 A 
ATOM      6  C   UNL     1      33.801 -23.554 -17.356  0.00  0.00    +0.085 A 
ATOM      7  C   UNL     1      35.502 -22.081 -18.814  0.00  0.00    +0.154 A 
ATOM      8  C   UNL     1      35.348 -23.554 -15.448  0.00  0.00    +0.001 C 
ATOM      9  C   UNL     1      37.120 -22.020 -16.967  0.00  0.00    +0.003 C 
ATOM     10  C   UNL     1      36.570 -23.155 -14.906  0.00  0.00    +0.000 C 
ATOM     11  C   UNL     1      37.455 -22.389 -15.664  0.00  0.00    +0.000 C 
ATOM     12  H   UNL     1      37.318 -21.437 -19.433  0.00  0.00    +0.154 HD
ENDROOT
BRANCH   1  14
ATOM     13 CL   UNL     1      35.326 -17.415 -23.970  0.00  0.00    -0.082 Cl
ATOM     14  C   UNL     1      36.117 -20.382 -20.658  0.00  0.00    +0.049 C 
ATOM     15  C   UNL     1      34.870 -20.345 -21.286  0.00  0.00    +0.016 C 
ATOM     16  C   UNL     1      37.120 -19.495 -21.061  0.00  0.00    +0.016 C 
ATOM     17  C   UNL     1      34.625 -19.429 -22.309  0.00  0.00    +0.013 C 
ATOM     18  C   UNL     1      36.876 -18.578 -22.085  0.00  0.00    +0.013 C 
ATOM     19  C   UNL     1      35.628 -18.546 -22.708  0.00  0.00    +0.058 C 
ENDBRANCH   1  14
BRANCH   6  20
ATOM     20  C   UNL     1      32.781 -24.374 -16.635  0.00  0.00    +0.074 C 
BRANCH  20  22
ATOM     21  N   UNL     1      29.342 -22.151 -15.370  0.00  0.00    -0.242 NA
ATOM     22  C   UNL     1      31.567 -23.588 -16.188  0.00  0.00    -0.013 C 
ATOM     23  C   UNL     1      30.455 -23.546 -17.002  0.00  0.00    +0.017 C 
ATOM     24  C   UNL     1      31.597 -22.931 -14.976  0.00  0.00    +0.017 C 
ATOM     25  C   UNL     1      29.369 -22.814 -16.548  0.00  0.00    +0.099 C 
ATOM     26  C   UNL     1      30.461 -22.227 -14.613  0.00  0.00    +0.099 C 
ENDBRANCH  20  22
ENDBRANCH   6  20
TORSDOF 3
ENDMDL
MODEL 5
REMARK VINA RESULT:      -9.5      3.301      7.437
REMARK  Name = 151194
REMARK  3 active torsions:
REMARK  status: ('A' for Active; 'I' for Inactive)
REMARK    1  A    between atoms: N_1  and  C_14
REMARK    2  A    between atoms: C_6  and  C_20
REMARK    3  A    between atoms: C_20  and  C_22
REMARK                            x       y       z     vdW  Elec       q    Type
REMARK                         _______ _______ _______ _____ _____    ______ ____
ROOT
ATOM      1  N   UNL     1      32.660 -13.386 -22.670  0.00  0.00    -0.297 N 
ATOM      2  N   UNL     1      35.076 -15.721 -21.342  0.00  0.00    -0.151 NA
ATOM      3  N   UNL     1      34.142 -14.738 -21.428  0.00  0.00    -0.133 NA
ATOM      4  C   UNL     1      34.974 -16.060 -23.728  0.00  0.00    +0.018 A 
ATOM      5  C   UNL     1      34.009 -15.045 -23.817  0.00  0.00    +0.035 A 
ATOM      6  C   UNL     1      35.473 -16.358 -22.465  0.00  0.00    +0.085 A 
ATOM      7  C   UNL     1      33.630 -14.418 -22.636  0.00  0.00    +0.154 A 
ATOM      8  C   UNL     1      35.393 -16.726 -24.892  0.00  0.00    +0.001 C 
ATOM      9  C   UNL     1      33.473 -14.706 -25.071  0.00  0.00    +0.003 C 
ATOM     10  C   UNL     1      34.853 -16.381 -26.132  0.00  0.00    +0.000 C 
ATOM     11  C   UNL     1      33.894 -15.373 -26.221  0.00  0.00    +0.000 C 
ATOM     12  H   UNL     1      32.002 -13.485 -23.395  0.00  0.00    +0.154 HD
ENDROOT
BRANCH   1  14
ATOM     13 CL   UNL     1      31.797  -8.601 -19.292  0.00  0.00    -0.082 Cl
ATOM     14  C   UNL     1      32.455 -12.251 -21.869  0.00  0.00    +0.049 C 
ATOM     15  C   UNL     1      32.277 -12.387 -20.490  0.00  0.00    +0.016 C 
ATOM     16  C   UNL     1      32.427 -10.979 -22.447  0.00  0.00    +0.016 C 
ATOM     17  C   UNL     1      32.074 -11.260 -19.693  0.00  0.00    +0.013 C 
ATOM     18  C   UNL     1      32.224  -9.850 -21.651  0.00  0.00    +0.013 C 
ATOM     19  C   UNL     1      32.047  -9.991 -20.274  0.00  0.00    +0.058 C 
ENDBRANCH   1  14
BRANCH   6  20
ATOM     20  C   UNL     1      36.502 -17.420 -22.254  0.00  0.00    +0.074 C 
BRANCH  20  22
ATOM     21  N   UNL     1      34.963 -20.998 -20.465  0.00  0.00    -0.242 NA
ATOM     22  C   UNL     1      35.959 -18.684 -21.622  0.00  0.00    -0.013 C 
ATOM     23  C   UNL     1      34.623 -18.991 -21.771  0.00  0.00    +0.017 C 
ATOM     24  C   UNL     1      36.811 -19.502 -20.909  0.00  0.00    +0.017 C 
ATOM     25  C   UNL     1      34.175 -20.158 -21.174  0.00  0.00    +0.099 C 
ATOM     26  C   UNL     1      36.264 -20.646 -20.351  0.00  0.00    +0.099 C 
ENDBRANCH  20  22
ENDBRANCH   6  20
TORSDOF 3
ENDMDL
MODEL 6
REMARK VINA RESULT:      -9.5      1.264      1.769
REMARK  Name = 151194
REMARK  3 active torsions:
REMARK  status: ('A' for Active; 'I' for Inactive)
REMARK    1  A    between atoms: N_1  and  C_14
REMARK    2  A    between atoms: C_6  and  C_20
REMARK    3  A    between atoms: C_20  and  C_22
REMARK                            x       y       z     vdW  Elec       q    Type
REMARK                         _______ _______ _______ _____ _____    ______ ____
ROOT
ATOM      1  N   UNL     1      35.590 -17.809 -23.227  0.00  0.00    -0.297 N 
ATOM      2  N   UNL     1      35.018 -14.467 -21.979  0.00  0.00    -0.151 NA
ATOM      3  N   UNL     1      35.386 -15.773 -22.052  0.00  0.00    -0.133 NA
ATOM      4  C   UNL     1      34.240 -14.533 -24.261  0.00  0.00    +0.018 A 
ATOM      5  C   UNL     1      34.621 -15.882 -24.338  0.00  0.00    +0.035 A 
ATOM      6  C   UNL     1      34.462 -13.874 -23.058  0.00  0.00    +0.085 A 
ATOM      7  C   UNL     1      35.188 -16.451 -23.204  0.00  0.00    +0.154 A 
ATOM      8  C   UNL     1      33.661 -13.909 -25.379  0.00  0.00    +0.001 C 
ATOM      9  C   UNL     1      34.418 -16.593 -25.532  0.00  0.00    +0.003 C 
ATOM     10  C   UNL     1      33.464 -14.626 -26.561  0.00  0.00    +0.000 C 
ATOM     11  C   UNL     1      33.842 -15.966 -26.637  0.00  0.00    +0.000 C 
ATOM     12  H   UNL     1      35.872 -18.123 -24.116  0.00  0.00    +0.154 HD
ENDROOT
BRANCH   1  14
ATOM     13 CL   UNL     1      35.907 -21.958 -19.015  0.00  0.00    -0.082 Cl
ATOM     14  C   UNL     1      35.665 -18.792 -22.227  0.00  0.00    +0.049 C 
ATOM     15  C   UNL     1      34.529 -19.526 -21.876  0.00  0.00    +0.016 C 
ATOM     16  C   UNL     1      36.877 -19.044 -21.578  0.00  0.00    +0.016 C 
ATOM     17  C   UNL     1      34.603 -20.503 -20.884  0.00  0.00    +0.013 C 
ATOM     18  C   UNL     1      36.953 -20.022 -20.586  0.00  0.00    +0.013 C 
ATOM     19  C   UNL     1      35.816 -20.751 -20.239  0.00  0.00    +0.058 C 
ENDBRANCH   1  14
BRANCH   6  20
ATOM     20  C   UNL     1      34.096 -12.438 -22.866  0.00  0.00    +0.074 C 
BRANCH  20  22
ATOM     21  N   UNL     1      30.790 -11.828 -20.208  0.00  0.00    -0.242 NA
ATOM     22  C   UNL     1      32.928 -12.223 -21.927  0.00  0.00    -0.013 C 
ATOM     23  C   UNL     1      32.870 -12.935 -20.749  0.00  0.00    +0.017 C 
ATOM     24  C   UNL     1      31.945 -11.317 -22.270  0.00  0.00    +0.017 C 
ATOM     25  C   UNL     1      31.781 -12.702 -19.924  0.00  0.00    +0.099 C 
ATOM     26  C   UNL     1      30.898 -11.157 -21.377  0.00  0.00    +0.099 C 
ENDBRANCH  20  22
ENDBRANCH   6  20
TORSDOF 3
ENDMDL
MODEL 7
REMARK VINA RESULT:      -9.2      5.405      8.573
REMARK  Name = 151194
REMARK  3 active torsions:
REMARK  status: ('A' for Active; 'I' for Inactive)
REMARK    1  A    between atoms: N_1  and  C_14
REMARK    2  A    between atoms: C_6  and  C_20
REMARK    3  A    between atoms: C_20  and  C_22
REMARK                            x       y       z     vdW  Elec       q    Type
REMARK                         _______ _______ _______ _____ _____    ______ ____
ROOT
ATOM      1  N   UNL     1      32.959 -11.914 -23.272  0.00  0.00    -0.297 N 
ATOM      2  N   UNL     1      34.845  -9.027 -24.350  0.00  0.00    -0.151 NA
ATOM      3  N   UNL     1      34.338 -10.286 -24.279  0.00  0.00    -0.133 NA
ATOM      4  C   UNL     1      33.554  -8.373 -22.420  0.00  0.00    +0.018 A 
ATOM      5  C   UNL     1      33.030  -9.673 -22.347  0.00  0.00    +0.035 A 
ATOM      6  C   UNL     1      34.457  -8.105 -23.442  0.00  0.00    +0.085 A 
ATOM      7  C   UNL     1      33.456 -10.589 -23.301  0.00  0.00    +0.154 A 
ATOM      8  C   UNL     1      33.156  -7.408 -21.479  0.00  0.00    +0.001 C 
ATOM      9  C   UNL     1      32.113  -9.995 -21.332  0.00  0.00    +0.003 C 
ATOM     10  C   UNL     1      32.244  -7.739 -20.476  0.00  0.00    +0.000 C 
ATOM     11  C   UNL     1      31.723  -9.031 -20.402  0.00  0.00    +0.000 C 
ATOM     12  H   UNL     1      32.048 -11.988 -22.909  0.00  0.00    +0.154 HD
ENDROOT
BRANCH   1  14
ATOM     13 CL   UNL     1      35.297 -17.100 -24.918  0.00  0.00    -0.082 Cl
ATOM     14  C   UNL     1      33.514 -13.144 -23.663  0.00  0.00    +0.049 C 
ATOM     15  C   UNL     1      34.331 -13.858 -22.783  0.00  0.00    +0.016 C 
ATOM     16  C   UNL     1      33.252 -13.660 -24.935  0.00  0.00    +0.016 C 
ATOM     17  C   UNL     1      34.882 -15.080 -23.170  0.00  0.00    +0.013 C 
ATOM     18  C   UNL     1      33.803 -14.883 -25.323  0.00  0.00    +0.013 C 
ATOM     19  C   UNL     1      34.617 -15.592 -24.441  0.00  0.00    +0.058 C 
ENDBRANCH   1  14
BRANCH   6  20
ATOM     20  C   UNL     1      35.076  -6.756 -23.614  0.00  0.00    +0.074 C 
BRANCH  20  22
ATOM     21  N   UNL     1      33.212  -4.365 -26.644  0.00  0.00    -0.242 NA
ATOM     22  C   UNL     1      34.417  -5.912 -24.685  0.00  0.00    -0.013 C 
ATOM     23  C   UNL     1      33.197  -5.325 -24.425  0.00  0.00    +0.017 C 
ATOM     24  C   UNL     1      35.052  -5.745 -25.898  0.00  0.00    +0.017 C 
ATOM     25  C   UNL     1      32.636  -4.562 -25.437  0.00  0.00    +0.099 C 
ATOM     26  C   UNL     1      34.408  -4.964 -26.844  0.00  0.00    +0.099 C 
ENDBRANCH  20  22
ENDBRANCH   6  20
TORSDOF 3
ENDMDL
MODEL 8
REMARK VINA RESULT:      -9.2      5.411      8.563
REMARK  Name = 151194
REMARK  3 active torsions:
REMARK  status: ('A' for Active; 'I' for Inactive)
REMARK    1  A    between atoms: N_1  and  C_14
REMARK    2  A    between atoms: C_6  and  C_20
REMARK    3  A    between atoms: C_20  and  C_22
REMARK                            x       y       z     vdW  Elec       q    Type
REMARK                         _______ _______ _______ _____ _____    ______ ____
ROOT
ATOM      1  N   UNL     1      32.958 -11.911 -23.289  0.00  0.00    -0.297 N 
ATOM      2  N   UNL     1      34.844  -9.028 -24.377  0.00  0.00    -0.151 NA
ATOM      3  N   UNL     1      34.336 -10.286 -24.302  0.00  0.00    -0.133 NA
ATOM      4  C   UNL     1      33.557  -8.368 -22.447  0.00  0.00    +0.018 A 
ATOM      5  C   UNL     1      33.032  -9.667 -22.369  0.00  0.00    +0.035 A 
ATOM      6  C   UNL     1      34.459  -8.103 -23.471  0.00  0.00    +0.085 A 
ATOM      7  C   UNL     1      33.456 -10.586 -23.322  0.00  0.00    +0.154 A 
ATOM      8  C   UNL     1      33.161  -7.401 -21.507  0.00  0.00    +0.001 C 
ATOM      9  C   UNL     1      32.116  -9.986 -21.352  0.00  0.00    +0.003 C 
ATOM     10  C   UNL     1      32.251  -7.729 -20.502  0.00  0.00    +0.000 C 
ATOM     11  C   UNL     1      31.729  -9.019 -20.424  0.00  0.00    +0.000 C 
ATOM     12  H   UNL     1      32.047 -11.983 -22.924  0.00  0.00    +0.154 HD
ENDROOT
BRANCH   1  14
ATOM     13 CL   UNL     1      35.292 -17.100 -24.929  0.00  0.00    -0.082 Cl
ATOM     14  C   UNL     1      33.511 -13.142 -23.678  0.00  0.00    +0.049 C 
ATOM     15  C   UNL     1      33.266 -13.651 -24.956  0.00  0.00    +0.016 C 
ATOM     16  C   UNL     1      34.310 -13.866 -22.788  0.00  0.00    +0.016 C 
ATOM     17  C   UNL     1      33.816 -14.873 -25.343  0.00  0.00    +0.013 C 
ATOM     18  C   UNL     1      34.861 -15.089 -23.175  0.00  0.00    +0.013 C 
ATOM     19  C   UNL     1      34.613 -15.592 -24.452  0.00  0.00    +0.058 C 
ENDBRANCH   1  14
BRANCH   6  20
ATOM     20  C   UNL     1      35.078  -6.755 -23.647  0.00  0.00    +0.074 C 
BRANCH  20  22
ATOM     21  N   UNL     1      33.175  -4.352 -26.643  0.00  0.00    -0.242 NA
ATOM     22  C   UNL     1      34.406  -5.906 -24.705  0.00  0.00    -0.013 C 
ATOM     23  C   UNL     1      35.015  -5.751 -25.932  0.00  0.00    +0.017 C 
ATOM     24  C   UNL     1      33.197  -5.305 -24.420  0.00  0.00    +0.017 C 
ATOM     25  C   UNL     1      34.359  -4.965 -26.866  0.00  0.00    +0.099 C 
ATOM     26  C   UNL     1      32.624  -4.538 -25.422  0.00  0.00    +0.099 C 
ENDBRANCH  20  22
ENDBRANCH   6  20
TORSDOF 3
ENDMDL
MODEL 9
REMARK VINA RESULT:      -9.2      6.399     11.256
REMARK  Name = 151194
REMARK  3 active torsions:
REMARK  status: ('A' for Active; 'I' for Inactive)
REMARK    1  A    between atoms: N_1  and  C_14
REMARK    2  A    between atoms: C_6  and  C_20
REMARK    3  A    between atoms: C_20  and  C_22
REMARK                            x       y       z     vdW  Elec       q    Type
REMARK                         _______ _______ _______ _____ _____    ______ ____
ROOT
ATOM      1  N   UNL     1      33.884  -7.126 -23.078  0.00  0.00    -0.297 N 
ATOM      2  N   UNL     1      32.991 -10.527 -23.906  0.00  0.00    -0.151 NA
ATOM      3  N   UNL     1      33.457  -9.254 -24.002  0.00  0.00    -0.133 NA
ATOM      4  C   UNL     1      32.371 -10.153 -21.605  0.00  0.00    +0.018 A 
ATOM      5  C   UNL     1      32.852  -8.838 -21.704  0.00  0.00    +0.035 A 
ATOM      6  C   UNL     1      32.465 -10.954 -22.737  0.00  0.00    +0.085 A 
ATOM      7  C   UNL     1      33.385  -8.442 -22.924  0.00  0.00    +0.154 A 
ATOM      8  C   UNL     1      31.823 -10.604 -20.393  0.00  0.00    +0.001 C 
ATOM      9  C   UNL     1      32.780  -7.987 -20.587  0.00  0.00    +0.003 C 
ATOM     10  C   UNL     1      31.756  -9.750 -19.291  0.00  0.00    +0.000 C 
ATOM     11  C   UNL     1      32.234  -8.444 -19.388  0.00  0.00    +0.000 C 
ATOM     12  H   UNL     1      34.245  -6.740 -22.248  0.00  0.00    +0.154 HD
ENDROOT
BRANCH   1  14
ATOM     13 CL   UNL     1      34.224  -3.495 -27.743  0.00  0.00    -0.082 Cl
ATOM     14  C   UNL     1      33.965  -6.265 -24.185  0.00  0.00    +0.049 C 
ATOM     15  C   UNL     1      32.826  -5.595 -24.640  0.00  0.00    +0.016 C 
ATOM     16  C   UNL     1      35.185  -6.074 -24.839  0.00  0.00    +0.016 C 
ATOM     17  C   UNL     1      32.905  -4.739 -25.738  0.00  0.00    +0.013 C 
ATOM     18  C   UNL     1      35.266  -5.218 -25.938  0.00  0.00    +0.013 C 
ATOM     19  C   UNL     1      34.126  -4.551 -26.388  0.00  0.00    +0.058 C 
ENDBRANCH   1  14
BRANCH   6  20
ATOM     20  C   UNL     1      31.985 -12.369 -22.744  0.00  0.00    +0.074 C 
BRANCH  20  22
ATOM     21  N   UNL     1      35.045 -15.243 -21.881  0.00  0.00    -0.242 NA
ATOM     22  C   UNL     1      33.065 -13.384 -22.440  0.00  0.00    -0.013 C 
ATOM     23  C   UNL     1      33.857 -13.855 -23.465  0.00  0.00    +0.017 C 
ATOM     24  C   UNL     1      33.236 -13.818 -21.141  0.00  0.00    +0.017 C 
ATOM     25  C   UNL     1      34.832 -14.782 -23.134  0.00  0.00    +0.099 C 
ATOM     26  C   UNL     1      34.239 -14.748 -20.915  0.00  0.00    +0.099 C 
ENDBRANCH  20  22
ENDBRANCH   6  20
TORSDOF 3
ENDMDL
