MODEL 1
REMARK VINA RESULT:     -12.5      0.000      0.000
REMARK  Name = 51049992
REMARK  10 active torsions:
REMARK  status: ('A' for Active; 'I' for Inactive)
REMARK    1  A    between atoms: C_1  and  C_7
REMARK    2  A    between atoms: C_6  and  C_23
REMARK    3  A    between atoms: C_7  and  N_8
REMARK    4  A    between atoms: C_23  and  O_24
REMARK    5  A    between atoms: O_24  and  C_25
REMARK    6  A    between atoms: C_26  and  C_31
REMARK    7  A    between atoms: C_31  and  C_32
REMARK    8  A    between atoms: C_31  and  C_35
REMARK    9  A    between atoms: C_35  and  C_37
REMARK   10  A    between atoms: C_37  and  O_38
REMARK                            x       y       z     vdW  Elec       q    Type
REMARK                         _______ _______ _______ _____ _____    ______ ____
ROOT
ATOM      1  C   UNL     1      34.161 -13.616 -23.848  0.00  0.00    -0.043 C 
ATOM      2  C   UNL     1      34.272 -12.371 -24.468  0.00  0.00    -0.007 C 
ATOM      3  C   UNL     1      33.303 -13.778 -22.759  0.00  0.00    -0.007 C 
ATOM      4  C   UNL     1      33.526 -11.289 -24.000  0.00  0.00    -0.001 C 
ATOM      5  C   UNL     1      32.558 -12.696 -22.291  0.00  0.00    -0.001 C 
ATOM      6  C   UNL     1      32.669 -11.452 -22.911  0.00  0.00    +0.021 C 
ENDROOT
BRANCH   1   7
ATOM      7  C   UNL     1      34.966 -14.782 -24.354  0.00  0.00    -0.050 C 
BRANCH   7   8
ATOM      8  N   UNL     1      34.716 -15.995 -23.574  0.00  0.00    +0.390 N 
ATOM      9  C   UNL     1      35.451 -18.390 -22.021  0.00  0.00    +0.033 C 
ATOM     10  C   UNL     1      34.948 -17.091 -21.366  0.00  0.00    -0.015 C 
ATOM     11  C   UNL     1      34.975 -18.456 -23.484  0.00  0.00    -0.015 C 
ATOM     12  C   UNL     1      35.282 -17.168 -24.254  0.00  0.00    -0.076 C 
ATOM     13  C   UNL     1      35.257 -15.854 -22.216  0.00  0.00    -0.076 C 
ATOM     14  C   UNL     1      35.030 -19.616 -21.237  0.00  0.00    -0.019 C 
ATOM     15  C   UNL     1      36.970 -18.521 -21.919  0.00  0.00    -0.023 C 
ATOM     16  C   UNL     1      36.168 -20.300 -20.783  0.00  0.00    -0.004 C 
ATOM     17  C   UNL     1      37.359 -19.599 -21.220  0.00  0.00    -0.005 C 
ATOM     18  C   UNL     1      33.759 -20.085 -20.949  0.00  0.00    -0.004 C 
ATOM     19  C   UNL     1      36.059 -21.461 -20.036  0.00  0.00    -0.000 C 
ATOM     20  C   UNL     1      33.639 -21.256 -20.195  0.00  0.00    -0.000 C 
ATOM     21  C   UNL     1      34.779 -21.938 -19.743  0.00  0.00    -0.000 C 
ATOM     22  H   UNL     1      33.709 -16.134 -23.497  0.00  0.00    -0.079 HD
ENDBRANCH   7   8
ENDBRANCH   1   7
BRANCH   6  23
ATOM     23  C   UNL     1      31.869 -10.297 -22.412  0.00  0.00    +0.232 C 
BRANCH  23  24
ATOM     24  O   UNL     1      32.744  -9.319 -21.861  0.00  0.00    -0.471 OA
BRANCH  24  25
ATOM     25  C   UNL     1      32.714  -8.073 -22.430  0.00  0.00    +0.139 C 
ATOM     26  C   UNL     1      32.652  -5.538 -23.592  0.00  0.00    -0.010 C 
ATOM     27  C   UNL     1      31.534  -7.329 -22.420  0.00  0.00    +0.037 C 
ATOM     28  C   UNL     1      33.863  -7.549 -23.022  0.00  0.00    +0.037 C 
ATOM     29  C   UNL     1      31.503  -6.061 -23.001  0.00  0.00    -0.000 C 
ATOM     30  C   UNL     1      33.832  -6.281 -23.603  0.00  0.00    -0.000 C 
BRANCH  26  31
ATOM     31  C   UNL     1      32.620  -4.182 -24.213  0.00  0.00    +0.097 C 
BRANCH  31  32
ATOM     32  C   UNL     1      33.153  -4.201 -25.603  0.00  0.00    -0.087 C 
ATOM     33  C   UNL     1      33.588  -4.234 -26.723  0.00  0.00    -0.090 C 
ATOM     34  C   UNL     1      34.121  -4.273 -28.083  0.00  0.00    +0.090 C 
ENDBRANCH  31  32
BRANCH  31  35
ATOM     35  C   UNL     1      31.197  -3.559 -24.199  0.00  0.00    +0.127 C 
BRANCH  35  37
ATOM     36  O   UNL     1      29.976  -2.140 -22.634  0.00  0.00    -0.250 OA
ATOM     37  C   UNL     1      31.021  -2.437 -23.195  0.00  0.00    +0.315 C 
BRANCH  37  38
ATOM     38  O   UNL     1      32.193  -1.786 -22.972  0.00  0.00    -0.480 OA
ATOM     39  H   UNL     1      32.261  -0.869 -23.148  0.00  0.00    +0.295 HD
ENDBRANCH  37  38
ENDBRANCH  35  37
ENDBRANCH  31  35
ENDBRANCH  26  31
ENDBRANCH  24  25
ENDBRANCH  23  24
ENDBRANCH   6  23
TORSDOF 10
ENDMDL
MODEL 2
REMARK VINA RESULT:     -12.2      3.895     13.627
REMARK  Name = 51049992
REMARK  10 active torsions:
REMARK  status: ('A' for Active; 'I' for Inactive)
REMARK    1  A    between atoms: C_1  and  C_7
REMARK    2  A    between atoms: C_6  and  C_23
REMARK    3  A    between atoms: C_7  and  N_8
REMARK    4  A    between atoms: C_23  and  O_24
REMARK    5  A    between atoms: O_24  and  C_25
REMARK    6  A    between atoms: C_26  and  C_31
REMARK    7  A    between atoms: C_31  and  C_32
REMARK    8  A    between atoms: C_31  and  C_35
REMARK    9  A    between atoms: C_35  and  C_37
REMARK   10  A    between atoms: C_37  and  O_38
REMARK                            x       y       z     vdW  Elec       q    Type
REMARK                         _______ _______ _______ _____ _____    ______ ____
ROOT
ATOM      1  C   UNL     1      32.908 -11.767 -22.593  0.00  0.00    -0.043 C 
ATOM      2  C   UNL     1      32.736 -13.037 -22.042  0.00  0.00    -0.007 C 
ATOM      3  C   UNL     1      33.618 -11.614 -23.785  0.00  0.00    -0.007 C 
ATOM      4  C   UNL     1      33.273 -14.154 -22.683  0.00  0.00    -0.001 C 
ATOM      5  C   UNL     1      34.155 -12.731 -24.425  0.00  0.00    -0.001 C 
ATOM      6  C   UNL     1      33.983 -14.000 -23.874  0.00  0.00    +0.021 C 
ENDROOT
BRANCH   1   7
ATOM      7  C   UNL     1      32.329 -10.562 -21.902  0.00  0.00    -0.050 C 
BRANCH   7   8
ATOM      8  N   UNL     1      32.534  -9.338 -22.677  0.00  0.00    +0.390 N 
ATOM      9  C   UNL     1      32.140  -6.501 -23.373  0.00  0.00    +0.033 C 
ATOM     10  C   UNL     1      33.395  -7.017 -22.645  0.00  0.00    -0.015 C 
ATOM     11  C   UNL     1      31.477  -7.652 -24.152  0.00  0.00    -0.015 C 
ATOM     12  C   UNL     1      31.270  -8.897 -23.283  0.00  0.00    -0.076 C 
ATOM     13  C   UNL     1      33.115  -8.286 -21.833  0.00  0.00    -0.076 C 
ATOM     14  C   UNL     1      32.456  -5.323 -24.271  0.00  0.00    -0.019 C 
ATOM     15  C   UNL     1      31.160  -5.840 -22.406  0.00  0.00    -0.023 C 
ATOM     16  C   UNL     1      31.741  -4.195 -23.840  0.00  0.00    -0.004 C 
ATOM     17  C   UNL     1      30.945  -4.544 -22.679  0.00  0.00    -0.005 C 
ATOM     18  C   UNL     1      33.297  -5.251 -25.370  0.00  0.00    -0.004 C 
ATOM     19  C   UNL     1      31.852  -2.979 -24.493  0.00  0.00    -0.000 C 
ATOM     20  C   UNL     1      33.416  -4.028 -26.036  0.00  0.00    -0.000 C 
ATOM     21  C   UNL     1      32.699  -2.902 -25.601  0.00  0.00    -0.000 C 
ATOM     22  H   UNL     1      33.191  -9.534 -23.431  0.00  0.00    -0.079 HD
ENDBRANCH   7   8
ENDBRANCH   1   7
BRANCH   6  23
ATOM     23  C   UNL     1      34.554 -15.194 -24.560  0.00  0.00    +0.232 C 
BRANCH  23  24
ATOM     24  O   UNL     1      35.657 -15.690 -23.809  0.00  0.00    -0.471 OA
BRANCH  24  25
ATOM     25  C   UNL     1      35.489 -16.901 -23.193  0.00  0.00    +0.139 C 
ATOM     26  C   UNL     1      35.145 -19.369 -21.937  0.00  0.00    -0.010 C 
ATOM     27  C   UNL     1      35.171 -18.030 -23.948  0.00  0.00    +0.037 C 
ATOM     28  C   UNL     1      35.634 -17.007 -21.809  0.00  0.00    +0.037 C 
ATOM     29  C   UNL     1      35.000 -19.264 -23.320  0.00  0.00    -0.000 C 
ATOM     30  C   UNL     1      35.462 -18.240 -21.182  0.00  0.00    -0.000 C 
BRANCH  26  31
ATOM     31  C   UNL     1      34.962 -20.688 -21.265  0.00  0.00    +0.097 C 
BRANCH  31  32
ATOM     32  C   UNL     1      35.896 -20.855 -20.118  0.00  0.00    -0.087 C 
ATOM     33  C   UNL     1      36.638 -20.999 -19.184  0.00  0.00    -0.090 C 
ATOM     34  C   UNL     1      37.538 -21.172 -18.046  0.00  0.00    +0.090 C 
ENDBRANCH  31  32
BRANCH  31  35
ATOM     35  C   UNL     1      33.499 -20.912 -20.796  0.00  0.00    +0.127 C 
BRANCH  35  37
ATOM     36  O   UNL     1      33.800 -23.179 -19.943  0.00  0.00    -0.250 OA
ATOM     37  C   UNL     1      33.330 -22.057 -19.816  0.00  0.00    +0.315 C 
BRANCH  37  38
ATOM     38  O   UNL     1      32.589 -21.681 -18.741  0.00  0.00    -0.480 OA
ATOM     39  H   UNL     1      31.654 -21.699 -18.787  0.00  0.00    +0.295 HD
ENDBRANCH  37  38
ENDBRANCH  35  37
ENDBRANCH  31  35
ENDBRANCH  26  31
ENDBRANCH  24  25
ENDBRANCH  23  24
ENDBRANCH   6  23
TORSDOF 10
ENDMDL
MODEL 3
REMARK VINA RESULT:     -12.0      6.057     14.587
REMARK  Name = 51049992
REMARK  10 active torsions:
REMARK  status: ('A' for Active; 'I' for Inactive)
REMARK    1  A    between atoms: C_1  and  C_7
REMARK    2  A    between atoms: C_6  and  C_23
REMARK    3  A    between atoms: C_7  and  N_8
REMARK    4  A    between atoms: C_23  and  O_24
REMARK    5  A    between atoms: O_24  and  C_25
REMARK    6  A    between atoms: C_26  and  C_31
REMARK    7  A    between atoms: C_31  and  C_32
REMARK    8  A    between atoms: C_31  and  C_35
REMARK    9  A    between atoms: C_35  and  C_37
REMARK   10  A    between atoms: C_37  and  O_38
REMARK                            x       y       z     vdW  Elec       q    Type
REMARK                         _______ _______ _______ _____ _____    ______ ____
ROOT
ATOM      1  C   UNL     1      35.590 -18.151 -23.316  0.00  0.00    -0.043 C 
ATOM      2  C   UNL     1      34.622 -19.090 -22.960  0.00  0.00    -0.007 C 
ATOM      3  C   UNL     1      36.812 -18.121 -22.643  0.00  0.00    -0.007 C 
ATOM      4  C   UNL     1      34.875 -19.997 -21.931  0.00  0.00    -0.001 C 
ATOM      5  C   UNL     1      37.065 -19.028 -21.614  0.00  0.00    -0.001 C 
ATOM      6  C   UNL     1      36.096 -19.966 -21.258  0.00  0.00    +0.021 C 
ENDROOT
BRANCH   1   7
ATOM      7  C   UNL     1      35.317 -17.173 -24.426  0.00  0.00    -0.050 C 
BRANCH   7   8
ATOM      8  N   UNL     1      34.550 -16.018 -23.958  0.00  0.00    +0.390 N 
ATOM      9  C   UNL     1      33.838 -13.164 -23.765  0.00  0.00    +0.033 C 
ATOM     10  C   UNL     1      33.032 -14.172 -24.605  0.00  0.00    -0.015 C 
ATOM     11  C   UNL     1      34.619 -13.907 -22.666  0.00  0.00    -0.015 C 
ATOM     12  C   UNL     1      35.418 -15.091 -23.219  0.00  0.00    -0.076 C 
ATOM     13  C   UNL     1      33.891 -15.347 -25.086  0.00  0.00    -0.076 C 
ATOM     14  C   UNL     1      32.954 -12.077 -23.191  0.00  0.00    -0.019 C 
ATOM     15  C   UNL     1      34.763 -12.318 -24.638  0.00  0.00    -0.023 C 
ATOM     16  C   UNL     1      33.356 -10.828 -23.689  0.00  0.00    -0.004 C 
ATOM     17  C   UNL     1      34.482 -11.007 -24.586  0.00  0.00    -0.005 C 
ATOM     18  C   UNL     1      31.890 -12.178 -22.308  0.00  0.00    -0.004 C 
ATOM     19  C   UNL     1      32.707  -9.662 -23.319  0.00  0.00    -0.000 C 
ATOM     20  C   UNL     1      31.230 -11.007 -21.928  0.00  0.00    -0.000 C 
ATOM     21  C   UNL     1      31.635  -9.760 -22.429  0.00  0.00    -0.000 C 
ATOM     22  H   UNL     1      33.825 -16.343 -23.320  0.00  0.00    -0.079 HD
ENDBRANCH   7   8
ENDBRANCH   1   7
BRANCH   6  23
ATOM     23  C   UNL     1      36.368 -20.938 -20.160  0.00  0.00    +0.232 C 
BRANCH  23  24
ATOM     24  O   UNL     1      35.327 -21.908 -20.119  0.00  0.00    -0.471 OA
BRANCH  24  25
ATOM     25  C   UNL     1      34.928 -22.331 -18.879  0.00  0.00    +0.139 C 
ATOM     26  C   UNL     1      34.115 -23.197 -16.355  0.00  0.00    -0.010 C 
ATOM     27  C   UNL     1      35.844 -22.376 -17.828  0.00  0.00    +0.037 C 
ATOM     28  C   UNL     1      33.605 -22.721 -18.667  0.00  0.00    +0.037 C 
ATOM     29  C   UNL     1      35.438 -22.808 -16.565  0.00  0.00    -0.000 C 
ATOM     30  C   UNL     1      33.199 -23.154 -17.405  0.00  0.00    -0.000 C 
BRANCH  26  31
ATOM     31  C   UNL     1      33.680 -23.660 -15.005  0.00  0.00    +0.097 C 
BRANCH  31  32
ATOM     32  C   UNL     1      32.285 -24.182 -15.027  0.00  0.00    -0.087 C 
ATOM     33  C   UNL     1      31.157 -24.595 -15.028  0.00  0.00    -0.090 C 
ATOM     34  C   UNL     1      29.785 -25.099 -15.029  0.00  0.00    +0.090 C 
ENDBRANCH  31  32
BRANCH  31  35
ATOM     35  C   UNL     1      34.637 -24.729 -14.410  0.00  0.00    +0.127 C 
BRANCH  35  37
ATOM     36  O   UNL     1      34.926 -24.967 -11.999  0.00  0.00    -0.250 OA
ATOM     37  C   UNL     1      35.182 -24.378 -13.039  0.00  0.00    +0.315 C 
BRANCH  37  38
ATOM     38  O   UNL     1      36.024 -23.313 -13.100  0.00  0.00    -0.480 OA
ATOM     39  H   UNL     1      35.726 -22.500 -13.456  0.00  0.00    +0.295 HD
ENDBRANCH  37  38
ENDBRANCH  35  37
ENDBRANCH  31  35
ENDBRANCH  26  31
ENDBRANCH  24  25
ENDBRANCH  23  24
ENDBRANCH   6  23
TORSDOF 10
ENDMDL
MODEL 4
REMARK VINA RESULT:     -12.0      5.020      9.402
REMARK  Name = 51049992
REMARK  10 active torsions:
REMARK  status: ('A' for Active; 'I' for Inactive)
REMARK    1  A    between atoms: C_1  and  C_7
REMARK    2  A    between atoms: C_6  and  C_23
REMARK    3  A    between atoms: C_7  and  N_8
REMARK    4  A    between atoms: C_23  and  O_24
REMARK    5  A    between atoms: O_24  and  C_25
REMARK    6  A    between atoms: C_26  and  C_31
REMARK    7  A    between atoms: C_31  and  C_32
REMARK    8  A    between atoms: C_31  and  C_35
REMARK    9  A    between atoms: C_35  and  C_37
REMARK   10  A    between atoms: C_37  and  O_38
REMARK                            x       y       z     vdW  Elec       q    Type
REMARK                         _______ _______ _______ _____ _____    ______ ____
ROOT
ATOM      1  C   UNL     1      33.943 -21.806 -19.342  0.00  0.00    -0.043 C 
ATOM      2  C   UNL     1      35.328 -21.768 -19.509  0.00  0.00    -0.007 C 
ATOM      3  C   UNL     1      33.129 -20.946 -20.081  0.00  0.00    -0.007 C 
ATOM      4  C   UNL     1      35.898 -20.873 -20.414  0.00  0.00    -0.001 C 
ATOM      5  C   UNL     1      33.699 -20.051 -20.985  0.00  0.00    -0.001 C 
ATOM      6  C   UNL     1      35.083 -20.014 -21.152  0.00  0.00    +0.021 C 
ENDROOT
BRANCH   1   7
ATOM      7  C   UNL     1      33.329 -22.772 -18.366  0.00  0.00    -0.050 C 
BRANCH   7   8
ATOM      8  N   UNL     1      34.121 -22.885 -17.140  0.00  0.00    +0.390 N 
ATOM      9  C   UNL     1      35.861 -24.235 -15.180  0.00  0.00    +0.033 C 
ATOM     10  C   UNL     1      36.387 -23.200 -16.191  0.00  0.00    -0.015 C 
ATOM     11  C   UNL     1      34.353 -24.025 -14.954  0.00  0.00    -0.015 C 
ATOM     12  C   UNL     1      33.574 -23.935 -16.271  0.00  0.00    -0.076 C 
ATOM     13  C   UNL     1      35.531 -23.141 -17.462  0.00  0.00    -0.076 C 
ATOM     14  C   UNL     1      36.636 -24.195 -13.880  0.00  0.00    -0.019 C 
ATOM     15  C   UNL     1      36.168 -25.664 -15.627  0.00  0.00    -0.023 C 
ATOM     16  C   UNL     1      37.265 -25.431 -13.667  0.00  0.00    -0.004 C 
ATOM     17  C   UNL     1      36.959 -26.324 -14.767  0.00  0.00    -0.005 C 
ATOM     18  C   UNL     1      36.775 -23.162 -12.966  0.00  0.00    -0.004 C 
ATOM     19  C   UNL     1      38.042 -25.659 -12.543  0.00  0.00    -0.000 C 
ATOM     20  C   UNL     1      37.556 -23.383 -11.829  0.00  0.00    -0.000 C 
ATOM     21  C   UNL     1      38.184 -24.621 -11.619  0.00  0.00    -0.000 C 
ATOM     22  H   UNL     1      34.071 -22.002 -16.634  0.00  0.00    -0.079 HD
ENDBRANCH   7   8
ENDBRANCH   1   7
BRANCH   6  23
ATOM     23  C   UNL     1      35.691 -19.059 -22.122  0.00  0.00    +0.232 C 
BRANCH  23  24
ATOM     24  O   UNL     1      36.007 -17.843 -21.454  0.00  0.00    -0.471 OA
BRANCH  24  25
ATOM     25  C   UNL     1      35.402 -16.707 -21.921  0.00  0.00    +0.139 C 
ATOM     26  C   UNL     1      34.165 -14.394 -22.872  0.00  0.00    -0.010 C 
ATOM     27  C   UNL     1      34.872 -15.779 -21.024  0.00  0.00    +0.037 C 
ATOM     28  C   UNL     1      35.312 -16.478 -23.294  0.00  0.00    +0.037 C 
ATOM     29  C   UNL     1      34.254 -14.622 -21.500  0.00  0.00    -0.000 C 
ATOM     30  C   UNL     1      34.694 -15.321 -23.770  0.00  0.00    -0.000 C 
BRANCH  26  31
ATOM     31  C   UNL     1      33.505 -13.157 -23.382  0.00  0.00    +0.097 C 
BRANCH  31  32
ATOM     32  C   UNL     1      32.566 -12.582 -22.380  0.00  0.00    -0.087 C 
ATOM     33  C   UNL     1      31.803 -12.106 -21.583  0.00  0.00    -0.090 C 
ATOM     34  C   UNL     1      30.878 -11.524 -20.613  0.00  0.00    +0.090 C 
ENDBRANCH  31  32
BRANCH  31  35
ATOM     35  C   UNL     1      34.531 -12.081 -23.827  0.00  0.00    +0.127 C 
BRANCH  35  37
ATOM     36  O   UNL     1      33.843 -12.371 -26.151  0.00  0.00    -0.250 OA
ATOM     37  C   UNL     1      34.512 -11.781 -25.314  0.00  0.00    +0.315 C 
BRANCH  37  38
ATOM     38  O   UNL     1      35.335 -10.744 -25.619  0.00  0.00    -0.480 OA
ATOM     39  H   UNL     1      35.820 -10.315 -24.943  0.00  0.00    +0.295 HD
ENDBRANCH  37  38
ENDBRANCH  35  37
ENDBRANCH  31  35
ENDBRANCH  26  31
ENDBRANCH  24  25
ENDBRANCH  23  24
ENDBRANCH   6  23
TORSDOF 10
ENDMDL
MODEL 5
REMARK VINA RESULT:     -11.9      1.800      2.407
REMARK  Name = 51049992
REMARK  10 active torsions:
REMARK  status: ('A' for Active; 'I' for Inactive)
REMARK    1  A    between atoms: C_1  and  C_7
REMARK    2  A    between atoms: C_6  and  C_23
REMARK    3  A    between atoms: C_7  and  N_8
REMARK    4  A    between atoms: C_23  and  O_24
REMARK    5  A    between atoms: O_24  and  C_25
REMARK    6  A    between atoms: C_26  and  C_31
REMARK    7  A    between atoms: C_31  and  C_32
REMARK    8  A    between atoms: C_31  and  C_35
REMARK    9  A    between atoms: C_35  and  C_37
REMARK   10  A    between atoms: C_37  and  O_38
REMARK                            x       y       z     vdW  Elec       q    Type
REMARK                         _______ _______ _______ _____ _____    ______ ____
ROOT
ATOM      1  C   UNL     1      34.196 -13.756 -23.805  0.00  0.00    -0.043 C 
ATOM      2  C   UNL     1      34.299 -12.517 -24.437  0.00  0.00    -0.007 C 
ATOM      3  C   UNL     1      33.343 -13.911 -22.712  0.00  0.00    -0.007 C 
ATOM      4  C   UNL     1      33.550 -11.434 -23.977  0.00  0.00    -0.001 C 
ATOM      5  C   UNL     1      32.594 -12.829 -22.252  0.00  0.00    -0.001 C 
ATOM      6  C   UNL     1      32.697 -11.590 -22.885  0.00  0.00    +0.021 C 
ENDROOT
BRANCH   1   7
ATOM      7  C   UNL     1      35.005 -14.924 -24.302  0.00  0.00    -0.050 C 
BRANCH   7   8
ATOM      8  N   UNL     1      34.749 -16.135 -23.522  0.00  0.00    +0.390 N 
ATOM      9  C   UNL     1      35.471 -18.521 -21.949  0.00  0.00    +0.033 C 
ATOM     10  C   UNL     1      34.952 -17.222 -21.306  0.00  0.00    -0.015 C 
ATOM     11  C   UNL     1      35.018 -18.595 -23.419  0.00  0.00    -0.015 C 
ATOM     12  C   UNL     1      35.331 -17.308 -24.189  0.00  0.00    -0.076 C 
ATOM     13  C   UNL     1      35.268 -15.986 -22.156  0.00  0.00    -0.076 C 
ATOM     14  C   UNL     1      35.044 -19.745 -21.166  0.00  0.00    -0.019 C 
ATOM     15  C   UNL     1      36.989 -18.644 -21.823  0.00  0.00    -0.023 C 
ATOM     16  C   UNL     1      36.178 -20.423 -20.693  0.00  0.00    -0.004 C 
ATOM     17  C   UNL     1      37.372 -19.717 -21.114  0.00  0.00    -0.005 C 
ATOM     18  C   UNL     1      33.770 -20.220 -20.896  0.00  0.00    -0.004 C 
ATOM     19  C   UNL     1      36.063 -21.582 -19.943  0.00  0.00    -0.000 C 
ATOM     20  C   UNL     1      33.644 -21.389 -20.141  0.00  0.00    -0.000 C 
ATOM     21  C   UNL     1      34.781 -22.064 -19.668  0.00  0.00    -0.000 C 
ATOM     22  H   UNL     1      33.742 -16.279 -23.460  0.00  0.00    -0.079 HD
ENDBRANCH   7   8
ENDBRANCH   1   7
BRANCH   6  23
ATOM     23  C   UNL     1      31.894 -10.434 -22.394  0.00  0.00    +0.232 C 
BRANCH  23  24
ATOM     24  O   UNL     1      32.768  -9.378 -22.013  0.00  0.00    -0.471 OA
BRANCH  24  25
ATOM     25  C   UNL     1      32.956  -8.373 -22.924  0.00  0.00    +0.139 C 
ATOM     26  C   UNL     1      33.339  -6.327 -24.782  0.00  0.00    -0.010 C 
ATOM     27  C   UNL     1      31.864  -7.835 -23.606  0.00  0.00    +0.037 C 
ATOM     28  C   UNL     1      34.240  -7.887 -23.173  0.00  0.00    +0.037 C 
ATOM     29  C   UNL     1      32.056  -6.812 -24.535  0.00  0.00    -0.000 C 
ATOM     30  C   UNL     1      34.432  -6.865 -24.102  0.00  0.00    -0.000 C 
BRANCH  26  31
ATOM     31  C   UNL     1      33.546  -5.234 -25.776  0.00  0.00    +0.097 C 
BRANCH  31  32
ATOM     32  C   UNL     1      32.828  -3.990 -25.380  0.00  0.00    -0.087 C 
ATOM     33  C   UNL     1      32.242  -2.995 -25.048  0.00  0.00    -0.090 C 
ATOM     34  C   UNL     1      31.527  -1.786 -24.645  0.00  0.00    +0.090 C 
ENDBRANCH  31  32
BRANCH  31  35
ATOM     35  C   UNL     1      35.049  -4.927 -26.013  0.00  0.00    +0.127 C 
BRANCH  35  37
ATOM     36  O   UNL     1      34.578  -4.350 -28.337  0.00  0.00    -0.250 OA
ATOM     37  C   UNL     1      35.387  -4.544 -27.440  0.00  0.00    +0.315 C 
BRANCH  37  38
ATOM     38  O   UNL     1      36.729  -4.422 -27.614  0.00  0.00    -0.480 OA
ATOM     39  H   UNL     1      37.089  -3.620 -27.937  0.00  0.00    +0.295 HD
ENDBRANCH  37  38
ENDBRANCH  35  37
ENDBRANCH  31  35
ENDBRANCH  26  31
ENDBRANCH  24  25
ENDBRANCH  23  24
ENDBRANCH   6  23
TORSDOF 10
ENDMDL
MODEL 6
REMARK VINA RESULT:     -11.9      4.830      9.333
REMARK  Name = 51049992
REMARK  10 active torsions:
REMARK  status: ('A' for Active; 'I' for Inactive)
REMARK    1  A    between atoms: C_1  and  C_7
REMARK    2  A    between atoms: C_6  and  C_23
REMARK    3  A    between atoms: C_7  and  N_8
REMARK    4  A    between atoms: C_23  and  O_24
REMARK    5  A    between atoms: O_24  and  C_25
REMARK    6  A    between atoms: C_26  and  C_31
REMARK    7  A    between atoms: C_31  and  C_32
REMARK    8  A    between atoms: C_31  and  C_35
REMARK    9  A    between atoms: C_35  and  C_37
REMARK   10  A    between atoms: C_37  and  O_38
REMARK                            x       y       z     vdW  Elec       q    Type
REMARK                         _______ _______ _______ _____ _____    ______ ____
ROOT
ATOM      1  C   UNL     1      33.891 -21.865 -19.266  0.00  0.00    -0.043 C 
ATOM      2  C   UNL     1      35.277 -21.865 -19.426  0.00  0.00    -0.007 C 
ATOM      3  C   UNL     1      33.102 -21.010 -20.036  0.00  0.00    -0.007 C 
ATOM      4  C   UNL     1      35.873 -21.013 -20.355  0.00  0.00    -0.001 C 
ATOM      5  C   UNL     1      33.697 -20.157 -20.965  0.00  0.00    -0.001 C 
ATOM      6  C   UNL     1      35.082 -20.158 -21.124  0.00  0.00    +0.021 C 
ENDROOT
BRANCH   1   7
ATOM      7  C   UNL     1      33.249 -22.785 -18.264  0.00  0.00    -0.050 C 
BRANCH   7   8
ATOM      8  N   UNL     1      34.051 -22.908 -17.046  0.00  0.00    +0.390 N 
ATOM      9  C   UNL     1      35.793 -24.279 -15.103  0.00  0.00    +0.033 C 
ATOM     10  C   UNL     1      36.322 -23.249 -16.117  0.00  0.00    -0.015 C 
ATOM     11  C   UNL     1      34.289 -24.053 -14.862  0.00  0.00    -0.015 C 
ATOM     12  C   UNL     1      33.500 -23.953 -16.172  0.00  0.00    -0.076 C 
ATOM     13  C   UNL     1      35.455 -23.180 -17.380  0.00  0.00    -0.076 C 
ATOM     14  C   UNL     1      36.581 -24.249 -13.809  0.00  0.00    -0.019 C 
ATOM     15  C   UNL     1      36.081 -25.711 -15.553  0.00  0.00    -0.023 C 
ATOM     16  C   UNL     1      37.198 -25.492 -13.603  0.00  0.00    -0.004 C 
ATOM     17  C   UNL     1      36.871 -26.381 -14.701  0.00  0.00    -0.005 C 
ATOM     18  C   UNL     1      36.739 -23.219 -12.896  0.00  0.00    -0.004 C 
ATOM     19  C   UNL     1      37.982 -25.730 -12.486  0.00  0.00    -0.000 C 
ATOM     20  C   UNL     1      37.528 -23.449 -11.766  0.00  0.00    -0.000 C 
ATOM     21  C   UNL     1      38.144 -24.694 -11.563  0.00  0.00    -0.000 C 
ATOM     22  H   UNL     1      34.015 -22.025 -16.538  0.00  0.00    -0.079 HD
ENDBRANCH   7   8
ENDBRANCH   1   7
BRANCH   6  23
ATOM     23  C   UNL     1      35.719 -19.249 -22.120  0.00  0.00    +0.232 C 
BRANCH  23  24
ATOM     24  O   UNL     1      36.132 -18.052 -21.470  0.00  0.00    -0.471 OA
BRANCH  24  25
ATOM     25  C   UNL     1      35.562 -16.885 -21.904  0.00  0.00    +0.139 C 
ATOM     26  C   UNL     1      34.396 -14.510 -22.789  0.00  0.00    -0.010 C 
ATOM     27  C   UNL     1      35.000 -15.998 -20.985  0.00  0.00    +0.037 C 
ATOM     28  C   UNL     1      35.539 -16.584 -23.266  0.00  0.00    +0.037 C 
ATOM     29  C   UNL     1      34.418 -14.810 -21.428  0.00  0.00    -0.000 C 
ATOM     30  C   UNL     1      34.956 -15.396 -23.709  0.00  0.00    -0.000 C 
BRANCH  26  31
ATOM     31  C   UNL     1      33.773 -13.240 -23.263  0.00  0.00    +0.097 C 
BRANCH  31  32
ATOM     32  C   UNL     1      33.738 -13.166 -24.749  0.00  0.00    -0.087 C 
ATOM     33  C   UNL     1      33.699 -13.121 -25.950  0.00  0.00    -0.090 C 
ATOM     34  C   UNL     1      33.654 -13.069 -27.410  0.00  0.00    +0.090 C 
ENDBRANCH  31  32
BRANCH  31  35
ATOM     35  C   UNL     1      32.347 -13.031 -22.686  0.00  0.00    +0.127 C 
BRANCH  35  37
ATOM     36  O   UNL     1      32.658 -10.610 -22.699  0.00  0.00    -0.250 OA
ATOM     37  C   UNL     1      32.023 -11.591 -22.338  0.00  0.00    +0.315 C 
BRANCH  37  38
ATOM     38  O   UNL     1      30.907 -11.509 -21.567  0.00  0.00    -0.480 OA
ATOM     39  H   UNL     1      30.090 -11.259 -21.951  0.00  0.00    +0.295 HD
ENDBRANCH  37  38
ENDBRANCH  35  37
ENDBRANCH  31  35
ENDBRANCH  26  31
ENDBRANCH  24  25
ENDBRANCH  23  24
ENDBRANCH   6  23
TORSDOF 10
ENDMDL
MODEL 7
REMARK VINA RESULT:     -11.8      6.093     14.287
REMARK  Name = 51049992
REMARK  10 active torsions:
REMARK  status: ('A' for Active; 'I' for Inactive)
REMARK    1  A    between atoms: C_1  and  C_7
REMARK    2  A    between atoms: C_6  and  C_23
REMARK    3  A    between atoms: C_7  and  N_8
REMARK    4  A    between atoms: C_23  and  O_24
REMARK    5  A    between atoms: O_24  and  C_25
REMARK    6  A    between atoms: C_26  and  C_31
REMARK    7  A    between atoms: C_31  and  C_32
REMARK    8  A    between atoms: C_31  and  C_35
REMARK    9  A    between atoms: C_35  and  C_37
REMARK   10  A    between atoms: C_37  and  O_38
REMARK                            x       y       z     vdW  Elec       q    Type
REMARK                         _______ _______ _______ _____ _____    ______ ____
ROOT
ATOM      1  C   UNL     1      35.615 -18.159 -23.210  0.00  0.00    -0.043 C 
ATOM      2  C   UNL     1      36.867 -18.131 -22.595  0.00  0.00    -0.007 C 
ATOM      3  C   UNL     1      34.647 -19.066 -22.777  0.00  0.00    -0.007 C 
ATOM      4  C   UNL     1      37.151 -19.008 -21.549  0.00  0.00    -0.001 C 
ATOM      5  C   UNL     1      34.931 -19.944 -21.732  0.00  0.00    -0.001 C 
ATOM      6  C   UNL     1      36.183 -19.915 -21.117  0.00  0.00    +0.021 C 
ENDROOT
BRANCH   1   7
ATOM      7  C   UNL     1      35.310 -17.211 -24.338  0.00  0.00    -0.050 C 
BRANCH   7   8
ATOM      8  N   UNL     1      34.552 -16.046 -23.881  0.00  0.00    +0.390 N 
ATOM      9  C   UNL     1      33.843 -13.188 -23.740  0.00  0.00    +0.033 C 
ATOM     10  C   UNL     1      33.020 -14.215 -24.539  0.00  0.00    -0.015 C 
ATOM     11  C   UNL     1      34.647 -13.905 -22.640  0.00  0.00    -0.015 C 
ATOM     12  C   UNL     1      35.435 -15.102 -23.182  0.00  0.00    -0.076 C 
ATOM     13  C   UNL     1      33.870 -15.401 -25.010  0.00  0.00    -0.076 C 
ATOM     14  C   UNL     1      32.970 -12.088 -23.173  0.00  0.00    -0.019 C 
ATOM     15  C   UNL     1      34.750 -12.362 -24.650  0.00  0.00    -0.023 C 
ATOM     16  C   UNL     1      33.362 -10.851 -23.708  0.00  0.00    -0.004 C 
ATOM     17  C   UNL     1      34.469 -11.051 -24.623  0.00  0.00    -0.005 C 
ATOM     18  C   UNL     1      31.925 -12.169 -22.267  0.00  0.00    -0.004 C 
ATOM     19  C   UNL     1      32.721  -9.677 -23.351  0.00  0.00    -0.000 C 
ATOM     20  C   UNL     1      31.272 -10.989 -21.900  0.00  0.00    -0.000 C 
ATOM     21  C   UNL     1      31.666  -9.754 -22.438  0.00  0.00    -0.000 C 
ATOM     22  H   UNL     1      33.840 -16.356 -23.221  0.00  0.00    -0.079 HD
ENDBRANCH   7   8
ENDBRANCH   1   7
BRANCH   6  23
ATOM     23  C   UNL     1      36.485 -20.852 -19.997  0.00  0.00    +0.232 C 
BRANCH  23  24
ATOM     24  O   UNL     1      35.658 -22.004 -20.108  0.00  0.00    -0.471 OA
BRANCH  24  25
ATOM     25  C   UNL     1      35.025 -22.422 -18.967  0.00  0.00    +0.139 C 
ATOM     26  C   UNL     1      33.736 -23.275 -16.645  0.00  0.00    -0.010 C 
ATOM     27  C   UNL     1      35.726 -22.485 -17.763  0.00  0.00    +0.037 C 
ATOM     28  C   UNL     1      33.679 -22.785 -19.010  0.00  0.00    +0.037 C 
ATOM     29  C   UNL     1      35.082 -22.911 -16.602  0.00  0.00    -0.000 C 
ATOM     30  C   UNL     1      33.035 -23.212 -17.849  0.00  0.00    -0.000 C 
BRANCH  26  31
ATOM     31  C   UNL     1      33.046 -23.731 -15.404  0.00  0.00    +0.097 C 
BRANCH  31  32
ATOM     32  C   UNL     1      34.016 -24.046 -14.319  0.00  0.00    -0.087 C 
ATOM     33  C   UNL     1      34.787 -24.298 -13.432  0.00  0.00    -0.090 C 
ATOM     34  C   UNL     1      35.724 -24.601 -12.353  0.00  0.00    +0.090 C 
ENDBRANCH  31  32
BRANCH  31  35
ATOM     35  C   UNL     1      32.000 -22.701 -14.898  0.00  0.00    +0.127 C 
BRANCH  35  37
ATOM     36  O   UNL     1      29.594 -22.542 -15.277  0.00  0.00    -0.250 OA
ATOM     37  C   UNL     1      30.569 -23.199 -14.938  0.00  0.00    +0.315 C 
BRANCH  37  38
ATOM     38  O   UNL     1      30.488 -24.501 -14.558  0.00  0.00    -0.480 OA
ATOM     39  H   UNL     1      31.265 -24.972 -14.333  0.00  0.00    +0.295 HD
ENDBRANCH  37  38
ENDBRANCH  35  37
ENDBRANCH  31  35
ENDBRANCH  26  31
ENDBRANCH  24  25
ENDBRANCH  23  24
ENDBRANCH   6  23
TORSDOF 10
ENDMDL
MODEL 8
REMARK VINA RESULT:     -11.8      5.941     14.821
REMARK  Name = 51049992
REMARK  10 active torsions:
REMARK  status: ('A' for Active; 'I' for Inactive)
REMARK    1  A    between atoms: C_1  and  C_7
REMARK    2  A    between atoms: C_6  and  C_23
REMARK    3  A    between atoms: C_7  and  N_8
REMARK    4  A    between atoms: C_23  and  O_24
REMARK    5  A    between atoms: O_24  and  C_25
REMARK    6  A    between atoms: C_26  and  C_31
REMARK    7  A    between atoms: C_31  and  C_32
REMARK    8  A    between atoms: C_31  and  C_35
REMARK    9  A    between atoms: C_35  and  C_37
REMARK   10  A    between atoms: C_37  and  O_38
REMARK                            x       y       z     vdW  Elec       q    Type
REMARK                         _______ _______ _______ _____ _____    ______ ____
ROOT
ATOM      1  C   UNL     1      35.567 -18.042 -23.438  0.00  0.00    -0.043 C 
ATOM      2  C   UNL     1      36.811 -18.013 -22.807  0.00  0.00    -0.007 C 
ATOM      3  C   UNL     1      34.610 -18.979 -23.049  0.00  0.00    -0.007 C 
ATOM      4  C   UNL     1      37.097 -18.920 -21.788  0.00  0.00    -0.001 C 
ATOM      5  C   UNL     1      34.896 -19.886 -22.029  0.00  0.00    -0.001 C 
ATOM      6  C   UNL     1      36.140 -19.857 -21.398  0.00  0.00    +0.021 C 
ENDROOT
BRANCH   1   7
ATOM      7  C   UNL     1      35.259 -17.062 -24.539  0.00  0.00    -0.050 C 
BRANCH   7   8
ATOM      8  N   UNL     1      34.510 -15.907 -24.045  0.00  0.00    +0.390 N 
ATOM      9  C   UNL     1      33.825 -13.049 -23.810  0.00  0.00    +0.033 C 
ATOM     10  C   UNL     1      32.997 -14.041 -24.647  0.00  0.00    -0.015 C 
ATOM     11  C   UNL     1      34.618 -13.810 -22.732  0.00  0.00    -0.015 C 
ATOM     12  C   UNL     1      35.397 -14.995 -23.311  0.00  0.00    -0.076 C 
ATOM     13  C   UNL     1      33.838 -15.217 -25.155  0.00  0.00    -0.076 C 
ATOM     14  C   UNL     1      32.959 -11.961 -23.209  0.00  0.00    -0.019 C 
ATOM     15  C   UNL     1      34.743 -12.201 -24.688  0.00  0.00    -0.023 C 
ATOM     16  C   UNL     1      33.364 -10.710 -23.701  0.00  0.00    -0.004 C 
ATOM     17  C   UNL     1      34.473 -10.888 -24.617  0.00  0.00    -0.005 C 
ATOM     18  C   UNL     1      31.910 -12.063 -22.311  0.00  0.00    -0.004 C 
ATOM     19  C   UNL     1      32.731  -9.543 -23.307  0.00  0.00    -0.000 C 
ATOM     20  C   UNL     1      31.265 -10.891 -21.907  0.00  0.00    -0.000 C 
ATOM     21  C   UNL     1      31.673  -9.641 -22.401  0.00  0.00    -0.000 C 
ATOM     22  H   UNL     1      33.792 -16.232 -23.399  0.00  0.00    -0.079 HD
ENDBRANCH   7   8
ENDBRANCH   1   7
BRANCH   6  23
ATOM     23  C   UNL     1      36.445 -20.825 -20.306  0.00  0.00    +0.232 C 
BRANCH  23  24
ATOM     24  O   UNL     1      35.245 -21.476 -19.903  0.00  0.00    -0.471 OA
BRANCH  24  25
ATOM     25  C   UNL     1      35.267 -22.115 -18.692  0.00  0.00    +0.139 C 
ATOM     26  C   UNL     1      35.313 -23.419 -16.226  0.00  0.00    -0.010 C 
ATOM     27  C   UNL     1      36.401 -22.040 -17.883  0.00  0.00    +0.037 C 
ATOM     28  C   UNL     1      34.155 -22.843 -18.267  0.00  0.00    +0.037 C 
ATOM     29  C   UNL     1      36.424 -22.691 -16.650  0.00  0.00    -0.000 C 
ATOM     30  C   UNL     1      34.178 -23.495 -17.034  0.00  0.00    -0.000 C 
BRANCH  26  31
ATOM     31  C   UNL     1      35.336 -24.116 -14.907  0.00  0.00    +0.097 C 
BRANCH  31  32
ATOM     32  C   UNL     1      33.963 -24.452 -14.439  0.00  0.00    -0.087 C 
ATOM     33  C   UNL     1      32.861 -24.726 -14.045  0.00  0.00    -0.090 C 
ATOM     34  C   UNL     1      31.522 -25.063 -13.566  0.00  0.00    +0.090 C 
ENDBRANCH  31  32
BRANCH  31  35
ATOM     35  C   UNL     1      36.217 -25.394 -14.931  0.00  0.00    +0.127 C 
BRANCH  35  37
ATOM     36  O   UNL     1      38.224 -24.282 -14.098  0.00  0.00    -0.250 OA
ATOM     37  C   UNL     1      37.705 -25.124 -14.817  0.00  0.00    +0.315 C 
BRANCH  37  38
ATOM     38  O   UNL     1      38.420 -25.958 -15.618  0.00  0.00    -0.480 OA
ATOM     39  H   UNL     1      38.692 -26.795 -15.298  0.00  0.00    +0.295 HD
ENDBRANCH  37  38
ENDBRANCH  35  37
ENDBRANCH  31  35
ENDBRANCH  26  31
ENDBRANCH  24  25
ENDBRANCH  23  24
ENDBRANCH   6  23
TORSDOF 10
ENDMDL
MODEL 9
REMARK VINA RESULT:     -11.7      6.030     15.001
REMARK  Name = 51049992
REMARK  10 active torsions:
REMARK  status: ('A' for Active; 'I' for Inactive)
REMARK    1  A    between atoms: C_1  and  C_7
REMARK    2  A    between atoms: C_6  and  C_23
REMARK    3  A    between atoms: C_7  and  N_8
REMARK    4  A    between atoms: C_23  and  O_24
REMARK    5  A    between atoms: O_24  and  C_25
REMARK    6  A    between atoms: C_26  and  C_31
REMARK    7  A    between atoms: C_31  and  C_32
REMARK    8  A    between atoms: C_31  and  C_35
REMARK    9  A    between atoms: C_35  and  C_37
REMARK   10  A    between atoms: C_37  and  O_38
REMARK                            x       y       z     vdW  Elec       q    Type
REMARK                         _______ _______ _______ _____ _____    ______ ____
ROOT
ATOM      1  C   UNL     1      35.704 -18.310 -23.179  0.00  0.00    -0.043 C 
ATOM      2  C   UNL     1      37.006 -18.257 -22.679  0.00  0.00    -0.007 C 
ATOM      3  C   UNL     1      34.783 -19.203 -22.631  0.00  0.00    -0.007 C 
ATOM      4  C   UNL     1      37.386 -19.097 -21.632  0.00  0.00    -0.001 C 
ATOM      5  C   UNL     1      35.163 -20.043 -21.584  0.00  0.00    -0.001 C 
ATOM      6  C   UNL     1      36.464 -19.990 -21.085  0.00  0.00    +0.021 C 
ENDROOT
BRANCH   1   7
ATOM      7  C   UNL     1      35.295 -17.404 -24.309  0.00  0.00    -0.050 C 
BRANCH   7   8
ATOM      8  N   UNL     1      34.546 -16.242 -23.831  0.00  0.00    +0.390 N 
ATOM      9  C   UNL     1      33.834 -13.386 -23.663  0.00  0.00    +0.033 C 
ATOM     10  C   UNL     1      32.997 -14.411 -24.449  0.00  0.00    -0.015 C 
ATOM     11  C   UNL     1      34.663 -14.106 -22.583  0.00  0.00    -0.015 C 
ATOM     12  C   UNL     1      35.442 -15.299 -23.147  0.00  0.00    -0.076 C 
ATOM     13  C   UNL     1      33.838 -15.593 -24.942  0.00  0.00    -0.076 C 
ATOM     14  C   UNL     1      32.972 -12.289 -23.073  0.00  0.00    -0.019 C 
ATOM     15  C   UNL     1      34.721 -12.555 -24.590  0.00  0.00    -0.023 C 
ATOM     16  C   UNL     1      33.350 -11.050 -23.612  0.00  0.00    -0.004 C 
ATOM     17  C   UNL     1      34.438 -11.243 -24.551  0.00  0.00    -0.005 C 
ATOM     18  C   UNL     1      31.947 -12.376 -22.145  0.00  0.00    -0.004 C 
ATOM     19  C   UNL     1      32.715  -9.878 -23.236  0.00  0.00    -0.000 C 
ATOM     20  C   UNL     1      31.300 -11.199 -21.760  0.00  0.00    -0.000 C 
ATOM     21  C   UNL     1      31.680  -9.960 -22.301  0.00  0.00    -0.000 C 
ATOM     22  H   UNL     1      33.849 -16.556 -23.157  0.00  0.00    -0.079 HD
ENDBRANCH   7   8
ENDBRANCH   1   7
BRANCH   6  23
ATOM     23  C   UNL     1      36.869 -20.885 -19.964  0.00  0.00    +0.232 C 
BRANCH  23  24
ATOM     24  O   UNL     1      35.714 -21.277 -19.230  0.00  0.00    -0.471 OA
BRANCH  24  25
ATOM     25  C   UNL     1      35.924 -22.020 -18.099  0.00  0.00    +0.139 C 
ATOM     26  C   UNL     1      36.352 -23.537 -15.797  0.00  0.00    -0.010 C 
ATOM     27  C   UNL     1      37.173 -22.009 -17.478  0.00  0.00    +0.037 C 
ATOM     28  C   UNL     1      34.889 -22.790 -17.568  0.00  0.00    +0.037 C 
ATOM     29  C   UNL     1      37.387 -22.767 -16.327  0.00  0.00    -0.000 C 
ATOM     30  C   UNL     1      35.103 -23.549 -16.418  0.00  0.00    -0.000 C 
BRANCH  26  31
ATOM     31  C   UNL     1      36.580 -24.348 -14.566  0.00  0.00    +0.097 C 
BRANCH  31  32
ATOM     32  C   UNL     1      37.956 -24.914 -14.528  0.00  0.00    -0.087 C 
ATOM     33  C   UNL     1      39.071 -25.362 -14.483  0.00  0.00    -0.090 C 
ATOM     34  C   UNL     1      40.427 -25.903 -14.429  0.00  0.00    +0.090 C 
ENDBRANCH  31  32
BRANCH  31  35
ATOM     35  C   UNL     1      36.301 -23.542 -13.268  0.00  0.00    +0.127 C 
BRANCH  35  37
ATOM     36  O   UNL     1      37.043 -24.448 -11.127  0.00  0.00    -0.250 OA
ATOM     37  C   UNL     1      36.207 -24.393 -12.017  0.00  0.00    +0.315 C 
BRANCH  37  38
ATOM     38  O   UNL     1      35.046 -25.100 -11.988  0.00  0.00    -0.480 OA
ATOM     39  H   UNL     1      34.317 -24.825 -12.506  0.00  0.00    +0.295 HD
ENDBRANCH  37  38
ENDBRANCH  35  37
ENDBRANCH  31  35
ENDBRANCH  26  31
ENDBRANCH  24  25
ENDBRANCH  23  24
ENDBRANCH   6  23
TORSDOF 10
ENDMDL
