MODEL 1
REMARK VINA RESULT:     -11.2      0.000      0.000
REMARK  Name = 456199
REMARK  5 active torsions:
REMARK  status: ('A' for Active; 'I' for Inactive)
REMARK    1  A    between atoms: O_1  and  C_5
REMARK    2  A    between atoms: O_1  and  C_14
REMARK    3  A    between atoms: C_14  and  C_15
REMARK    4  A    between atoms: C_20  and  O_21
REMARK    5  A    between atoms: O_21  and  C_25
REMARK                            x       y       z     vdW  Elec       q    Type
REMARK                         _______ _______ _______ _____ _____    ______ ____
ROOT
ATOM      1  O   UNL     1      33.223 -22.781 -17.793  0.00  0.00    -0.346 OA
ENDROOT
BRANCH   1   5
ATOM      2  O   UNL     1      32.465 -23.919 -14.369  0.00  0.00    -0.438 OA
ATOM      3  N   UNL     1      34.827 -23.832 -14.680  0.00  0.00    -0.242 N 
ATOM      4  N   UNL     1      34.030 -24.523 -12.730  0.00  0.00    -0.333 NA
ATOM      5  C   UNL     1      33.392 -23.573 -16.627  0.00  0.00    +0.179 C 
ATOM      6  C   UNL     1      34.788 -23.367 -16.047  0.00  0.00    +0.130 C 
ATOM      7  C   UNL     1      32.341 -23.178 -15.589  0.00  0.00    +0.241 C 
ATOM      8  C   UNL     1      33.712 -24.074 -13.923  0.00  0.00    +0.345 C 
ATOM      9  C   UNL     1      35.922 -24.122 -13.928  0.00  0.00    +0.181 C 
ATOM     10  C   UNL     1      35.406 -24.547 -12.723  0.00  0.00    +0.274 C 
ATOM     11  O   UNL     1      37.355 -24.975 -11.577  0.00  0.00    -0.124 OA
ATOM     12  O   UNL     1      35.440 -25.320 -10.556  0.00  0.00    -0.124 OA
ATOM     13  N   UNL     1      36.093 -24.963 -11.576  0.00  0.00    +0.085 N 
ENDBRANCH   1   5
BRANCH   1  14
ATOM     14  C   UNL     1      34.134 -23.163 -18.813  0.00  0.00    +0.169 C 
BRANCH  14  15
ATOM     15  C   UNL     1      34.457 -21.963 -19.654  0.00  0.00    +0.007 C 
ATOM     16  C   UNL     1      33.427 -21.193 -20.180  0.00  0.00    +0.001 C 
ATOM     17  C   UNL     1      35.785 -21.634 -19.900  0.00  0.00    +0.001 C 
ATOM     18  C   UNL     1      33.728 -20.078 -20.962  0.00  0.00    +0.037 C 
ATOM     19  C   UNL     1      36.087 -20.519 -20.682  0.00  0.00    +0.037 C 
ATOM     20  C   UNL     1      35.058 -19.741 -21.213  0.00  0.00    +0.147 C 
BRANCH  20  21
ATOM     21  O   UNL     1      35.351 -18.653 -21.976  0.00  0.00    -0.404 OA
BRANCH  21  25
ATOM     22  F   UNL     1      37.120 -18.927 -23.399  0.00  0.00    -0.133 F 
ATOM     23  F   UNL     1      35.357 -17.828 -24.078  0.00  0.00    -0.133 F 
ATOM     24  F   UNL     1      35.233 -19.995 -23.825  0.00  0.00    -0.133 F 
ATOM     25  C   UNL     1      35.775 -18.866 -23.318  0.00  0.00    +0.575 C 
ENDBRANCH  21  25
ENDBRANCH  20  21
ENDBRANCH  14  15
ENDBRANCH   1  14
TORSDOF 5
ENDMDL
MODEL 2
REMARK VINA RESULT:     -10.8      1.592      2.153
REMARK  Name = 456199
REMARK  5 active torsions:
REMARK  status: ('A' for Active; 'I' for Inactive)
REMARK    1  A    between atoms: O_1  and  C_5
REMARK    2  A    between atoms: O_1  and  C_14
REMARK    3  A    between atoms: C_14  and  C_15
REMARK    4  A    between atoms: C_20  and  O_21
REMARK    5  A    between atoms: O_21  and  C_25
REMARK                            x       y       z     vdW  Elec       q    Type
REMARK                         _______ _______ _______ _____ _____    ______ ____
ROOT
ATOM      1  O   UNL     1      35.051 -23.210 -17.981  0.00  0.00    -0.346 OA
ENDROOT
BRANCH   1   5
ATOM      2  O   UNL     1      37.217 -22.508 -15.082  0.00  0.00    -0.438 OA
ATOM      3  N   UNL     1      35.485 -24.014 -14.441  0.00  0.00    -0.242 N 
ATOM      4  N   UNL     1      36.946 -23.351 -12.910  0.00  0.00    -0.333 NA
ATOM      5  C   UNL     1      35.338 -22.938 -16.617  0.00  0.00    +0.179 C 
ATOM      6  C   UNL     1      34.852 -24.086 -15.738  0.00  0.00    +0.130 C 
ATOM      7  C   UNL     1      36.846 -22.759 -16.443  0.00  0.00    +0.241 C 
ATOM      8  C   UNL     1      36.600 -23.265 -14.175  0.00  0.00    +0.345 C 
ATOM      9  C   UNL     1      35.104 -24.632 -13.290  0.00  0.00    +0.181 C 
ATOM     10  C   UNL     1      36.023 -24.208 -12.356  0.00  0.00    +0.274 C 
ATOM     11  O   UNL     1      35.261 -25.336 -10.500  0.00  0.00    -0.124 OA
ATOM     12  O   UNL     1      37.030 -24.050 -10.292  0.00  0.00    -0.124 OA
ATOM     13  N   UNL     1      36.107 -24.544 -10.998  0.00  0.00    +0.085 N 
ENDBRANCH   1   5
BRANCH   1  14
ATOM     14  C   UNL     1      33.875 -22.536 -18.405  0.00  0.00    +0.169 C 
BRANCH  14  15
ATOM     15  C   UNL     1      34.218 -21.630 -19.551  0.00  0.00    +0.007 C 
ATOM     16  C   UNL     1      33.207 -20.943 -20.211  0.00  0.00    +0.001 C 
ATOM     17  C   UNL     1      35.544 -21.488 -19.942  0.00  0.00    +0.001 C 
ATOM     18  C   UNL     1      33.525 -20.101 -21.277  0.00  0.00    +0.037 C 
ATOM     19  C   UNL     1      35.864 -20.646 -21.008  0.00  0.00    +0.037 C 
ATOM     20  C   UNL     1      34.854 -19.952 -21.675  0.00  0.00    +0.147 C 
BRANCH  20  21
ATOM     21  O   UNL     1      35.164 -19.130 -22.715  0.00  0.00    -0.404 OA
BRANCH  21  25
ATOM     22  F   UNL     1      35.715 -17.011 -23.375  0.00  0.00    -0.133 F 
ATOM     23  F   UNL     1      37.246 -18.289 -22.480  0.00  0.00    -0.133 F 
ATOM     24  F   UNL     1      35.659 -17.476 -21.215  0.00  0.00    -0.133 F 
ATOM     25  C   UNL     1      35.933 -17.964 -22.445  0.00  0.00    +0.575 C 
ENDBRANCH  21  25
ENDBRANCH  20  21
ENDBRANCH  14  15
ENDBRANCH   1  14
TORSDOF 5
ENDMDL
MODEL 3
REMARK VINA RESULT:     -10.6      6.252     10.972
REMARK  Name = 456199
REMARK  5 active torsions:
REMARK  status: ('A' for Active; 'I' for Inactive)
REMARK    1  A    between atoms: O_1  and  C_5
REMARK    2  A    between atoms: O_1  and  C_14
REMARK    3  A    between atoms: C_14  and  C_15
REMARK    4  A    between atoms: C_20  and  O_21
REMARK    5  A    between atoms: O_21  and  C_25
REMARK                            x       y       z     vdW  Elec       q    Type
REMARK                         _______ _______ _______ _____ _____    ______ ____
ROOT
ATOM      1  O   UNL     1      35.887 -18.508 -21.242  0.00  0.00    -0.346 OA
ENDROOT
BRANCH   1   5
ATOM      2  O   UNL     1      34.954 -15.063 -22.164  0.00  0.00    -0.438 OA
ATOM      3  N   UNL     1      34.839 -16.466 -24.088  0.00  0.00    -0.242 N 
ATOM      4  N   UNL     1      34.376 -14.309 -24.309  0.00  0.00    -0.333 NA
ATOM      5  C   UNL     1      35.862 -17.352 -22.067  0.00  0.00    +0.179 C 
ATOM      6  C   UNL     1      35.235 -17.682 -23.417  0.00  0.00    +0.130 C 
ATOM      7  C   UNL     1      35.048 -16.256 -21.377  0.00  0.00    +0.241 C 
ATOM      8  C   UNL     1      34.713 -15.255 -23.461  0.00  0.00    +0.345 C 
ATOM      9  C   UNL     1      34.549 -16.294 -25.406  0.00  0.00    +0.181 C 
ATOM     10  C   UNL     1      34.263 -14.952 -25.520  0.00  0.00    +0.274 C 
ATOM     11  O   UNL     1      33.784 -14.831 -27.768  0.00  0.00    -0.124 OA
ATOM     12  O   UNL     1      33.668 -12.992 -26.570  0.00  0.00    -0.124 OA
ATOM     13  N   UNL     1      33.892 -14.232 -26.663  0.00  0.00    +0.085 N 
ENDBRANCH   1   5
BRANCH   1  14
ATOM     14  C   UNL     1      34.914 -19.456 -21.653  0.00  0.00    +0.169 C 
BRANCH  14  15
ATOM     15  C   UNL     1      34.833 -20.549 -20.627  0.00  0.00    +0.007 C 
ATOM     16  C   UNL     1      35.999 -21.039 -20.051  0.00  0.00    +0.001 C 
ATOM     17  C   UNL     1      33.592 -21.059 -20.263  0.00  0.00    +0.001 C 
ATOM     18  C   UNL     1      35.923 -22.055 -19.097  0.00  0.00    +0.037 C 
ATOM     19  C   UNL     1      33.516 -22.075 -19.309  0.00  0.00    +0.037 C 
ATOM     20  C   UNL     1      34.682 -22.572 -18.726  0.00  0.00    +0.147 C 
BRANCH  20  21
ATOM     21  O   UNL     1      34.608 -23.563 -17.796  0.00  0.00    -0.404 OA
BRANCH  21  25
ATOM     22  F   UNL     1      35.125 -22.271 -15.981  0.00  0.00    -0.133 F 
ATOM     23  F   UNL     1      34.387 -24.305 -15.675  0.00  0.00    -0.133 F 
ATOM     24  F   UNL     1      33.006 -22.761 -16.374  0.00  0.00    -0.133 F 
ATOM     25  C   UNL     1      34.279 -23.207 -16.458  0.00  0.00    +0.575 C 
ENDBRANCH  21  25
ENDBRANCH  20  21
ENDBRANCH  14  15
ENDBRANCH   1  14
TORSDOF 5
ENDMDL
MODEL 4
REMARK VINA RESULT:     -10.5      6.533     11.263
REMARK  Name = 456199
REMARK  5 active torsions:
REMARK  status: ('A' for Active; 'I' for Inactive)
REMARK    1  A    between atoms: O_1  and  C_5
REMARK    2  A    between atoms: O_1  and  C_14
REMARK    3  A    between atoms: C_14  and  C_15
REMARK    4  A    between atoms: C_20  and  O_21
REMARK    5  A    between atoms: O_21  and  C_25
REMARK                            x       y       z     vdW  Elec       q    Type
REMARK                         _______ _______ _______ _____ _____    ______ ____
ROOT
ATOM      1  O   UNL     1      35.712 -19.238 -23.009  0.00  0.00    -0.346 OA
ENDROOT
BRANCH   1   5
ATOM      2  O   UNL     1      33.940 -17.932 -25.965  0.00  0.00    -0.438 OA
ATOM      3  N   UNL     1      34.770 -16.117 -24.663  0.00  0.00    -0.242 N 
ATOM      4  N   UNL     1      33.612 -15.672 -26.500  0.00  0.00    -0.333 NA
ATOM      5  C   UNL     1      34.854 -18.356 -23.716  0.00  0.00    +0.179 C 
ATOM      6  C   UNL     1      35.386 -16.929 -23.638  0.00  0.00    +0.130 C 
ATOM      7  C   UNL     1      34.770 -18.795 -25.179  0.00  0.00    +0.241 C 
ATOM      8  C   UNL     1      34.105 -16.628 -25.745  0.00  0.00    +0.345 C 
ATOM      9  C   UNL     1      34.721 -14.759 -24.735  0.00  0.00    +0.181 C 
ATOM     10  C   UNL     1      34.000 -14.506 -25.881  0.00  0.00    +0.274 C 
ATOM     11  O   UNL     1      34.021 -12.204 -25.869  0.00  0.00    -0.124 OA
ATOM     12  O   UNL     1      32.982 -13.236 -27.508  0.00  0.00    -0.124 OA
ATOM     13  N   UNL     1      33.654 -13.268 -26.440  0.00  0.00    +0.085 N 
ENDBRANCH   1   5
BRANCH   1  14
ATOM     14  C   UNL     1      35.716 -18.950 -21.618  0.00  0.00    +0.169 C 
BRANCH  14  15
ATOM     15  C   UNL     1      35.187 -20.139 -20.871  0.00  0.00    +0.007 C 
ATOM     16  C   UNL     1      33.818 -20.367 -20.822  0.00  0.00    +0.001 C 
ATOM     17  C   UNL     1      36.073 -21.001 -20.234  0.00  0.00    +0.001 C 
ATOM     18  C   UNL     1      33.325 -21.472 -20.127  0.00  0.00    +0.037 C 
ATOM     19  C   UNL     1      35.582 -22.106 -19.539  0.00  0.00    +0.037 C 
ATOM     20  C   UNL     1      34.208 -22.342 -19.486  0.00  0.00    +0.147 C 
BRANCH  20  21
ATOM     21  O   UNL     1      33.728 -23.420 -18.807  0.00  0.00    -0.404 OA
BRANCH  21  25
ATOM     22  F   UNL     1      34.122 -22.706 -16.671  0.00  0.00    -0.133 F 
ATOM     23  F   UNL     1      32.783 -24.401 -17.007  0.00  0.00    -0.133 F 
ATOM     24  F   UNL     1      32.119 -22.390 -17.549  0.00  0.00    -0.133 F 
ATOM     25  C   UNL     1      33.191 -23.211 -17.506  0.00  0.00    +0.575 C 
ENDBRANCH  21  25
ENDBRANCH  20  21
ENDBRANCH  14  15
ENDBRANCH   1  14
TORSDOF 5
ENDMDL
MODEL 5
REMARK VINA RESULT:     -10.4      5.561      6.989
REMARK  Name = 456199
REMARK  5 active torsions:
REMARK  status: ('A' for Active; 'I' for Inactive)
REMARK    1  A    between atoms: O_1  and  C_5
REMARK    2  A    between atoms: O_1  and  C_14
REMARK    3  A    between atoms: C_14  and  C_15
REMARK    4  A    between atoms: C_20  and  O_21
REMARK    5  A    between atoms: O_21  and  C_25
REMARK                            x       y       z     vdW  Elec       q    Type
REMARK                         _______ _______ _______ _____ _____    ______ ____
ROOT
ATOM      1  O   UNL     1      34.017 -23.967 -13.514  0.00  0.00    -0.346 OA
ENDROOT
BRANCH   1   5
ATOM      2  O   UNL     1      37.002 -25.548 -12.036  0.00  0.00    -0.438 OA
ATOM      3  N   UNL     1      37.394 -25.095 -14.343  0.00  0.00    -0.242 N 
ATOM      4  N   UNL     1      38.987 -26.089 -13.162  0.00  0.00    -0.333 NA
ATOM      5  C   UNL     1      35.134 -24.844 -13.482  0.00  0.00    +0.179 C 
ATOM      6  C   UNL     1      36.104 -24.503 -14.608  0.00  0.00    +0.130 C 
ATOM      7  C   UNL     1      35.843 -24.710 -12.134  0.00  0.00    +0.241 C 
ATOM      8  C   UNL     1      37.780 -25.569 -13.118  0.00  0.00    +0.345 C 
ATOM      9  C   UNL     1      38.414 -25.303 -15.219  0.00  0.00    +0.181 C 
ATOM     10  C   UNL     1      39.390 -25.918 -14.466  0.00  0.00    +0.274 C 
ATOM     11  O   UNL     1      41.027 -26.181 -16.064  0.00  0.00    -0.124 OA
ATOM     12  O   UNL     1      41.426 -26.897 -14.025  0.00  0.00    -0.124 OA
ATOM     13  N   UNL     1      40.662 -26.348 -14.868  0.00  0.00    +0.085 N 
ENDBRANCH   1   5
BRANCH   1  14
ATOM     14  C   UNL     1      32.794 -24.688 -13.493  0.00  0.00    +0.169 C 
BRANCH  14  15
ATOM     15  C   UNL     1      31.853 -24.084 -14.493  0.00  0.00    +0.007 C 
ATOM     16  C   UNL     1      32.329 -23.701 -15.742  0.00  0.00    +0.001 C 
ATOM     17  C   UNL     1      30.514 -23.913 -14.161  0.00  0.00    +0.001 C 
ATOM     18  C   UNL     1      31.453 -23.139 -16.672  0.00  0.00    +0.037 C 
ATOM     19  C   UNL     1      29.638 -23.351 -15.090  0.00  0.00    +0.037 C 
ATOM     20  C   UNL     1      30.108 -22.964 -16.346  0.00  0.00    +0.147 C 
BRANCH  20  21
ATOM     21  O   UNL     1      29.255 -22.416 -17.253  0.00  0.00    -0.404 OA
BRANCH  21  25
ATOM     22  F   UNL     1      27.188 -22.688 -16.313  0.00  0.00    -0.133 F 
ATOM     23  F   UNL     1      28.072 -24.328 -17.457  0.00  0.00    -0.133 F 
ATOM     24  F   UNL     1      27.350 -22.555 -18.513  0.00  0.00    -0.133 F 
ATOM     25  C   UNL     1      27.956 -22.982 -17.383  0.00  0.00    +0.575 C 
ENDBRANCH  21  25
ENDBRANCH  20  21
ENDBRANCH  14  15
ENDBRANCH   1  14
TORSDOF 5
ENDMDL
MODEL 6
REMARK VINA RESULT:     -10.2      5.900      8.638
REMARK  Name = 456199
REMARK  5 active torsions:
REMARK  status: ('A' for Active; 'I' for Inactive)
REMARK    1  A    between atoms: O_1  and  C_5
REMARK    2  A    between atoms: O_1  and  C_14
REMARK    3  A    between atoms: C_14  and  C_15
REMARK    4  A    between atoms: C_20  and  O_21
REMARK    5  A    between atoms: O_21  and  C_25
REMARK                            x       y       z     vdW  Elec       q    Type
REMARK                         _______ _______ _______ _____ _____    ______ ____
ROOT
ATOM      1  O   UNL     1      32.827 -24.910 -14.352  0.00  0.00    -0.346 OA
ENDROOT
BRANCH   1   5
ATOM      2  O   UNL     1      31.397 -22.801 -17.016  0.00  0.00    -0.438 OA
ATOM      3  N   UNL     1      29.674 -23.465 -15.509  0.00  0.00    -0.242 N 
ATOM      4  N   UNL     1      29.139 -22.216 -17.261  0.00  0.00    -0.333 NA
ATOM      5  C   UNL     1      31.856 -24.522 -15.312  0.00  0.00    +0.179 C 
ATOM      6  C   UNL     1      30.524 -24.232 -14.628  0.00  0.00    +0.130 C 
ATOM      7  C   UNL     1      32.341 -23.271 -16.046  0.00  0.00    +0.241 C 
ATOM      8  C   UNL     1      30.125 -22.802 -16.619  0.00  0.00    +0.345 C 
ATOM      9  C   UNL     1      28.330 -23.280 -15.420  0.00  0.00    +0.181 C 
ATOM     10  C   UNL     1      28.019 -22.503 -16.514  0.00  0.00    +0.274 C 
ATOM     11  O   UNL     1      25.749 -22.269 -16.212  0.00  0.00    -0.124 OA
ATOM     12  O   UNL     1      26.682 -21.303 -17.953  0.00  0.00    -0.124 OA
ATOM     13  N   UNL     1      26.770 -22.007 -16.907  0.00  0.00    +0.085 N 
ENDBRANCH   1   5
BRANCH   1  14
ATOM     14  C   UNL     1      33.862 -23.943 -14.244  0.00  0.00    +0.169 C 
BRANCH  14  15
ATOM     15  C   UNL     1      35.186 -24.647 -14.209  0.00  0.00    +0.007 C 
ATOM     16  C   UNL     1      35.606 -25.379 -15.313  0.00  0.00    +0.001 C 
ATOM     17  C   UNL     1      35.982 -24.559 -13.073  0.00  0.00    +0.001 C 
ATOM     18  C   UNL     1      36.838 -26.034 -15.281  0.00  0.00    +0.037 C 
ATOM     19  C   UNL     1      37.214 -25.213 -13.039  0.00  0.00    +0.037 C 
ATOM     20  C   UNL     1      37.641 -25.950 -14.144  0.00  0.00    +0.147 C 
BRANCH  20  21
ATOM     21  O   UNL     1      38.843 -26.589 -14.112  0.00  0.00    -0.404 OA
BRANCH  21  25
ATOM     22  F   UNL     1      40.918 -26.740 -15.063  0.00  0.00    -0.133 F 
ATOM     23  F   UNL     1      40.542 -25.215 -13.544  0.00  0.00    -0.133 F 
ATOM     24  F   UNL     1      39.656 -24.987 -15.529  0.00  0.00    -0.133 F 
ATOM     25  C   UNL     1      39.990 -25.888 -14.579  0.00  0.00    +0.575 C 
ENDBRANCH  21  25
ENDBRANCH  20  21
ENDBRANCH  14  15
ENDBRANCH   1  14
TORSDOF 5
ENDMDL
MODEL 7
REMARK VINA RESULT:      -9.9      2.751      4.083
REMARK  Name = 456199
REMARK  5 active torsions:
REMARK  status: ('A' for Active; 'I' for Inactive)
REMARK    1  A    between atoms: O_1  and  C_5
REMARK    2  A    between atoms: O_1  and  C_14
REMARK    3  A    between atoms: C_14  and  C_15
REMARK    4  A    between atoms: C_20  and  O_21
REMARK    5  A    between atoms: O_21  and  C_25
REMARK                            x       y       z     vdW  Elec       q    Type
REMARK                         _______ _______ _______ _____ _____    ______ ____
ROOT
ATOM      1  O   UNL     1      36.293 -20.356 -20.466  0.00  0.00    -0.346 OA
ENDROOT
BRANCH   1   5
ATOM      2  O   UNL     1      34.837 -22.935 -18.272  0.00  0.00    -0.438 OA
ATOM      3  N   UNL     1      36.832 -22.079 -17.288  0.00  0.00    -0.242 N 
ATOM      4  N   UNL     1      35.726 -23.687 -16.236  0.00  0.00    -0.333 NA
ATOM      5  C   UNL     1      36.319 -21.469 -19.586  0.00  0.00    +0.179 C 
ATOM      6  C   UNL     1      37.132 -21.135 -18.339  0.00  0.00    +0.130 C 
ATOM      7  C   UNL     1      34.889 -21.833 -19.186  0.00  0.00    +0.241 C 
ATOM      8  C   UNL     1      35.739 -22.904 -17.291  0.00  0.00    +0.345 C 
ATOM      9  C   UNL     1      37.551 -22.331 -16.161  0.00  0.00    +0.181 C 
ATOM     10  C   UNL     1      36.847 -23.329 -15.523  0.00  0.00    +0.274 C 
ATOM     11  O   UNL     1      38.163 -23.622 -13.657  0.00  0.00    -0.124 OA
ATOM     12  O   UNL     1      36.364 -24.865 -13.879  0.00  0.00    -0.124 OA
ATOM     13  N   UNL     1      37.136 -23.962 -14.308  0.00  0.00    +0.085 N 
ENDBRANCH   1   5
BRANCH   1  14
ATOM     14  C   UNL     1      35.002 -20.173 -21.029  0.00  0.00    +0.169 C 
BRANCH  14  15
ATOM     15  C   UNL     1      35.092 -19.174 -22.145  0.00  0.00    +0.007 C 
ATOM     16  C   UNL     1      34.717 -19.544 -23.431  0.00  0.00    +0.001 C 
ATOM     17  C   UNL     1      35.549 -17.888 -21.881  0.00  0.00    +0.001 C 
ATOM     18  C   UNL     1      34.801 -18.614 -24.469  0.00  0.00    +0.037 C 
ATOM     19  C   UNL     1      35.633 -16.958 -22.918  0.00  0.00    +0.037 C 
ATOM     20  C   UNL     1      35.258 -17.322 -24.211  0.00  0.00    +0.147 C 
BRANCH  20  21
ATOM     21  O   UNL     1      35.340 -16.416 -25.224  0.00  0.00    -0.404 OA
BRANCH  21  25
ATOM     22  F   UNL     1      33.669 -14.995 -24.574  0.00  0.00    -0.133 F 
ATOM     23  F   UNL     1      33.215 -16.624 -25.959  0.00  0.00    -0.133 F 
ATOM     24  F   UNL     1      34.384 -14.917 -26.664  0.00  0.00    -0.133 F 
ATOM     25  C   UNL     1      34.157 -15.721 -25.602  0.00  0.00    +0.575 C 
ENDBRANCH  21  25
ENDBRANCH  20  21
ENDBRANCH  14  15
ENDBRANCH   1  14
TORSDOF 5
ENDMDL
MODEL 8
REMARK VINA RESULT:      -9.6      6.776     10.525
REMARK  Name = 456199
REMARK  5 active torsions:
REMARK  status: ('A' for Active; 'I' for Inactive)
REMARK    1  A    between atoms: O_1  and  C_5
REMARK    2  A    between atoms: O_1  and  C_14
REMARK    3  A    between atoms: C_14  and  C_15
REMARK    4  A    between atoms: C_20  and  O_21
REMARK    5  A    between atoms: O_21  and  C_25
REMARK                            x       y       z     vdW  Elec       q    Type
REMARK                         _______ _______ _______ _____ _____    ______ ____
ROOT
ATOM      1  O   UNL     1      35.637 -16.437 -24.347  0.00  0.00    -0.346 OA
ENDROOT
BRANCH   1   5
ATOM      2  O   UNL     1      33.096 -13.767 -24.415  0.00  0.00    -0.438 OA
ATOM      3  N   UNL     1      33.723 -14.219 -22.160  0.00  0.00    -0.242 N 
ATOM      4  N   UNL     1      32.172 -12.683 -22.551  0.00  0.00    -0.333 NA
ATOM      5  C   UNL     1      34.485 -15.737 -23.901  0.00  0.00    +0.179 C 
ATOM      6  C   UNL     1      34.686 -15.250 -22.469  0.00  0.00    +0.130 C 
ATOM      7  C   UNL     1      34.232 -14.541 -24.819  0.00  0.00    +0.241 C 
ATOM      8  C   UNL     1      33.001 -13.540 -23.104  0.00  0.00    +0.345 C 
ATOM      9  C   UNL     1      33.355 -13.760 -20.933  0.00  0.00    +0.181 C 
ATOM     10  C   UNL     1      32.395 -12.809 -21.199  0.00  0.00    +0.274 C 
ATOM     11  O   UNL     1      31.897 -12.128 -19.057  0.00  0.00    -0.124 OA
ATOM     12  O   UNL     1      30.831 -11.186 -20.732  0.00  0.00    -0.124 OA
ATOM     13  N   UNL     1      31.681 -12.011 -20.295  0.00  0.00    +0.085 N 
ENDBRANCH   1   5
BRANCH   1  14
ATOM     14  C   UNL     1      35.374 -17.825 -24.491  0.00  0.00    +0.169 C 
BRANCH  14  15
ATOM     15  C   UNL     1      35.707 -18.522 -23.204  0.00  0.00    +0.007 C 
ATOM     16  C   UNL     1      36.979 -18.391 -22.661  0.00  0.00    +0.001 C 
ATOM     17  C   UNL     1      34.740 -19.292 -22.569  0.00  0.00    +0.001 C 
ATOM     18  C   UNL     1      37.289 -19.039 -21.464  0.00  0.00    +0.037 C 
ATOM     19  C   UNL     1      35.049 -19.941 -21.373  0.00  0.00    +0.037 C 
ATOM     20  C   UNL     1      36.324 -19.814 -20.821  0.00  0.00    +0.147 C 
BRANCH  20  21
ATOM     21  O   UNL     1      36.626 -20.446 -19.654  0.00  0.00    -0.404 OA
BRANCH  21  25
ATOM     22  F   UNL     1      34.777 -21.633 -19.022  0.00  0.00    -0.133 F 
ATOM     23  F   UNL     1      36.759 -22.339 -18.432  0.00  0.00    -0.133 F 
ATOM     24  F   UNL     1      36.144 -22.507 -20.523  0.00  0.00    -0.133 F 
ATOM     25  C   UNL     1      36.063 -21.731 -19.419  0.00  0.00    +0.575 C 
ENDBRANCH  21  25
ENDBRANCH  20  21
ENDBRANCH  14  15
ENDBRANCH   1  14
TORSDOF 5
ENDMDL
MODEL 9
REMARK VINA RESULT:      -9.6     10.128     13.377
REMARK  Name = 456199
REMARK  5 active torsions:
REMARK  status: ('A' for Active; 'I' for Inactive)
REMARK    1  A    between atoms: O_1  and  C_5
REMARK    2  A    between atoms: O_1  and  C_14
REMARK    3  A    between atoms: C_14  and  C_15
REMARK    4  A    between atoms: C_20  and  O_21
REMARK    5  A    between atoms: O_21  and  C_25
REMARK                            x       y       z     vdW  Elec       q    Type
REMARK                         _______ _______ _______ _____ _____    ______ ____
ROOT
ATOM      1  O   UNL     1      33.779 -11.990 -25.515  0.00  0.00    -0.346 OA
ENDROOT
BRANCH   1   5
ATOM      2  O   UNL     1      33.761 -15.424 -26.854  0.00  0.00    -0.438 OA
ATOM      3  N   UNL     1      34.544 -15.447 -24.603  0.00  0.00    -0.242 N 
ATOM      4  N   UNL     1      34.450 -17.359 -25.721  0.00  0.00    -0.333 NA
ATOM      5  C   UNL     1      34.285 -13.301 -25.719  0.00  0.00    +0.179 C 
ATOM      6  C   UNL     1      34.427 -14.024 -24.383  0.00  0.00    +0.130 C 
ATOM      7  C   UNL     1      33.329 -14.078 -26.625  0.00  0.00    +0.241 C 
ATOM      8  C   UNL     1      34.214 -16.067 -25.778  0.00  0.00    +0.345 C 
ATOM      9  C   UNL     1      34.998 -16.391 -23.736  0.00  0.00    +0.181 C 
ATOM     10  C   UNL     1      34.930 -17.569 -24.448  0.00  0.00    +0.274 C 
ATOM     11  O   UNL     1      35.702 -19.046 -22.861  0.00  0.00    -0.124 OA
ATOM     12  O   UNL     1      35.138 -19.828 -24.836  0.00  0.00    -0.124 OA
ATOM     13  N   UNL     1      35.270 -18.862 -24.033  0.00  0.00    +0.085 N 
ENDBRANCH   1   5
BRANCH   1  14
ATOM     14  C   UNL     1      34.795 -11.110 -25.058  0.00  0.00    +0.169 C 
BRANCH  14  15
ATOM     15  C   UNL     1      34.179 -10.076 -24.162  0.00  0.00    +0.007 C 
ATOM     16  C   UNL     1      32.999 -10.365 -23.489  0.00  0.00    +0.001 C 
ATOM     17  C   UNL     1      34.796  -8.839 -24.013  0.00  0.00    +0.001 C 
ATOM     18  C   UNL     1      32.426  -9.403 -22.655  0.00  0.00    +0.037 C 
ATOM     19  C   UNL     1      34.224  -7.877 -23.180  0.00  0.00    +0.037 C 
ATOM     20  C   UNL     1      33.039  -8.160 -22.501  0.00  0.00    +0.147 C 
BRANCH  20  21
ATOM     21  O   UNL     1      32.480  -7.222 -21.688  0.00  0.00    -0.404 OA
BRANCH  21  25
ATOM     22  F   UNL     1      32.585  -5.110 -22.557  0.00  0.00    -0.133 F 
ATOM     23  F   UNL     1      30.815  -5.719 -21.429  0.00  0.00    -0.133 F 
ATOM     24  F   UNL     1      31.150  -6.549 -23.423  0.00  0.00    -0.133 F 
ATOM     25  C   UNL     1      31.767  -6.148 -22.290  0.00  0.00    +0.575 C 
ENDBRANCH  21  25
ENDBRANCH  20  21
ENDBRANCH  14  15
ENDBRANCH   1  14
TORSDOF 5
ENDMDL
