MODEL 1
REMARK VINA RESULT:     -12.8      0.000      0.000
REMARK  Name = 23656870
REMARK  4 active torsions:
REMARK  status: ('A' for Active; 'I' for Inactive)
REMARK    1  A    between atoms: N_2  and  C_25
REMARK    2  A    between atoms: N_3  and  C_14
REMARK    3  A    between atoms: C_10  and  C_32
REMARK    4  A    between atoms: C_16  and  N_21
REMARK                            x       y       z     vdW  Elec       q    Type
REMARK                         _______ _______ _______ _____ _____    ______ ____
ROOT
ATOM      1  N   UNL     1      32.026 -23.502 -15.445  0.00  0.00    -0.123 N 
ATOM      2  N   UNL     1      34.275 -23.999 -14.929  0.00  0.00    -0.274 N 
ATOM      3  N   UNL     1      32.965 -22.310 -19.149  0.00  0.00    -0.238 N 
ATOM      4  N   UNL     1      33.625 -23.154 -17.045  0.00  0.00    -0.295 NA
ATOM      5  N   UNL     1      31.339 -22.663 -17.533  0.00  0.00    -0.314 NA
ATOM      6  N   UNL     1      31.596 -23.878 -14.227  0.00  0.00    -0.170 NA
ATOM      7  C   UNL     1      33.355 -23.548 -15.835  0.00  0.00    +0.279 C 
ATOM      8  C   UNL     1      31.036 -23.069 -16.280  0.00  0.00    +0.219 C 
ATOM      9  C   UNL     1      32.605 -22.713 -17.885  0.00  0.00    +0.207 C 
ATOM     10  C   UNL     1      29.872 -23.169 -15.552  0.00  0.00    +0.203 C 
ATOM     11  C   UNL     1      30.278 -23.671 -14.298  0.00  0.00    +0.116 C 
ATOM     12  H   UNL     1      33.920 -24.263 -14.049  0.00  0.00    +0.156 HD
ATOM     13  H   UNL     1      32.289 -22.439 -19.852  0.00  0.00    +0.166 HD
ENDROOT
BRANCH   3  14
ATOM     14  C   UNL     1      34.170 -21.742 -19.559  0.00  0.00    +0.060 C 
ATOM     15  C   UNL     1      34.192 -20.850 -20.631  0.00  0.00    +0.030 C 
ATOM     16  C   UNL     1      35.398 -20.281 -21.039  0.00  0.00    +0.052 C 
ATOM     17  C   UNL     1      35.354 -22.066 -18.896  0.00  0.00    +0.015 C 
ATOM     18  C   UNL     1      36.582 -20.604 -20.377  0.00  0.00    +0.015 C 
ATOM     19  C   UNL     1      36.561 -21.496 -19.305  0.00  0.00    +0.003 C 
BRANCH  16  21
ATOM     20  O   UNL     1      35.633 -17.279 -21.083  0.00  0.00    -0.275 OA
ATOM     21  N   UNL     1      35.421 -19.390 -22.112  0.00  0.00    -0.284 N 
ATOM     22  C   UNL     1      35.532 -17.993 -22.076  0.00  0.00    +0.227 C 
ATOM     23  C   UNL     1      35.519 -17.394 -23.460  0.00  0.00    +0.095 C 
ATOM     24  H   UNL     1      35.351 -19.792 -23.009  0.00  0.00    +0.155 HD
ENDBRANCH  16  21
ENDBRANCH   3  14
BRANCH   2  25
ATOM     25  C   UNL     1      35.656 -24.133 -15.092  0.00  0.00    +0.051 C 
ATOM     26  C   UNL     1      36.422 -23.038 -15.492  0.00  0.00    +0.015 C 
ATOM     27  C   UNL     1      36.271 -25.364 -14.856  0.00  0.00    +0.015 C 
ATOM     28  C   UNL     1      37.801 -23.172 -15.655  0.00  0.00    +0.001 C 
ATOM     29  C   UNL     1      37.650 -25.497 -15.019  0.00  0.00    +0.001 C 
ATOM     30  C   UNL     1      38.415 -24.402 -15.418  0.00  0.00    +0.000 C 
ENDBRANCH   2  25
BRANCH  10  32
ATOM     31  N   UNL     1      27.494 -22.558 -16.347  0.00  0.00    -0.195 NA
ATOM     32  C   UNL     1      28.564 -22.832 -15.989  0.00  0.00    +0.087 C 
ENDBRANCH  10  32
TORSDOF 4
ENDMDL
MODEL 2
REMARK VINA RESULT:     -12.0      2.274      5.721
REMARK  Name = 23656870
REMARK  4 active torsions:
REMARK  status: ('A' for Active; 'I' for Inactive)
REMARK    1  A    between atoms: N_2  and  C_25
REMARK    2  A    between atoms: N_3  and  C_14
REMARK    3  A    between atoms: C_10  and  C_32
REMARK    4  A    between atoms: C_16  and  N_21
REMARK                            x       y       z     vdW  Elec       q    Type
REMARK                         _______ _______ _______ _____ _____    ______ ____
ROOT
ATOM      1  N   UNL     1      36.602 -25.036 -14.247  0.00  0.00    -0.123 N 
ATOM      2  N   UNL     1      34.255 -24.838 -14.097  0.00  0.00    -0.274 N 
ATOM      3  N   UNL     1      36.807 -22.364 -17.220  0.00  0.00    -0.238 N 
ATOM      4  N   UNL     1      35.527 -23.595 -15.663  0.00  0.00    -0.295 NA
ATOM      5  N   UNL     1      37.903 -23.821 -15.785  0.00  0.00    -0.314 NA
ATOM      6  N   UNL     1      36.652 -25.945 -13.255  0.00  0.00    -0.170 NA
ATOM      7  C   UNL     1      35.425 -24.460 -14.696  0.00  0.00    +0.279 C 
ATOM      8  C   UNL     1      37.819 -24.722 -14.780  0.00  0.00    +0.219 C 
ATOM      9  C   UNL     1      36.775 -23.285 -16.199  0.00  0.00    +0.207 C 
ATOM     10  C   UNL     1      38.732 -25.482 -14.086  0.00  0.00    +0.203 C 
ATOM     11  C   UNL     1      37.958 -26.213 -13.162  0.00  0.00    +0.116 C 
ATOM     12  H   UNL     1      34.335 -25.504 -13.377  0.00  0.00    +0.156 HD
ATOM     13  H   UNL     1      37.624 -21.820 -17.285  0.00  0.00    +0.166 HD
ENDROOT
BRANCH   3  14
ATOM     14  C   UNL     1      35.823 -22.105 -18.173  0.00  0.00    +0.060 C 
ATOM     15  C   UNL     1      36.119 -21.314 -19.283  0.00  0.00    +0.030 C 
ATOM     16  C   UNL     1      35.136 -21.056 -20.237  0.00  0.00    +0.052 C 
ATOM     17  C   UNL     1      34.544 -22.638 -18.017  0.00  0.00    +0.015 C 
ATOM     18  C   UNL     1      33.856 -21.588 -20.082  0.00  0.00    +0.015 C 
ATOM     19  C   UNL     1      33.560 -22.380 -18.972  0.00  0.00    +0.003 C 
BRANCH  16  21
ATOM     20  O   UNL     1      37.204 -18.899 -20.605  0.00  0.00    -0.275 OA
ATOM     21  N   UNL     1      35.431 -20.264 -21.347  0.00  0.00    -0.284 N 
ATOM     22  C   UNL     1      36.410 -19.267 -21.464  0.00  0.00    +0.227 C 
ATOM     23  C   UNL     1      36.409 -18.640 -22.835  0.00  0.00    +0.095 C 
ATOM     24  H   UNL     1      34.883 -20.424 -22.150  0.00  0.00    +0.155 HD
ENDBRANCH  16  21
ENDBRANCH   3  14
BRANCH   2  25
ATOM     25  C   UNL     1      32.958 -24.397 -14.377  0.00  0.00    +0.051 C 
ATOM     26  C   UNL     1      32.755 -23.136 -14.935  0.00  0.00    +0.015 C 
ATOM     27  C   UNL     1      31.866 -25.220 -14.099  0.00  0.00    +0.015 C 
ATOM     28  C   UNL     1      31.461 -22.695 -15.215  0.00  0.00    +0.001 C 
ATOM     29  C   UNL     1      30.572 -24.781 -14.379  0.00  0.00    +0.001 C 
ATOM     30  C   UNL     1      30.369 -23.518 -14.936  0.00  0.00    +0.000 C 
ENDBRANCH   2  25
BRANCH  10  32
ATOM     31  N   UNL     1      41.289 -25.526 -14.435  0.00  0.00    -0.195 NA
ATOM     32  C   UNL     1      40.139 -25.506 -14.278  0.00  0.00    +0.087 C 
ENDBRANCH  10  32
TORSDOF 4
ENDMDL
MODEL 3
REMARK VINA RESULT:     -10.2      2.637      6.300
REMARK  Name = 23656870
REMARK  4 active torsions:
REMARK  status: ('A' for Active; 'I' for Inactive)
REMARK    1  A    between atoms: N_2  and  C_25
REMARK    2  A    between atoms: N_3  and  C_14
REMARK    3  A    between atoms: C_10  and  C_32
REMARK    4  A    between atoms: C_16  and  N_21
REMARK                            x       y       z     vdW  Elec       q    Type
REMARK                         _______ _______ _______ _____ _____    ______ ____
ROOT
ATOM      1  N   UNL     1      31.587 -23.330 -17.033  0.00  0.00    -0.123 N 
ATOM      2  N   UNL     1      32.707 -22.249 -18.808  0.00  0.00    -0.274 N 
ATOM      3  N   UNL     1      34.885 -23.391 -14.766  0.00  0.00    -0.238 N 
ATOM      4  N   UNL     1      33.803 -22.818 -16.785  0.00  0.00    -0.295 NA
ATOM      5  N   UNL     1      32.637 -23.911 -15.010  0.00  0.00    -0.314 NA
ATOM      6  N   UNL     1      30.421 -23.364 -17.705  0.00  0.00    -0.170 NA
ATOM      7  C   UNL     1      32.750 -22.782 -17.548  0.00  0.00    +0.279 C 
ATOM      8  C   UNL     1      31.531 -23.883 -15.786  0.00  0.00    +0.219 C 
ATOM      9  C   UNL     1      33.732 -23.387 -15.515  0.00  0.00    +0.207 C 
ATOM     10  C   UNL     1      30.231 -24.311 -15.632  0.00  0.00    +0.203 C 
ATOM     11  C   UNL     1      29.597 -23.965 -16.843  0.00  0.00    +0.116 C 
ATOM     12  H   UNL     1      31.836 -22.294 -19.265  0.00  0.00    +0.156 HD
ATOM     13  H   UNL     1      34.765 -23.350 -13.790  0.00  0.00    +0.166 HD
ENDROOT
BRANCH   3  14
ATOM     14  C   UNL     1      36.202 -23.447 -15.217  0.00  0.00    +0.060 C 
ATOM     15  C   UNL     1      37.039 -24.482 -14.800  0.00  0.00    +0.030 C 
ATOM     16  C   UNL     1      38.357 -24.538 -15.253  0.00  0.00    +0.052 C 
ATOM     17  C   UNL     1      36.683 -22.468 -16.087  0.00  0.00    +0.015 C 
ATOM     18  C   UNL     1      38.838 -23.559 -16.122  0.00  0.00    +0.015 C 
ATOM     19  C   UNL     1      38.001 -22.524 -16.540  0.00  0.00    +0.003 C 
BRANCH  16  21
ATOM     20  O   UNL     1      41.354 -24.638 -14.987  0.00  0.00    -0.275 OA
ATOM     21  N   UNL     1      39.195 -25.571 -14.835  0.00  0.00    -0.284 N 
ATOM     22  C   UNL     1      40.593 -25.564 -14.731  0.00  0.00    +0.227 C 
ATOM     23  C   UNL     1      41.124 -26.887 -14.237  0.00  0.00    +0.095 C 
ATOM     24  H   UNL     1      38.750 -26.413 -14.581  0.00  0.00    +0.155 HD
ENDBRANCH  16  21
ENDBRANCH   3  14
BRANCH   2  25
ATOM     25  C   UNL     1      33.742 -21.647 -19.528  0.00  0.00    +0.051 C 
ATOM     26  C   UNL     1      35.057 -22.078 -19.353  0.00  0.00    +0.015 C 
ATOM     27  C   UNL     1      33.461 -20.614 -20.423  0.00  0.00    +0.015 C 
ATOM     28  C   UNL     1      36.090 -21.478 -20.072  0.00  0.00    +0.001 C 
ATOM     29  C   UNL     1      34.494 -20.014 -21.143  0.00  0.00    +0.001 C 
ATOM     30  C   UNL     1      35.809 -20.445 -20.967  0.00  0.00    +0.000 C 
ENDBRANCH   2  25
BRANCH  10  32
ATOM     31  N   UNL     1      29.226 -25.484 -13.565  0.00  0.00    -0.195 NA
ATOM     32  C   UNL     1      29.678 -24.956 -14.494  0.00  0.00    +0.087 C 
ENDBRANCH  10  32
TORSDOF 4
ENDMDL
