MODEL 1
REMARK VINA RESULT:     -11.9      0.000      0.000
REMARK  Name = 447736
REMARK  4 active torsions:
REMARK  status: ('A' for Active; 'I' for Inactive)
REMARK    1  A    between atoms: N_2  and  C_13
REMARK    2  A    between atoms: C_3  and  C_20
REMARK    3  A    between atoms: C_6  and  C_17
REMARK    4  A    between atoms: C_28  and  C_32
REMARK                            x       y       z     vdW  Elec       q    Type
REMARK                         _______ _______ _______ _____ _____    ______ ____
ROOT
ATOM      1  O   UNL     1      34.064 -24.024 -18.198  0.00  0.00    -0.270 OA
ATOM      2  N   UNL     1      35.202 -22.459 -16.862  0.00  0.00    -0.280 N 
ATOM      3  C   UNL     1      34.559 -22.916 -18.021  0.00  0.00    +0.249 C 
ATOM      4  H   UNL     1      35.543 -21.536 -16.893  0.00  0.00    +0.155 HD
ENDROOT
BRANCH   2  13
ATOM      5  N   UNL     1      38.370 -25.736 -12.669  0.00  0.00    +0.388 N 
ATOM      6  C   UNL     1      38.343 -24.770 -13.785  0.00  0.00    -0.039 C 
ATOM      7  C   UNL     1      36.941 -24.305 -14.157  0.00  0.00    -0.045 C 
ATOM      8  C   UNL     1      35.866 -24.510 -13.268  0.00  0.00    -0.030 C 
ATOM      9  C   UNL     1      36.074 -25.244 -11.967  0.00  0.00    +0.003 C 
ATOM     10  C   UNL     1      37.544 -25.272 -11.556  0.00  0.00    -0.076 C 
ATOM     11  C   UNL     1      36.701 -23.599 -15.347  0.00  0.00    +0.008 C 
ATOM     12  C   UNL     1      34.579 -24.068 -13.606  0.00  0.00    -0.003 C 
ATOM     13  C   UNL     1      35.418 -23.152 -15.670  0.00  0.00    +0.050 C 
ATOM     14  C   UNL     1      34.357 -23.391 -14.804  0.00  0.00    +0.014 C 
ATOM     15  H   UNL     1      39.331 -25.848 -12.347  0.00  0.00    -0.084 HD
ATOM     16  H   UNL     1      37.998 -26.626 -13.000  0.00  0.00    -0.084 HD
BRANCH   6  17
ATOM     17  C   UNL     1      39.094 -25.426 -14.951  0.00  0.00    -0.015 C 
ATOM     18  C   UNL     1      40.565 -25.611 -14.598  0.00  0.00    -0.002 C 
ATOM     19  C   UNL     1      38.450 -26.761 -15.311  0.00  0.00    -0.002 C 
ENDBRANCH   6  17
ENDBRANCH   2  13
BRANCH   3  20
ATOM     20  C   UNL     1      34.510 -21.946 -19.145  0.00  0.00    +0.054 C 
ATOM     21  C   UNL     1      35.655 -20.434 -20.624  0.00  0.00    +0.000 C 
ATOM     22  C   UNL     1      35.684 -21.354 -19.563  0.00  0.00    +0.005 C 
ATOM     23  C   UNL     1      34.419 -20.131 -21.245  0.00  0.00    +0.000 C 
ATOM     24  C   UNL     1      33.297 -21.669 -19.730  0.00  0.00    +0.005 C 
ATOM     25  C   UNL     1      33.249 -20.758 -20.785  0.00  0.00    +0.000 C 
ATOM     26  C   UNL     1      34.390 -19.211 -22.305  0.00  0.00    +0.003 C 
ATOM     27  C   UNL     1      36.824 -19.808 -21.083  0.00  0.00    +0.000 C 
ATOM     28  C   UNL     1      35.562 -18.599 -22.748  0.00  0.00    +0.031 C 
ATOM     29  C   UNL     1      36.777 -18.897 -22.138  0.00  0.00    +0.003 C 
BRANCH  28  32
ATOM     30  N   UNL     1      34.879 -17.958 -25.048  0.00  0.00    -0.343 N 
ATOM     31  N   UNL     1      36.085 -16.463 -23.717  0.00  0.00    -0.285 NA
ATOM     32  C   UNL     1      35.515 -17.647 -23.847  0.00  0.00    +0.117 C 
ATOM     33  H   UNL     1      34.858 -17.298 -25.779  0.00  0.00    +0.144 HD
ATOM     34  H   UNL     1      34.450 -18.836 -25.165  0.00  0.00    +0.144 HD
ATOM     35  H   UNL     1      36.054 -15.817 -24.460  0.00  0.00    +0.188 HD
ENDBRANCH  28  32
ENDBRANCH   3  20
TORSDOF 4
ENDMDL
MODEL 2
REMARK VINA RESULT:     -11.5      2.261     10.386
REMARK  Name = 447736
REMARK  4 active torsions:
REMARK  status: ('A' for Active; 'I' for Inactive)
REMARK    1  A    between atoms: N_2  and  C_13
REMARK    2  A    between atoms: C_3  and  C_20
REMARK    3  A    between atoms: C_6  and  C_17
REMARK    4  A    between atoms: C_28  and  C_32
REMARK                            x       y       z     vdW  Elec       q    Type
REMARK                         _______ _______ _______ _____ _____    ______ ____
ROOT
ATOM      1  O   UNL     1      32.962 -20.938 -20.879  0.00  0.00    -0.270 OA
ATOM      2  N   UNL     1      35.159 -20.123 -21.078  0.00  0.00    -0.280 N 
ATOM      3  C   UNL     1      34.127 -20.876 -20.501  0.00  0.00    +0.249 C 
ATOM      4  H   UNL     1      36.039 -20.190 -20.642  0.00  0.00    +0.155 HD
ENDROOT
BRANCH   2  13
ATOM      5  N   UNL     1      34.690 -14.787 -24.186  0.00  0.00    +0.388 N 
ATOM      6  C   UNL     1      35.070 -15.531 -22.969  0.00  0.00    -0.039 C 
ATOM      7  C   UNL     1      35.028 -17.044 -23.139  0.00  0.00    -0.045 C 
ATOM      8  C   UNL     1      34.993 -17.612 -24.429  0.00  0.00    -0.030 C 
ATOM      9  C   UNL     1      34.933 -16.734 -25.654  0.00  0.00    +0.003 C 
ATOM     10  C   UNL     1      35.391 -15.309 -25.358  0.00  0.00    -0.076 C 
ATOM     11  C   UNL     1      35.103 -17.902 -22.030  0.00  0.00    +0.008 C 
ATOM     12  C   UNL     1      34.969 -19.005 -24.583  0.00  0.00    -0.003 C 
ATOM     13  C   UNL     1      35.092 -19.289 -22.195  0.00  0.00    +0.050 C 
ATOM     14  C   UNL     1      35.018 -19.840 -23.469  0.00  0.00    +0.014 C 
ATOM     15  H   UNL     1      34.929 -13.803 -24.065  0.00  0.00    -0.084 HD
ATOM     16  H   UNL     1      33.686 -14.896 -24.334  0.00  0.00    -0.084 HD
BRANCH   6  17
ATOM     17  C   UNL     1      34.161 -15.022 -21.843  0.00  0.00    -0.015 C 
ATOM     18  C   UNL     1      34.997 -14.561 -20.654  0.00  0.00    -0.002 C 
ATOM     19  C   UNL     1      33.271 -13.893 -22.350  0.00  0.00    -0.002 C 
ENDBRANCH   6  17
ENDBRANCH   2  13
BRANCH   3  20
ATOM     20  C   UNL     1      34.505 -21.649 -19.289  0.00  0.00    +0.054 C 
ATOM     21  C   UNL     1      36.174 -22.283 -17.677  0.00  0.00    +0.000 C 
ATOM     22  C   UNL     1      35.799 -21.557 -18.820  0.00  0.00    +0.005 C 
ATOM     23  C   UNL     1      35.214 -23.096 -17.028  0.00  0.00    +0.000 C 
ATOM     24  C   UNL     1      33.555 -22.432 -18.678  0.00  0.00    +0.005 C 
ATOM     25  C   UNL     1      33.908 -23.161 -17.542  0.00  0.00    +0.000 C 
ATOM     26  C   UNL     1      35.589 -23.822 -15.886  0.00  0.00    +0.003 C 
ATOM     27  C   UNL     1      37.479 -22.218 -17.163  0.00  0.00    +0.000 C 
ATOM     28  C   UNL     1      36.890 -23.746 -15.389  0.00  0.00    +0.031 C 
ATOM     29  C   UNL     1      37.833 -22.945 -16.027  0.00  0.00    +0.003 C 
BRANCH  28  32
ATOM     30  N   UNL     1      36.466 -25.545 -13.731  0.00  0.00    -0.343 N 
ATOM     31  N   UNL     1      38.374 -24.207 -13.556  0.00  0.00    -0.285 NA
ATOM     32  C   UNL     1      37.262 -24.504 -14.205  0.00  0.00    +0.117 C 
ATOM     33  H   UNL     1      36.738 -26.046 -12.928  0.00  0.00    +0.144 HD
ATOM     34  H   UNL     1      35.633 -25.780 -14.200  0.00  0.00    +0.144 HD
ATOM     35  H   UNL     1      38.627 -24.719 -12.755  0.00  0.00    +0.188 HD
ENDBRANCH  28  32
ENDBRANCH   3  20
TORSDOF 4
ENDMDL
MODEL 3
REMARK VINA RESULT:     -11.4      2.253     10.595
REMARK  Name = 447736
REMARK  4 active torsions:
REMARK  status: ('A' for Active; 'I' for Inactive)
REMARK    1  A    between atoms: N_2  and  C_13
REMARK    2  A    between atoms: C_3  and  C_20
REMARK    3  A    between atoms: C_6  and  C_17
REMARK    4  A    between atoms: C_28  and  C_32
REMARK                            x       y       z     vdW  Elec       q    Type
REMARK                         _______ _______ _______ _____ _____    ______ ____
ROOT
ATOM      1  O   UNL     1      33.718 -21.193 -20.632  0.00  0.00    -0.270 OA
ATOM      2  N   UNL     1      35.713 -19.982 -20.915  0.00  0.00    -0.280 N 
ATOM      3  C   UNL     1      34.858 -20.899 -20.289  0.00  0.00    +0.249 C 
ATOM      4  H   UNL     1      36.600 -19.867 -20.502  0.00  0.00    +0.155 HD
ENDROOT
BRANCH   2  13
ATOM      5  N   UNL     1      34.473 -14.857 -24.163  0.00  0.00    +0.388 N 
ATOM      6  C   UNL     1      35.037 -15.508 -22.964  0.00  0.00    -0.039 C 
ATOM      7  C   UNL     1      35.110 -17.026 -23.070  0.00  0.00    -0.045 C 
ATOM      8  C   UNL     1      34.994 -17.656 -24.326  0.00  0.00    -0.030 C 
ATOM      9  C   UNL     1      34.736 -16.845 -25.571  0.00  0.00    +0.003 C 
ATOM     10  C   UNL     1      35.096 -15.374 -25.380  0.00  0.00    -0.076 C 
ATOM     11  C   UNL     1      35.370 -17.821 -21.942  0.00  0.00    +0.008 C 
ATOM     12  C   UNL     1      35.077 -19.052 -24.422  0.00  0.00    -0.003 C 
ATOM     13  C   UNL     1      35.462 -19.210 -22.050  0.00  0.00    +0.050 C 
ATOM     14  C   UNL     1      35.310 -19.826 -23.288  0.00  0.00    +0.014 C 
ATOM     15  H   UNL     1      34.637 -13.852 -24.106  0.00  0.00    -0.084 HD
ATOM     16  H   UNL     1      33.473 -15.055 -24.201  0.00  0.00    -0.084 HD
BRANCH   6  17
ATOM     17  C   UNL     1      34.204 -15.023 -21.770  0.00  0.00    -0.015 C 
ATOM     18  C   UNL     1      35.112 -14.443 -20.691  0.00  0.00    -0.002 C 
ATOM     19  C   UNL     1      33.176 -13.993 -22.225  0.00  0.00    -0.002 C 
ENDBRANCH   6  17
ENDBRANCH   2  13
BRANCH   3  20
ATOM     20  C   UNL     1      35.405 -21.549 -19.069  0.00  0.00    +0.054 C 
ATOM     21  C   UNL     1      35.075 -22.970 -17.157  0.00  0.00    +0.000 C 
ATOM     22  C   UNL     1      34.573 -22.349 -18.314  0.00  0.00    +0.005 C 
ATOM     23  C   UNL     1      36.426 -22.761 -16.789  0.00  0.00    +0.000 C 
ATOM     24  C   UNL     1      36.720 -21.329 -18.734  0.00  0.00    +0.005 C 
ATOM     25  C   UNL     1      37.236 -21.937 -17.589  0.00  0.00    +0.000 C 
ATOM     26  C   UNL     1      36.927 -23.382 -15.634  0.00  0.00    +0.003 C 
ATOM     27  C   UNL     1      34.266 -23.793 -16.359  0.00  0.00    +0.000 C 
ATOM     28  C   UNL     1      36.108 -24.197 -14.852  0.00  0.00    +0.031 C 
ATOM     29  C   UNL     1      34.780 -24.402 -15.214  0.00  0.00    +0.003 C 
BRANCH  28  32
ATOM     30  N   UNL     1      38.016 -24.938 -13.445  0.00  0.00    -0.343 N 
ATOM     31  N   UNL     1      35.818 -25.324 -12.750  0.00  0.00    -0.285 NA
ATOM     32  C   UNL     1      36.642 -24.832 -13.658  0.00  0.00    +0.117 C 
ATOM     33  H   UNL     1      38.355 -25.371 -12.628  0.00  0.00    +0.144 HD
ATOM     34  H   UNL     1      38.646 -24.579 -14.111  0.00  0.00    +0.144 HD
ATOM     35  H   UNL     1      36.178 -25.753 -11.940  0.00  0.00    +0.188 HD
ENDBRANCH  28  32
ENDBRANCH   3  20
TORSDOF 4
ENDMDL
MODEL 4
REMARK VINA RESULT:     -11.1      8.816     15.544
REMARK  Name = 447736
REMARK  4 active torsions:
REMARK  status: ('A' for Active; 'I' for Inactive)
REMARK    1  A    between atoms: N_2  and  C_13
REMARK    2  A    between atoms: C_3  and  C_20
REMARK    3  A    between atoms: C_6  and  C_17
REMARK    4  A    between atoms: C_28  and  C_32
REMARK                            x       y       z     vdW  Elec       q    Type
REMARK                         _______ _______ _______ _____ _____    ______ ____
ROOT
ATOM      1  O   UNL     1      31.435 -11.607 -21.970  0.00  0.00    -0.270 OA
ATOM      2  N   UNL     1      33.193 -10.330 -22.869  0.00  0.00    -0.280 N 
ATOM      3  C   UNL     1      32.525 -11.513 -22.524  0.00  0.00    +0.249 C 
ATOM      4  H   UNL     1      34.066 -10.440 -23.311  0.00  0.00    +0.155 HD
ENDROOT
BRANCH   2  13
ATOM      5  N   UNL     1      32.090  -4.408 -24.305  0.00  0.00    +0.388 N 
ATOM      6  C   UNL     1      32.254  -5.816 -24.717  0.00  0.00    -0.039 C 
ATOM      7  C   UNL     1      32.325  -6.790 -23.548  0.00  0.00    -0.045 C 
ATOM      8  C   UNL     1      31.900  -6.390 -22.264  0.00  0.00    -0.030 C 
ATOM      9  C   UNL     1      31.429  -4.979 -22.016  0.00  0.00    +0.003 C 
ATOM     10  C   UNL     1      31.028  -4.275 -23.309  0.00  0.00    -0.076 C 
ATOM     11  C   UNL     1      32.736  -8.120 -23.734  0.00  0.00    +0.008 C 
ATOM     12  C   UNL     1      31.952  -7.293 -21.193  0.00  0.00    -0.003 C 
ATOM     13  C   UNL     1      32.773  -9.016 -22.663  0.00  0.00    +0.050 C 
ATOM     14  C   UNL     1      32.388  -8.601 -21.392  0.00  0.00    +0.014 C 
ATOM     15  H   UNL     1      31.852  -3.847 -25.123  0.00  0.00    -0.084 HD
ATOM     16  H   UNL     1      32.965  -4.086 -23.892  0.00  0.00    -0.084 HD
BRANCH   6  17
ATOM     17  C   UNL     1      33.490  -5.867 -25.624  0.00  0.00    -0.015 C 
ATOM     18  C   UNL     1      33.438  -4.745 -26.655  0.00  0.00    -0.002 C 
ATOM     19  C   UNL     1      34.763  -5.778 -24.789  0.00  0.00    -0.002 C 
ENDBRANCH   6  17
ENDBRANCH   2  13
BRANCH   3  20
ATOM     20  C   UNL     1      33.248 -12.770 -22.851  0.00  0.00    +0.054 C 
ATOM     21  C   UNL     1      34.317 -14.794 -22.112  0.00  0.00    +0.000 C 
ATOM     22  C   UNL     1      33.631 -13.603 -21.820  0.00  0.00    +0.005 C 
ATOM     23  C   UNL     1      34.601 -15.117 -23.460  0.00  0.00    +0.000 C 
ATOM     24  C   UNL     1      33.513 -13.060 -24.168  0.00  0.00    +0.005 C 
ATOM     25  C   UNL     1      34.193 -14.238 -24.477  0.00  0.00    +0.000 C 
ATOM     26  C   UNL     1      35.286 -16.307 -23.752  0.00  0.00    +0.003 C 
ATOM     27  C   UNL     1      34.725 -15.672 -21.095  0.00  0.00    +0.000 C 
ATOM     28  C   UNL     1      35.684 -17.168 -22.729  0.00  0.00    +0.031 C 
ATOM     29  C   UNL     1      35.404 -16.851 -21.403  0.00  0.00    +0.003 C 
BRANCH  28  32
ATOM     30  N   UNL     1      37.744 -18.556 -22.739  0.00  0.00    -0.343 N 
ATOM     31  N   UNL     1      35.756 -19.389 -23.644  0.00  0.00    -0.285 NA
ATOM     32  C   UNL     1      36.394 -18.397 -23.047  0.00  0.00    +0.117 C 
ATOM     33  H   UNL     1      38.204 -19.397 -22.963  0.00  0.00    +0.144 HD
ATOM     34  H   UNL     1      38.236 -17.827 -22.296  0.00  0.00    +0.144 HD
ATOM     35  H   UNL     1      36.235 -20.222 -23.860  0.00  0.00    +0.188 HD
ENDBRANCH  28  32
ENDBRANCH   3  20
TORSDOF 4
ENDMDL
MODEL 5
REMARK VINA RESULT:     -11.1      1.134      2.626
REMARK  Name = 447736
REMARK  4 active torsions:
REMARK  status: ('A' for Active; 'I' for Inactive)
REMARK    1  A    between atoms: N_2  and  C_13
REMARK    2  A    between atoms: C_3  and  C_20
REMARK    3  A    between atoms: C_6  and  C_17
REMARK    4  A    between atoms: C_28  and  C_32
REMARK                            x       y       z     vdW  Elec       q    Type
REMARK                         _______ _______ _______ _____ _____    ______ ____
ROOT
ATOM      1  O   UNL     1      34.607 -23.325 -18.059  0.00  0.00    -0.270 OA
ATOM      2  N   UNL     1      36.693 -22.327 -17.634  0.00  0.00    -0.280 N 
ATOM      3  C   UNL     1      35.469 -22.487 -18.298  0.00  0.00    +0.249 C 
ATOM      4  H   UNL     1      37.269 -21.598 -17.959  0.00  0.00    +0.155 HD
ENDROOT
BRANCH   2  13
ATOM      5  N   UNL     1      36.508 -25.580 -12.367  0.00  0.00    +0.388 N 
ATOM      6  C   UNL     1      35.847 -25.089 -13.593  0.00  0.00    -0.039 C 
ATOM      7  C   UNL     1      36.800 -24.416 -14.572  0.00  0.00    -0.045 C 
ATOM      8  C   UNL     1      38.192 -24.602 -14.449  0.00  0.00    -0.030 C 
ATOM      9  C   UNL     1      38.761 -25.416 -13.315  0.00  0.00    +0.003 C 
ATOM     10  C   UNL     1      37.716 -26.336 -12.691  0.00  0.00    -0.076 C 
ATOM     11  C   UNL     1      36.317 -23.666 -15.657  0.00  0.00    +0.008 C 
ATOM     12  C   UNL     1      39.066 -23.994 -15.362  0.00  0.00    -0.003 C 
ATOM     13  C   UNL     1      37.195 -23.074 -16.568  0.00  0.00    +0.050 C 
ATOM     14  C   UNL     1      38.568 -23.232 -16.417  0.00  0.00    +0.014 C 
ATOM     15  H   UNL     1      35.862 -26.184 -11.859  0.00  0.00    -0.084 HD
ATOM     16  H   UNL     1      36.771 -24.777 -11.795  0.00  0.00    -0.084 HD
BRANCH   6  17
ATOM     17  C   UNL     1      34.701 -24.176 -13.138  0.00  0.00    -0.015 C 
ATOM     18  C   UNL     1      33.362 -24.729 -13.613  0.00  0.00    -0.002 C 
ATOM     19  C   UNL     1      34.717 -24.023 -11.621  0.00  0.00    -0.002 C 
ENDBRANCH   6  17
ENDBRANCH   2  13
BRANCH   3  20
ATOM     20  C   UNL     1      35.229 -21.546 -19.423  0.00  0.00    +0.054 C 
ATOM     21  C   UNL     1      36.091 -19.963 -21.016  0.00  0.00    +0.000 C 
ATOM     22  C   UNL     1      36.301 -20.857 -19.953  0.00  0.00    +0.005 C 
ATOM     23  C   UNL     1      34.781 -19.785 -21.523  0.00  0.00    +0.000 C 
ATOM     24  C   UNL     1      33.948 -21.390 -19.897  0.00  0.00    +0.005 C 
ATOM     25  C   UNL     1      33.720 -20.506 -20.952  0.00  0.00    +0.000 C 
ATOM     26  C   UNL     1      34.571 -18.891 -22.585  0.00  0.00    +0.003 C 
ATOM     27  C   UNL     1      37.152 -19.242 -21.588  0.00  0.00    +0.000 C 
ATOM     28  C   UNL     1      35.637 -18.183 -23.141  0.00  0.00    +0.031 C 
ATOM     29  C   UNL     1      36.925 -18.359 -22.643  0.00  0.00    +0.003 C 
BRANCH  28  32
ATOM     30  N   UNL     1      34.641 -17.630 -25.347  0.00  0.00    -0.343 N 
ATOM     31  N   UNL     1      35.921 -16.046 -24.201  0.00  0.00    -0.285 NA
ATOM     32  C   UNL     1      35.403 -17.261 -24.240  0.00  0.00    +0.117 C 
ATOM     33  H   UNL     1      34.494 -16.989 -26.080  0.00  0.00    +0.144 HD
ATOM     34  H   UNL     1      34.249 -18.531 -25.396  0.00  0.00    +0.144 HD
ATOM     35  H   UNL     1      35.763 -15.419 -24.944  0.00  0.00    +0.188 HD
ENDBRANCH  28  32
ENDBRANCH   3  20
TORSDOF 4
ENDMDL
MODEL 6
REMARK VINA RESULT:     -11.0      2.778      4.929
REMARK  Name = 447736
REMARK  4 active torsions:
REMARK  status: ('A' for Active; 'I' for Inactive)
REMARK    1  A    between atoms: N_2  and  C_13
REMARK    2  A    between atoms: C_3  and  C_20
REMARK    3  A    between atoms: C_6  and  C_17
REMARK    4  A    between atoms: C_28  and  C_32
REMARK                            x       y       z     vdW  Elec       q    Type
REMARK                         _______ _______ _______ _____ _____    ______ ____
ROOT
ATOM      1  O   UNL     1      37.654 -19.510 -20.189  0.00  0.00    -0.270 OA
ATOM      2  N   UNL     1      35.612 -20.654 -19.975  0.00  0.00    -0.280 N 
ATOM      3  C   UNL     1      36.511 -19.753 -20.560  0.00  0.00    +0.249 C 
ATOM      4  H   UNL     1      34.729 -20.724 -20.406  0.00  0.00    +0.155 HD
ENDROOT
BRANCH   2  13
ATOM      5  N   UNL     1      34.040 -24.305 -15.226  0.00  0.00    +0.388 N 
ATOM      6  C   UNL     1      33.750 -23.745 -16.561  0.00  0.00    -0.039 C 
ATOM      7  C   UNL     1      34.914 -22.966 -17.162  0.00  0.00    -0.045 C 
ATOM      8  C   UNL     1      36.213 -23.114 -16.635  0.00  0.00    -0.030 C 
ATOM      9  C   UNL     1      36.461 -23.991 -15.435  0.00  0.00    +0.003 C 
ATOM     10  C   UNL     1      35.330 -24.993 -15.216  0.00  0.00    -0.076 C 
ATOM     11  C   UNL     1      34.736 -22.153 -18.293  0.00  0.00    +0.008 C 
ATOM     12  C   UNL     1      37.285 -22.407 -17.200  0.00  0.00    -0.003 C 
ATOM     13  C   UNL     1      35.812 -21.463 -18.856  0.00  0.00    +0.050 C 
ATOM     14  C   UNL     1      37.084 -21.584 -18.307  0.00  0.00    +0.014 C 
ATOM     15  H   UNL     1      33.307 -24.969 -14.976  0.00  0.00    -0.084 HD
ATOM     16  H   UNL     1      34.074 -23.540 -14.553  0.00  0.00    -0.084 HD
BRANCH   6  17
ATOM     17  C   UNL     1      32.472 -22.910 -16.418  0.00  0.00    -0.015 C 
ATOM     18  C   UNL     1      31.321 -23.568 -17.171  0.00  0.00    -0.002 C 
ATOM     19  C   UNL     1      32.121 -22.726 -14.946  0.00  0.00    -0.002 C 
ENDBRANCH   6  17
ENDBRANCH   2  13
BRANCH   3  20
ATOM     20  C   UNL     1      35.991 -19.008 -21.737  0.00  0.00    +0.054 C 
ATOM     21  C   UNL     1      35.370 -16.919 -22.754  0.00  0.00    +0.000 C 
ATOM     22  C   UNL     1      35.862 -17.637 -21.651  0.00  0.00    +0.005 C 
ATOM     23  C   UNL     1      35.016 -17.617 -23.933  0.00  0.00    +0.000 C 
ATOM     24  C   UNL     1      35.653 -19.710 -22.870  0.00  0.00    +0.005 C 
ATOM     25  C   UNL     1      35.163 -19.013 -23.975  0.00  0.00    +0.000 C 
ATOM     26  C   UNL     1      34.524 -16.899 -25.035  0.00  0.00    +0.003 C 
ATOM     27  C   UNL     1      35.224 -15.523 -22.712  0.00  0.00    +0.000 C 
ATOM     28  C   UNL     1      34.385 -15.512 -24.976  0.00  0.00    +0.031 C 
ATOM     29  C   UNL     1      34.735 -14.825 -23.816  0.00  0.00    +0.003 C 
BRANCH  28  32
ATOM     30  N   UNL     1      33.555 -13.428 -26.042  0.00  0.00    -0.343 N 
ATOM     31  N   UNL     1      33.702 -15.407 -27.277  0.00  0.00    -0.285 NA
ATOM     32  C   UNL     1      33.874 -14.783 -26.125  0.00  0.00    +0.117 C 
ATOM     33  H   UNL     1      33.211 -12.954 -26.833  0.00  0.00    +0.144 HD
ATOM     34  H   UNL     1      33.675 -12.947 -25.192  0.00  0.00    +0.144 HD
ATOM     35  H   UNL     1      33.356 -14.915 -28.056  0.00  0.00    +0.188 HD
ENDBRANCH  28  32
ENDBRANCH   3  20
TORSDOF 4
ENDMDL
MODEL 7
REMARK VINA RESULT:     -10.9      3.425     11.099
REMARK  Name = 447736
REMARK  4 active torsions:
REMARK  status: ('A' for Active; 'I' for Inactive)
REMARK    1  A    between atoms: N_2  and  C_13
REMARK    2  A    between atoms: C_3  and  C_20
REMARK    3  A    between atoms: C_6  and  C_17
REMARK    4  A    between atoms: C_28  and  C_32
REMARK                            x       y       z     vdW  Elec       q    Type
REMARK                         _______ _______ _______ _____ _____    ______ ____
ROOT
ATOM      1  O   UNL     1      34.736 -19.805 -22.913  0.00  0.00    -0.270 OA
ATOM      2  N   UNL     1      35.190 -17.963 -21.524  0.00  0.00    -0.280 N 
ATOM      3  C   UNL     1      35.041 -19.324 -21.828  0.00  0.00    +0.249 C 
ATOM      4  H   UNL     1      35.441 -17.753 -20.595  0.00  0.00    +0.155 HD
ENDROOT
BRANCH   2  13
ATOM      5  N   UNL     1      33.263 -12.346 -23.281  0.00  0.00    +0.388 N 
ATOM      6  C   UNL     1      33.650 -13.292 -22.215  0.00  0.00    -0.039 C 
ATOM      7  C   UNL     1      34.258 -14.586 -22.739  0.00  0.00    -0.045 C 
ATOM      8  C   UNL     1      34.724 -14.665 -24.067  0.00  0.00    -0.030 C 
ATOM      9  C   UNL     1      34.570 -13.495 -25.005  0.00  0.00    +0.003 C 
ATOM     10  C   UNL     1      34.342 -12.186 -24.254  0.00  0.00    -0.076 C 
ATOM     11  C   UNL     1      34.442 -15.696 -21.897  0.00  0.00    +0.008 C 
ATOM     12  C   UNL     1      35.298 -15.853 -24.542  0.00  0.00    -0.003 C 
ATOM     13  C   UNL     1      35.025 -16.870 -22.376  0.00  0.00    +0.050 C 
ATOM     14  C   UNL     1      35.447 -16.952 -23.699  0.00  0.00    +0.014 C 
ATOM     15  H   UNL     1      33.054 -11.440 -22.863  0.00  0.00    -0.084 HD
ATOM     16  H   UNL     1      32.443 -12.716 -23.762  0.00  0.00    -0.084 HD
BRANCH   6  17
ATOM     17  C   UNL     1      32.400 -13.515 -21.353  0.00  0.00    -0.015 C 
ATOM     18  C   UNL     1      32.779 -14.169 -20.029  0.00  0.00    -0.002 C 
ATOM     19  C   UNL     1      31.676 -12.194 -21.118  0.00  0.00    -0.002 C 
ENDBRANCH   6  17
ENDBRANCH   2  13
BRANCH   3  20
ATOM     20  C   UNL     1      35.257 -20.256 -20.691  0.00  0.00    +0.054 C 
ATOM     21  C   UNL     1      34.356 -21.801 -19.083  0.00  0.00    +0.000 C 
ATOM     22  C   UNL     1      34.169 -20.917 -20.159  0.00  0.00    +0.005 C 
ATOM     23  C   UNL     1      35.659 -21.996 -18.565  0.00  0.00    +0.000 C 
ATOM     24  C   UNL     1      36.533 -20.428 -20.206  0.00  0.00    +0.005 C 
ATOM     25  C   UNL     1      36.737 -21.302 -19.138  0.00  0.00    +0.000 C 
ATOM     26  C   UNL     1      35.845 -22.880 -17.490  0.00  0.00    +0.003 C 
ATOM     27  C   UNL     1      33.279 -22.495 -18.510  0.00  0.00    +0.000 C 
ATOM     28  C   UNL     1      34.764 -23.562 -16.933  0.00  0.00    +0.031 C 
ATOM     29  C   UNL     1      33.482 -23.370 -17.443  0.00  0.00    +0.003 C 
BRANCH  28  32
ATOM     30  N   UNL     1      33.995 -24.665 -14.846  0.00  0.00    -0.343 N 
ATOM     31  N   UNL     1      36.112 -25.135 -15.716  0.00  0.00    -0.285 NA
ATOM     32  C   UNL     1      34.973 -24.473 -15.819  0.00  0.00    +0.117 C 
ATOM     33  H   UNL     1      34.157 -25.288 -14.100  0.00  0.00    +0.144 HD
ATOM     34  H   UNL     1      33.141 -24.180 -14.904  0.00  0.00    +0.144 HD
ATOM     35  H   UNL     1      36.256 -25.752 -14.963  0.00  0.00    +0.188 HD
ENDBRANCH  28  32
ENDBRANCH   3  20
TORSDOF 4
ENDMDL
MODEL 8
REMARK VINA RESULT:     -10.8      9.298     15.969
REMARK  Name = 447736
REMARK  4 active torsions:
REMARK  status: ('A' for Active; 'I' for Inactive)
REMARK    1  A    between atoms: N_2  and  C_13
REMARK    2  A    between atoms: C_3  and  C_20
REMARK    3  A    between atoms: C_6  and  C_17
REMARK    4  A    between atoms: C_28  and  C_32
REMARK                            x       y       z     vdW  Elec       q    Type
REMARK                         _______ _______ _______ _____ _____    ______ ____
ROOT
ATOM      1  O   UNL     1      30.803 -10.759 -22.339  0.00  0.00    -0.270 OA
ATOM      2  N   UNL     1      32.879  -9.659 -22.254  0.00  0.00    -0.280 N 
ATOM      3  C   UNL     1      32.025 -10.770 -22.235  0.00  0.00    +0.249 C 
ATOM      4  H   UNL     1      33.840  -9.851 -22.156  0.00  0.00    +0.155 HD
ENDROOT
BRANCH   2  13
ATOM      5  N   UNL     1      32.439  -4.151 -25.050  0.00  0.00    +0.388 N 
ATOM      6  C   UNL     1      32.551  -5.621 -25.128  0.00  0.00    -0.039 C 
ATOM      7  C   UNL     1      32.385  -6.318 -23.784  0.00  0.00    -0.045 C 
ATOM      8  C   UNL     1      31.816  -5.628 -22.693  0.00  0.00    -0.030 C 
ATOM      9  C   UNL     1      31.424  -4.178 -22.821  0.00  0.00    +0.003 C 
ATOM     10  C   UNL     1      31.262  -3.756 -24.278  0.00  0.00    -0.076 C 
ATOM     11  C   UNL     1      32.716  -7.673 -23.622  0.00  0.00    +0.008 C 
ATOM     12  C   UNL     1      31.650  -6.277 -21.461  0.00  0.00    -0.003 C 
ATOM     13  C   UNL     1      32.535  -8.314 -22.394  0.00  0.00    +0.050 C 
ATOM     14  C   UNL     1      32.009  -7.615 -21.313  0.00  0.00    +0.014 C 
ATOM     15  H   UNL     1      32.361  -3.771 -25.994  0.00  0.00    -0.084 HD
ATOM     16  H   UNL     1      33.270  -3.784 -24.586  0.00  0.00    -0.084 HD
BRANCH   6  17
ATOM     17  C   UNL     1      33.894  -5.922 -25.805  0.00  0.00    -0.015 C 
ATOM     18  C   UNL     1      34.092  -5.019 -27.018  0.00  0.00    -0.002 C 
ATOM     19  C   UNL     1      35.038  -5.753 -24.811  0.00  0.00    -0.002 C 
ENDBRANCH   6  17
ENDBRANCH   2  13
BRANCH   3  20
ATOM     20  C   UNL     1      32.694 -12.082 -22.040  0.00  0.00    +0.054 C 
ATOM     21  C   UNL     1      33.983 -13.902 -22.941  0.00  0.00    +0.000 C 
ATOM     22  C   UNL     1      33.347 -12.660 -23.109  0.00  0.00    +0.005 C 
ATOM     23  C   UNL     1      33.941 -14.537 -21.677  0.00  0.00    +0.000 C 
ATOM     24  C   UNL     1      32.638 -12.678 -20.802  0.00  0.00    +0.005 C 
ATOM     25  C   UNL     1      33.264 -13.911 -20.617  0.00  0.00    +0.000 C 
ATOM     26  C   UNL     1      34.577 -15.777 -21.510  0.00  0.00    +0.003 C 
ATOM     27  C   UNL     1      34.661 -14.526 -24.001  0.00  0.00    +0.000 C 
ATOM     28  C   UNL     1      35.246 -16.383 -22.573  0.00  0.00    +0.031 C 
ATOM     29  C   UNL     1      35.287 -15.758 -23.817  0.00  0.00    +0.003 C 
BRANCH  28  32
ATOM     30  N   UNL     1      35.593 -18.484 -21.296  0.00  0.00    -0.343 N 
ATOM     31  N   UNL     1      36.804 -18.081 -23.254  0.00  0.00    -0.285 NA
ATOM     32  C   UNL     1      35.899 -17.669 -22.384  0.00  0.00    +0.117 C 
ATOM     33  H   UNL     1      36.047 -19.352 -21.188  0.00  0.00    +0.144 HD
ATOM     34  H   UNL     1      34.923 -18.193 -20.636  0.00  0.00    +0.144 HD
ATOM     35  H   UNL     1      37.247 -18.951 -23.128  0.00  0.00    +0.188 HD
ENDBRANCH  28  32
ENDBRANCH   3  20
TORSDOF 4
ENDMDL
MODEL 9
REMARK VINA RESULT:     -10.7      2.823     10.551
REMARK  Name = 447736
REMARK  4 active torsions:
REMARK  status: ('A' for Active; 'I' for Inactive)
REMARK    1  A    between atoms: N_2  and  C_13
REMARK    2  A    between atoms: C_3  and  C_20
REMARK    3  A    between atoms: C_6  and  C_17
REMARK    4  A    between atoms: C_28  and  C_32
REMARK                            x       y       z     vdW  Elec       q    Type
REMARK                         _______ _______ _______ _____ _____    ______ ____
ROOT
ATOM      1  O   UNL     1      36.642 -21.714 -21.246  0.00  0.00    -0.270 OA
ATOM      2  N   UNL     1      35.137 -19.980 -20.739  0.00  0.00    -0.280 N 
ATOM      3  C   UNL     1      35.879 -21.140 -20.477  0.00  0.00    +0.249 C 
ATOM      4  H   UNL     1      34.571 -19.654 -20.003  0.00  0.00    +0.155 HD
ENDROOT
BRANCH   2  13
ATOM      5  N   UNL     1      34.763 -14.890 -24.246  0.00  0.00    +0.388 N 
ATOM      6  C   UNL     1      35.110 -15.541 -22.967  0.00  0.00    -0.039 C 
ATOM      7  C   UNL     1      35.069 -17.063 -23.026  0.00  0.00    -0.045 C 
ATOM      8  C   UNL     1      35.066 -17.725 -24.271  0.00  0.00    -0.030 C 
ATOM      9  C   UNL     1      35.041 -16.941 -25.558  0.00  0.00    +0.003 C 
ATOM     10  C   UNL     1      35.495 -15.497 -25.357  0.00  0.00    -0.076 C 
ATOM     11  C   UNL     1      35.112 -17.836 -21.855  0.00  0.00    +0.008 C 
ATOM     12  C   UNL     1      35.044 -19.126 -24.322  0.00  0.00    -0.003 C 
ATOM     13  C   UNL     1      35.102 -19.232 -21.916  0.00  0.00    +0.050 C 
ATOM     14  C   UNL     1      35.061 -19.876 -23.148  0.00  0.00    +0.014 C 
ATOM     15  H   UNL     1      35.002 -13.900 -24.192  0.00  0.00    -0.084 HD
ATOM     16  H   UNL     1      33.764 -15.009 -24.412  0.00  0.00    -0.084 HD
BRANCH   6  17
ATOM     17  C   UNL     1      34.172 -14.950 -21.907  0.00  0.00    -0.015 C 
ATOM     18  C   UNL     1      34.979 -14.359 -20.756  0.00  0.00    -0.002 C 
ATOM     19  C   UNL     1      33.265 -13.895 -22.530  0.00  0.00    -0.002 C 
ENDBRANCH   6  17
ENDBRANCH   2  13
BRANCH   3  20
ATOM     20  C   UNL     1      35.681 -21.729 -19.127  0.00  0.00    +0.054 C 
ATOM     21  C   UNL     1      34.230 -22.773 -17.517  0.00  0.00    +0.000 C 
ATOM     22  C   UNL     1      34.434 -22.213 -18.790  0.00  0.00    +0.005 C 
ATOM     23  C   UNL     1      35.310 -22.828 -16.604  0.00  0.00    +0.000 C 
ATOM     24  C   UNL     1      36.746 -21.771 -18.258  0.00  0.00    +0.005 C 
ATOM     25  C   UNL     1      36.562 -22.323 -16.990  0.00  0.00    +0.000 C 
ATOM     26  C   UNL     1      35.106 -23.387 -15.332  0.00  0.00    +0.003 C 
ATOM     27  C   UNL     1      32.978 -23.278 -17.132  0.00  0.00    +0.000 C 
ATOM     28  C   UNL     1      33.855 -23.885 -14.966  0.00  0.00    +0.031 C 
ATOM     29  C   UNL     1      32.793 -23.830 -15.865  0.00  0.00    +0.003 C 
BRANCH  28  32
ATOM     30  N   UNL     1      32.698 -25.442 -13.416  0.00  0.00    -0.343 N 
ATOM     31  N   UNL     1      34.402 -24.049 -12.632  0.00  0.00    -0.285 NA
ATOM     32  C   UNL     1      33.660 -24.460 -13.645  0.00  0.00    +0.117 C 
ATOM     33  H   UNL     1      32.583 -25.819 -12.514  0.00  0.00    +0.144 HD
ATOM     34  H   UNL     1      32.134 -25.760 -14.158  0.00  0.00    +0.144 HD
ATOM     35  H   UNL     1      34.271 -24.437 -11.737  0.00  0.00    +0.188 HD
ENDBRANCH  28  32
ENDBRANCH   3  20
TORSDOF 4
ENDMDL
