MODEL 1
REMARK VINA RESULT:     -12.1      0.000      0.000
REMARK  Name = 9826451
REMARK  9 active torsions:
REMARK  status: ('A' for Active; 'I' for Inactive)
REMARK    1  A    between atoms: C_1  and  N_2
REMARK    2  A    between atoms: C_1  and  C_19
REMARK    3  A    between atoms: C_8  and  O_10
REMARK    4  A    between atoms: O_10  and  C_11
REMARK    5  A    between atoms: C_14  and  O_17
REMARK    6  A    between atoms: C_19  and  O_20
REMARK    7  A    between atoms: O_20  and  C_24
REMARK    8  A    between atoms: C_21  and  C_27
REMARK    9  A    between atoms: C_27  and  C_32
REMARK                            x       y       z     vdW  Elec       q    Type
REMARK                         _______ _______ _______ _____ _____    ______ ____
ROOT
ATOM      1  C   UNL     1      36.366 -22.022 -18.027  0.00  0.00    +0.139 C 
ENDROOT
BRANCH   1   2
ATOM      2  N   UNL     1      35.181 -22.680 -17.531  0.00  0.00    -0.291 N 
ATOM      3  C   UNL     1      34.024 -22.799 -18.420  0.00  0.00    +0.113 C 
ATOM      4  N   UNL     1      36.199 -23.066 -15.428  0.00  0.00    -0.233 NA
ATOM      5  N   UNL     1      34.962 -24.188 -13.692  0.00  0.00    -0.214 NA
ATOM      6  C   UNL     1      35.118 -23.188 -16.227  0.00  0.00    +0.115 C 
ATOM      7  C   UNL     1      33.940 -23.789 -15.835  0.00  0.00    +0.146 C 
ATOM      8  C   UNL     1      33.919 -24.276 -14.543  0.00  0.00    +0.210 C 
ATOM      9  C   UNL     1      36.054 -23.580 -14.192  0.00  0.00    +0.254 C 
BRANCH   8  10
ATOM     10  O   UNL     1      32.785 -24.888 -14.078  0.00  0.00    -0.440 OA
BRANCH  10  11
ATOM     11  C   UNL     1      31.578 -24.467 -14.599  0.00  0.00    +0.147 C 
ATOM     12  C   UNL     1      31.247 -23.112 -14.590  0.00  0.00    +0.041 C 
ATOM     13  C   UNL     1      30.688 -25.398 -15.138  0.00  0.00    +0.041 C 
ATOM     14  C   UNL     1      29.139 -23.618 -15.654  0.00  0.00    +0.139 C 
ATOM     15  C   UNL     1      30.028 -22.688 -15.117  0.00  0.00    +0.040 C 
ATOM     16  C   UNL     1      29.470 -24.974 -15.665  0.00  0.00    +0.040 C 
BRANCH  14  17
ATOM     17  O   UNL     1      27.949 -23.204 -16.170  0.00  0.00    -0.471 OA
ATOM     18  C   UNL     1      27.834 -23.170 -17.592  0.00  0.00    +0.252 C 
ENDBRANCH  14  17
ENDBRANCH  10  11
ENDBRANCH   8  10
ENDBRANCH   1   2
BRANCH   1  19
ATOM     19  C   UNL     1      36.236 -21.768 -19.519  0.00  0.00    +0.227 C 
BRANCH  19  20
ATOM     20  O   UNL     1      36.757 -20.477 -19.829  0.00  0.00    -0.474 OA
BRANCH  20  24
ATOM     21  C   UNL     1      35.358 -18.649 -23.282  0.00  0.00    -0.021 C 
ATOM     22  C   UNL     1      34.498 -19.429 -22.509  0.00  0.00    -0.001 C 
ATOM     23  C   UNL     1      36.688 -18.484 -22.895  0.00  0.00    -0.001 C 
ATOM     24  C   UNL     1      36.298 -19.878 -20.961  0.00  0.00    +0.139 C 
ATOM     25  C   UNL     1      34.967 -20.043 -21.348  0.00  0.00    +0.037 C 
ATOM     26  C   UNL     1      37.157 -19.099 -21.736  0.00  0.00    +0.037 C 
BRANCH  21  27
ATOM     27  C   UNL     1      34.849 -17.985 -24.536  0.00  0.00    +0.047 C 
BRANCH  27  32
ATOM     28  S   UNL     1      35.062 -15.744 -22.949  0.00  0.00    -0.048 S 
ATOM     29  O   UNL     1      34.112 -16.018 -26.679  0.00  0.00    -0.274 OA
ATOM     30  O   UNL     1      33.493 -13.643 -22.767  0.00  0.00    -0.263 OA
ATOM     31  N   UNL     1      33.686 -14.698 -24.828  0.00  0.00    -0.246 N 
ATOM     32  C   UNL     1      35.221 -16.514 -24.590  0.00  0.00    +0.137 C 
ATOM     33  C   UNL     1      34.290 -15.741 -25.498  0.00  0.00    +0.239 C 
ATOM     34  C   UNL     1      33.947 -14.512 -23.496  0.00  0.00    +0.279 C 
ATOM     35  H   UNL     1      33.071 -14.093 -25.303  0.00  0.00    +0.158 HD
ENDBRANCH  27  32
ENDBRANCH  21  27
ENDBRANCH  20  24
ENDBRANCH  19  20
ENDBRANCH   1  19
TORSDOF 9
ENDMDL
MODEL 2
REMARK VINA RESULT:     -11.9      5.752     10.000
REMARK  Name = 9826451
REMARK  9 active torsions:
REMARK  status: ('A' for Active; 'I' for Inactive)
REMARK    1  A    between atoms: C_1  and  N_2
REMARK    2  A    between atoms: C_1  and  C_19
REMARK    3  A    between atoms: C_8  and  O_10
REMARK    4  A    between atoms: O_10  and  C_11
REMARK    5  A    between atoms: C_14  and  O_17
REMARK    6  A    between atoms: C_19  and  O_20
REMARK    7  A    between atoms: O_20  and  C_24
REMARK    8  A    between atoms: C_21  and  C_27
REMARK    9  A    between atoms: C_27  and  C_32
REMARK                            x       y       z     vdW  Elec       q    Type
REMARK                         _______ _______ _______ _____ _____    ______ ____
ROOT
ATOM      1  C   UNL     1      34.207 -14.162 -23.967  0.00  0.00    +0.139 C 
ENDROOT
BRANCH   1   2
ATOM      2  N   UNL     1      34.729 -15.034 -22.942  0.00  0.00    -0.291 N 
ATOM      3  C   UNL     1      34.878 -14.508 -21.584  0.00  0.00    +0.113 C 
ATOM      4  N   UNL     1      34.954 -16.815 -24.486  0.00  0.00    -0.233 NA
ATOM      5  N   UNL     1      35.838 -18.931 -23.747  0.00  0.00    -0.214 NA
ATOM      6  C   UNL     1      35.102 -16.354 -23.227  0.00  0.00    +0.115 C 
ATOM      7  C   UNL     1      35.604 -17.111 -22.188  0.00  0.00    +0.146 C 
ATOM      8  C   UNL     1      35.959 -18.406 -22.510  0.00  0.00    +0.210 C 
ATOM      9  C   UNL     1      35.337 -18.092 -24.673  0.00  0.00    +0.254 C 
BRANCH   8  10
ATOM     10  O   UNL     1      36.465 -19.222 -21.533  0.00  0.00    -0.440 OA
BRANCH  10  11
ATOM     11  C   UNL     1      35.587 -20.086 -20.910  0.00  0.00    +0.147 C 
ATOM     12  C   UNL     1      34.212 -19.916 -21.066  0.00  0.00    +0.041 C 
ATOM     13  C   UNL     1      36.076 -21.131 -20.124  0.00  0.00    +0.041 C 
ATOM     14  C   UNL     1      33.814 -21.833 -19.651  0.00  0.00    +0.139 C 
ATOM     15  C   UNL     1      33.325 -20.789 -20.437  0.00  0.00    +0.040 C 
ATOM     16  C   UNL     1      35.190 -22.004 -19.496  0.00  0.00    +0.040 C 
BRANCH  14  17
ATOM     17  O   UNL     1      32.949 -22.687 -19.038  0.00  0.00    -0.471 OA
ATOM     18  C   UNL     1      33.341 -23.209 -17.769  0.00  0.00    +0.252 C 
ENDBRANCH  14  17
ENDBRANCH  10  11
ENDBRANCH   8  10
ENDBRANCH   1   2
BRANCH   1  19
ATOM     19  C   UNL     1      33.906 -12.792 -23.381  0.00  0.00    +0.227 C 
BRANCH  19  20
ATOM     20  O   UNL     1      34.180 -11.788 -24.356  0.00  0.00    -0.474 OA
BRANCH  20  24
ATOM     21  C   UNL     1      33.540  -7.842 -23.240  0.00  0.00    -0.021 C 
ATOM     22  C   UNL     1      32.572  -8.809 -22.969  0.00  0.00    -0.001 C 
ATOM     23  C   UNL     1      34.723  -8.202 -23.886  0.00  0.00    -0.001 C 
ATOM     24  C   UNL     1      33.969 -10.494 -23.991  0.00  0.00    +0.139 C 
ATOM     25  C   UNL     1      32.786 -10.135 -23.344  0.00  0.00    +0.037 C 
ATOM     26  C   UNL     1      34.937  -9.527 -24.262  0.00  0.00    +0.037 C 
BRANCH  21  27
ATOM     27  C   UNL     1      33.308  -6.410 -22.834  0.00  0.00    +0.047 C 
BRANCH  27  32
ATOM     28  S   UNL     1      32.627  -4.524 -24.724  0.00  0.00    -0.048 S 
ATOM     29  O   UNL     1      30.671  -5.678 -21.603  0.00  0.00    -0.274 OA
ATOM     30  O   UNL     1      31.569  -2.137 -24.428  0.00  0.00    -0.263 OA
ATOM     31  N   UNL     1      30.983  -3.795 -22.911  0.00  0.00    -0.246 N 
ATOM     32  C   UNL     1      32.107  -5.807 -23.542  0.00  0.00    +0.137 C 
ATOM     33  C   UNL     1      31.179  -5.117 -22.568  0.00  0.00    +0.239 C 
ATOM     34  C   UNL     1      31.635  -3.278 -23.999  0.00  0.00    +0.279 C 
ATOM     35  H   UNL     1      30.380  -3.229 -22.377  0.00  0.00    +0.158 HD
ENDBRANCH  27  32
ENDBRANCH  21  27
ENDBRANCH  20  24
ENDBRANCH  19  20
ENDBRANCH   1  19
TORSDOF 9
ENDMDL
MODEL 3
REMARK VINA RESULT:     -11.8      2.449      5.035
REMARK  Name = 9826451
REMARK  9 active torsions:
REMARK  status: ('A' for Active; 'I' for Inactive)
REMARK    1  A    between atoms: C_1  and  N_2
REMARK    2  A    between atoms: C_1  and  C_19
REMARK    3  A    between atoms: C_8  and  O_10
REMARK    4  A    between atoms: O_10  and  C_11
REMARK    5  A    between atoms: C_14  and  O_17
REMARK    6  A    between atoms: C_19  and  O_20
REMARK    7  A    between atoms: O_20  and  C_24
REMARK    8  A    between atoms: C_21  and  C_27
REMARK    9  A    between atoms: C_27  and  C_32
REMARK                            x       y       z     vdW  Elec       q    Type
REMARK                         _______ _______ _______ _____ _____    ______ ____
ROOT
ATOM      1  C   UNL     1      33.844 -22.028 -20.117  0.00  0.00    +0.139 C 
ENDROOT
BRANCH   1   2
ATOM      2  N   UNL     1      34.566 -22.298 -18.896  0.00  0.00    -0.291 N 
ATOM      3  C   UNL     1      36.003 -22.021 -18.858  0.00  0.00    +0.113 C 
ATOM      4  N   UNL     1      32.597 -23.070 -17.830  0.00  0.00    -0.233 NA
ATOM      5  N   UNL     1      32.702 -23.851 -15.553  0.00  0.00    -0.214 NA
ATOM      6  C   UNL     1      33.923 -22.825 -17.769  0.00  0.00    +0.115 C 
ATOM      7  C   UNL     1      34.695 -23.063 -16.650  0.00  0.00    +0.146 C 
ATOM      8  C   UNL     1      34.024 -23.582 -15.561  0.00  0.00    +0.210 C 
ATOM      9  C   UNL     1      32.060 -23.576 -16.704  0.00  0.00    +0.254 C 
BRANCH   8  10
ATOM     10  O   UNL     1      34.721 -23.846 -14.411  0.00  0.00    -0.440 OA
BRANCH  10  11
ATOM     11  C   UNL     1      35.879 -24.589 -14.527  0.00  0.00    +0.147 C 
ATOM     12  C   UNL     1      35.877 -25.776 -15.260  0.00  0.00    +0.041 C 
ATOM     13  C   UNL     1      37.052 -24.151 -13.912  0.00  0.00    +0.041 C 
ATOM     14  C   UNL     1      38.219 -26.088 -14.762  0.00  0.00    +0.139 C 
ATOM     15  C   UNL     1      37.047 -26.525 -15.377  0.00  0.00    +0.040 C 
ATOM     16  C   UNL     1      38.222 -24.900 -14.030  0.00  0.00    +0.040 C 
BRANCH  14  17
ATOM     17  O   UNL     1      39.362 -26.818 -14.878  0.00  0.00    -0.471 OA
ATOM     18  C   UNL     1      40.595 -26.100 -14.886  0.00  0.00    +0.252 C 
ENDBRANCH  14  17
ENDBRANCH  10  11
ENDBRANCH   8  10
ENDBRANCH   1   2
BRANCH   1  19
ATOM     19  C   UNL     1      34.061 -20.585 -20.542  0.00  0.00    +0.227 C 
BRANCH  19  20
ATOM     20  O   UNL     1      35.034 -20.539 -21.584  0.00  0.00    -0.474 OA
BRANCH  20  24
ATOM     21  C   UNL     1      35.388 -16.978 -23.687  0.00  0.00    -0.021 C 
ATOM     22  C   UNL     1      35.686 -17.016 -22.325  0.00  0.00    -0.001 C 
ATOM     23  C   UNL     1      34.971 -18.137 -24.342  0.00  0.00    -0.001 C 
ATOM     24  C   UNL     1      35.150 -19.371 -22.273  0.00  0.00    +0.139 C 
ATOM     25  C   UNL     1      35.567 -18.212 -21.618  0.00  0.00    +0.037 C 
ATOM     26  C   UNL     1      34.852 -19.333 -23.635  0.00  0.00    +0.037 C 
BRANCH  21  27
ATOM     27  C   UNL     1      35.517 -15.685 -24.450  0.00  0.00    +0.047 C 
BRANCH  27  32
ATOM     28  S   UNL     1      33.666 -15.202 -26.432  0.00  0.00    -0.048 S 
ATOM     29  O   UNL     1      34.563 -13.062 -23.349  0.00  0.00    -0.274 OA
ATOM     30  O   UNL     1      33.121 -12.985 -27.735  0.00  0.00    -0.263 OA
ATOM     31  N   UNL     1      33.821 -12.820 -25.526  0.00  0.00    -0.246 N 
ATOM     32  C   UNL     1      34.168 -15.032 -24.692  0.00  0.00    +0.137 C 
ATOM     33  C   UNL     1      34.217 -13.545 -24.421  0.00  0.00    +0.239 C 
ATOM     34  C   UNL     1      33.486 -13.479 -26.679  0.00  0.00    +0.279 C 
ATOM     35  H   UNL     1      33.781 -11.837 -25.486  0.00  0.00    +0.158 HD
ENDBRANCH  27  32
ENDBRANCH  21  27
ENDBRANCH  20  24
ENDBRANCH  19  20
ENDBRANCH   1  19
TORSDOF 9
ENDMDL
MODEL 4
REMARK VINA RESULT:     -11.7      4.979     13.061
REMARK  Name = 9826451
REMARK  9 active torsions:
REMARK  status: ('A' for Active; 'I' for Inactive)
REMARK    1  A    between atoms: C_1  and  N_2
REMARK    2  A    between atoms: C_1  and  C_19
REMARK    3  A    between atoms: C_8  and  O_10
REMARK    4  A    between atoms: O_10  and  C_11
REMARK    5  A    between atoms: C_14  and  O_17
REMARK    6  A    between atoms: C_19  and  O_20
REMARK    7  A    between atoms: O_20  and  C_24
REMARK    8  A    between atoms: C_21  and  C_27
REMARK    9  A    between atoms: C_27  and  C_32
REMARK                            x       y       z     vdW  Elec       q    Type
REMARK                         _______ _______ _______ _____ _____    ______ ____
ROOT
ATOM      1  C   UNL     1      33.525 -13.794 -23.766  0.00  0.00    +0.139 C 
ENDROOT
BRANCH   1   2
ATOM      2  N   UNL     1      33.450 -12.358 -23.632  0.00  0.00    -0.291 N 
ATOM      3  C   UNL     1      34.174 -11.527 -24.596  0.00  0.00    +0.113 C 
ATOM      4  N   UNL     1      32.058 -12.546 -21.726  0.00  0.00    -0.233 NA
ATOM      5  N   UNL     1      31.295 -10.555 -20.604  0.00  0.00    -0.214 NA
ATOM      6  C   UNL     1      32.716 -11.758 -22.601  0.00  0.00    +0.115 C 
ATOM      7  C   UNL     1      32.712 -10.379 -22.543  0.00  0.00    +0.146 C 
ATOM      8  C   UNL     1      31.977  -9.827 -21.513  0.00  0.00    +0.210 C 
ATOM      9  C   UNL     1      31.378 -11.889 -20.767  0.00  0.00    +0.254 C 
BRANCH   8  10
ATOM     10  O   UNL     1      31.922  -8.464 -21.387  0.00  0.00    -0.440 OA
BRANCH  10  11
ATOM     11  C   UNL     1      32.305  -7.710 -22.479  0.00  0.00    +0.147 C 
ATOM     12  C   UNL     1      33.601  -7.201 -22.556  0.00  0.00    +0.041 C 
ATOM     13  C   UNL     1      31.394  -7.459 -23.506  0.00  0.00    +0.041 C 
ATOM     14  C   UNL     1      33.077  -6.189 -24.685  0.00  0.00    +0.139 C 
ATOM     15  C   UNL     1      33.987  -6.440 -23.659  0.00  0.00    +0.040 C 
ATOM     16  C   UNL     1      31.780  -6.699 -24.609  0.00  0.00    +0.040 C 
BRANCH  14  17
ATOM     17  O   UNL     1      33.453  -5.447 -25.763  0.00  0.00    -0.471 OA
ATOM     18  C   UNL     1      34.852  -5.241 -25.953  0.00  0.00    +0.252 C 
ENDBRANCH  14  17
ENDBRANCH  10  11
ENDBRANCH   8  10
ENDBRANCH   1   2
BRANCH   1  19
ATOM     19  C   UNL     1      34.853 -14.298 -23.227  0.00  0.00    +0.227 C 
BRANCH  19  20
ATOM     20  O   UNL     1      35.332 -15.354 -24.057  0.00  0.00    -0.474 OA
BRANCH  20  24
ATOM     21  C   UNL     1      35.363 -19.174 -22.436  0.00  0.00    -0.021 C 
ATOM     22  C   UNL     1      35.618 -18.070 -21.623  0.00  0.00    -0.001 C 
ATOM     23  C   UNL     1      35.099 -18.995 -23.794  0.00  0.00    -0.001 C 
ATOM     24  C   UNL     1      35.343 -16.606 -23.525  0.00  0.00    +0.139 C 
ATOM     25  C   UNL     1      35.608 -16.786 -22.167  0.00  0.00    +0.037 C 
ATOM     26  C   UNL     1      35.090 -17.711 -24.338  0.00  0.00    +0.037 C 
BRANCH  21  27
ATOM     27  C   UNL     1      35.374 -20.561 -21.846  0.00  0.00    +0.047 C 
BRANCH  27  32
ATOM     28  S   UNL     1      35.675 -21.777 -19.393  0.00  0.00    -0.048 S 
ATOM     29  O   UNL     1      32.467 -20.489 -21.107  0.00  0.00    -0.274 OA
ATOM     30  O   UNL     1      34.235 -23.653 -18.246  0.00  0.00    -0.263 OA
ATOM     31  N   UNL     1      33.160 -22.142 -19.645  0.00  0.00    -0.246 N 
ATOM     32  C   UNL     1      34.789 -20.587 -20.445  0.00  0.00    +0.137 C 
ATOM     33  C   UNL     1      33.347 -21.042 -20.457  0.00  0.00    +0.239 C 
ATOM     34  C   UNL     1      34.234 -22.686 -18.992  0.00  0.00    +0.279 C 
ATOM     35  H   UNL     1      32.263 -22.532 -19.537  0.00  0.00    +0.158 HD
ENDBRANCH  27  32
ENDBRANCH  21  27
ENDBRANCH  20  24
ENDBRANCH  19  20
ENDBRANCH   1  19
TORSDOF 9
ENDMDL
MODEL 5
REMARK VINA RESULT:     -11.5      5.971     11.218
REMARK  Name = 9826451
REMARK  9 active torsions:
REMARK  status: ('A' for Active; 'I' for Inactive)
REMARK    1  A    between atoms: C_1  and  N_2
REMARK    2  A    between atoms: C_1  and  C_19
REMARK    3  A    between atoms: C_8  and  O_10
REMARK    4  A    between atoms: O_10  and  C_11
REMARK    5  A    between atoms: C_14  and  O_17
REMARK    6  A    between atoms: C_19  and  O_20
REMARK    7  A    between atoms: O_20  and  C_24
REMARK    8  A    between atoms: C_21  and  C_27
REMARK    9  A    between atoms: C_27  and  C_32
REMARK                            x       y       z     vdW  Elec       q    Type
REMARK                         _______ _______ _______ _____ _____    ______ ____
ROOT
ATOM      1  C   UNL     1      33.227 -12.913 -22.407  0.00  0.00    +0.139 C 
ENDROOT
BRANCH   1   2
ATOM      2  N   UNL     1      33.975 -14.147 -22.401  0.00  0.00    -0.291 N 
ATOM      3  C   UNL     1      34.556 -14.607 -21.139  0.00  0.00    +0.113 C 
ATOM      4  N   UNL     1      33.616 -14.448 -24.723  0.00  0.00    -0.233 NA
ATOM      5  N   UNL     1      34.545 -16.373 -25.834  0.00  0.00    -0.214 NA
ATOM      6  C   UNL     1      34.162 -14.894 -23.572  0.00  0.00    +0.115 C 
ATOM      7  C   UNL     1      34.903 -16.054 -23.475  0.00  0.00    +0.146 C 
ATOM      8  C   UNL     1      35.063 -16.760 -24.650  0.00  0.00    +0.210 C 
ATOM      9  C   UNL     1      33.844 -15.225 -25.799  0.00  0.00    +0.254 C 
BRANCH   8  10
ATOM     10  O   UNL     1      35.786 -17.924 -24.637  0.00  0.00    -0.440 OA
BRANCH  10  11
ATOM     11  C   UNL     1      35.905 -18.583 -23.429  0.00  0.00    +0.147 C 
ATOM     12  C   UNL     1      37.058 -18.427 -22.660  0.00  0.00    +0.041 C 
ATOM     13  C   UNL     1      34.871 -19.405 -22.978  0.00  0.00    +0.041 C 
ATOM     14  C   UNL     1      36.145 -19.913 -20.990  0.00  0.00    +0.139 C 
ATOM     15  C   UNL     1      37.178 -19.092 -21.440  0.00  0.00    +0.040 C 
ATOM     16  C   UNL     1      34.991 -20.069 -21.759  0.00  0.00    +0.040 C 
BRANCH  14  17
ATOM     17  O   UNL     1      36.261 -20.562 -19.798  0.00  0.00    -0.471 OA
ATOM     18  C   UNL     1      35.468 -21.734 -19.617  0.00  0.00    +0.252 C 
ENDBRANCH  14  17
ENDBRANCH  10  11
ENDBRANCH   8  10
ENDBRANCH   1   2
BRANCH   1  19
ATOM     19  C   UNL     1      32.540 -12.714 -21.066  0.00  0.00    +0.227 C 
BRANCH  19  20
ATOM     20  O   UNL     1      31.457 -11.799 -21.219  0.00  0.00    -0.474 OA
BRANCH  20  24
ATOM     21  C   UNL     1      32.424  -7.829 -21.950  0.00  0.00    -0.021 C 
ATOM     22  C   UNL     1      32.587  -8.362 -20.672  0.00  0.00    -0.001 C 
ATOM     23  C   UNL     1      31.935  -8.630 -22.983  0.00  0.00    -0.001 C 
ATOM     24  C   UNL     1      31.774 -10.497 -21.458  0.00  0.00    +0.139 C 
ATOM     25  C   UNL     1      32.262  -9.696 -20.425  0.00  0.00    +0.037 C 
ATOM     26  C   UNL     1      31.610  -9.963 -22.736  0.00  0.00    +0.037 C 
BRANCH  21  27
ATOM     27  C   UNL     1      32.775  -6.388 -22.215  0.00  0.00    +0.047 C 
BRANCH  27  32
ATOM     28  S   UNL     1      32.676  -4.709 -24.396  0.00  0.00    -0.048 S 
ATOM     29  O   UNL     1      30.134  -5.143 -21.525  0.00  0.00    -0.274 OA
ATOM     30  O   UNL     1      31.970  -2.182 -24.557  0.00  0.00    -0.263 OA
ATOM     31  N   UNL     1      30.920  -3.520 -22.974  0.00  0.00    -0.246 N 
ATOM     32  C   UNL     1      31.798  -5.733 -23.175  0.00  0.00    +0.137 C 
ATOM     33  C   UNL     1      30.857  -4.795 -22.452  0.00  0.00    +0.239 C 
ATOM     34  C   UNL     1      31.794  -3.252 -23.993  0.00  0.00    +0.279 C 
ATOM     35  H   UNL     1      30.342  -2.808 -22.615  0.00  0.00    +0.158 HD
ENDBRANCH  27  32
ENDBRANCH  21  27
ENDBRANCH  20  24
ENDBRANCH  19  20
ENDBRANCH   1  19
TORSDOF 9
ENDMDL
MODEL 6
REMARK VINA RESULT:     -11.5      3.134     11.288
REMARK  Name = 9826451
REMARK  9 active torsions:
REMARK  status: ('A' for Active; 'I' for Inactive)
REMARK    1  A    between atoms: C_1  and  N_2
REMARK    2  A    between atoms: C_1  and  C_19
REMARK    3  A    between atoms: C_8  and  O_10
REMARK    4  A    between atoms: O_10  and  C_11
REMARK    5  A    between atoms: C_14  and  O_17
REMARK    6  A    between atoms: C_19  and  O_20
REMARK    7  A    between atoms: O_20  and  C_24
REMARK    8  A    between atoms: C_21  and  C_27
REMARK    9  A    between atoms: C_27  and  C_32
REMARK                            x       y       z     vdW  Elec       q    Type
REMARK                         _______ _______ _______ _____ _____    ______ ____
ROOT
ATOM      1  C   UNL     1      35.390 -18.542 -23.784  0.00  0.00    +0.139 C 
ENDROOT
BRANCH   1   2
ATOM      2  N   UNL     1      35.358 -17.150 -23.401  0.00  0.00    -0.291 N 
ATOM      3  C   UNL     1      35.906 -16.771 -22.098  0.00  0.00    +0.113 C 
ATOM      4  N   UNL     1      34.308 -16.550 -25.437  0.00  0.00    -0.233 NA
ATOM      5  N   UNL     1      33.740 -14.246 -25.853  0.00  0.00    -0.214 NA
ATOM      6  C   UNL     1      34.806 -16.174 -24.241  0.00  0.00    +0.115 C 
ATOM      7  C   UNL     1      34.807 -14.871 -23.787  0.00  0.00    +0.146 C 
ATOM      8  C   UNL     1      34.255 -13.940 -24.644  0.00  0.00    +0.210 C 
ATOM      9  C   UNL     1      33.798 -15.550 -26.181  0.00  0.00    +0.254 C 
BRANCH   8  10
ATOM     10  O   UNL     1      34.218 -12.623 -24.266  0.00  0.00    -0.440 OA
BRANCH  10  11
ATOM     11  C   UNL     1      33.342 -12.277 -23.257  0.00  0.00    +0.147 C 
ATOM     12  C   UNL     1      32.854 -10.973 -23.172  0.00  0.00    +0.041 C 
ATOM     13  C   UNL     1      32.943 -13.233 -22.321  0.00  0.00    +0.041 C 
ATOM     14  C   UNL     1      31.571 -11.580 -21.218  0.00  0.00    +0.139 C 
ATOM     15  C   UNL     1      31.969 -10.625 -22.153  0.00  0.00    +0.040 C 
ATOM     16  C   UNL     1      32.058 -12.885 -21.303  0.00  0.00    +0.040 C 
BRANCH  14  17
ATOM     17  O   UNL     1      30.706 -11.240 -20.223  0.00  0.00    -0.471 OA
ATOM     18  C   UNL     1      31.246 -11.109 -18.909  0.00  0.00    +0.252 C 
ENDBRANCH  14  17
ENDBRANCH  10  11
ENDBRANCH   8  10
ENDBRANCH   1   2
BRANCH   1  19
ATOM     19  C   UNL     1      34.601 -19.374 -22.788  0.00  0.00    +0.227 C 
BRANCH  19  20
ATOM     20  O   UNL     1      35.381 -19.572 -21.611  0.00  0.00    -0.474 OA
BRANCH  20  24
ATOM     21  C   UNL     1      34.084 -22.479 -18.947  0.00  0.00    -0.021 C 
ATOM     22  C   UNL     1      33.154 -21.711 -19.648  0.00  0.00    -0.001 C 
ATOM     23  C   UNL     1      35.450 -22.270 -19.141  0.00  0.00    -0.001 C 
ATOM     24  C   UNL     1      34.955 -20.525 -20.737  0.00  0.00    +0.139 C 
ATOM     25  C   UNL     1      33.589 -20.734 -20.543  0.00  0.00    +0.037 C 
ATOM     26  C   UNL     1      35.885 -21.292 -20.035  0.00  0.00    +0.037 C 
BRANCH  21  27
ATOM     27  C   UNL     1      33.612 -23.535 -17.981  0.00  0.00    +0.047 C 
BRANCH  27  32
ATOM     28  S   UNL     1      34.078 -23.773 -15.276  0.00  0.00    -0.048 S 
ATOM     29  O   UNL     1      30.852 -22.730 -17.121  0.00  0.00    -0.274 OA
ATOM     30  O   UNL     1      32.583 -24.827 -13.388  0.00  0.00    -0.263 OA
ATOM     31  N   UNL     1      31.526 -23.801 -15.184  0.00  0.00    -0.246 N 
ATOM     32  C   UNL     1      33.212 -22.940 -16.642  0.00  0.00    +0.137 C 
ATOM     33  C   UNL     1      31.736 -23.131 -16.371  0.00  0.00    +0.239 C 
ATOM     34  C   UNL     1      32.602 -24.224 -14.450  0.00  0.00    +0.279 C 
ATOM     35  H   UNL     1      30.609 -23.974 -14.868  0.00  0.00    +0.158 HD
ENDBRANCH  27  32
ENDBRANCH  21  27
ENDBRANCH  20  24
ENDBRANCH  19  20
ENDBRANCH   1  19
TORSDOF 9
ENDMDL
MODEL 7
REMARK VINA RESULT:     -11.4      3.640     11.989
REMARK  Name = 9826451
REMARK  9 active torsions:
REMARK  status: ('A' for Active; 'I' for Inactive)
REMARK    1  A    between atoms: C_1  and  N_2
REMARK    2  A    between atoms: C_1  and  C_19
REMARK    3  A    between atoms: C_8  and  O_10
REMARK    4  A    between atoms: O_10  and  C_11
REMARK    5  A    between atoms: C_14  and  O_17
REMARK    6  A    between atoms: C_19  and  O_20
REMARK    7  A    between atoms: O_20  and  C_24
REMARK    8  A    between atoms: C_21  and  C_27
REMARK    9  A    between atoms: C_27  and  C_32
REMARK                            x       y       z     vdW  Elec       q    Type
REMARK                         _______ _______ _______ _____ _____    ______ ____
ROOT
ATOM      1  C   UNL     1      36.166 -17.380 -23.247  0.00  0.00    +0.139 C 
ENDROOT
BRANCH   1   2
ATOM      2  N   UNL     1      35.271 -16.382 -23.785  0.00  0.00    -0.291 N 
ATOM      3  C   UNL     1      34.945 -16.431 -25.211  0.00  0.00    +0.113 C 
ATOM      4  N   UNL     1      35.045 -15.352 -21.664  0.00  0.00    -0.233 NA
ATOM      5  N   UNL     1      33.654 -13.400 -21.429  0.00  0.00    -0.214 NA
ATOM      6  C   UNL     1      34.729 -15.375 -22.976  0.00  0.00    +0.115 C 
ATOM      7  C   UNL     1      33.894 -14.456 -23.579  0.00  0.00    +0.146 C 
ATOM      8  C   UNL     1      33.380 -13.481 -22.747  0.00  0.00    +0.210 C 
ATOM      9  C   UNL     1      34.481 -14.353 -20.961  0.00  0.00    +0.254 C 
BRANCH   8  10
ATOM     10  O   UNL     1      32.542 -12.531 -23.270  0.00  0.00    -0.440 OA
BRANCH  10  11
ATOM     11  C   UNL     1      33.003 -11.231 -23.309  0.00  0.00    +0.147 C 
ATOM     12  C   UNL     1      34.083 -10.897 -24.127  0.00  0.00    +0.041 C 
ATOM     13  C   UNL     1      32.388 -10.249 -22.531  0.00  0.00    +0.041 C 
ATOM     14  C   UNL     1      33.933  -8.602 -23.389  0.00  0.00    +0.139 C 
ATOM     15  C   UNL     1      34.548  -9.583 -24.167  0.00  0.00    +0.040 C 
ATOM     16  C   UNL     1      32.853  -8.935 -22.571  0.00  0.00    +0.040 C 
BRANCH  14  17
ATOM     17  O   UNL     1      34.386  -7.319 -23.428  0.00  0.00    -0.471 OA
ATOM     18  C   UNL     1      33.405  -6.284 -23.474  0.00  0.00    +0.252 C 
ENDBRANCH  14  17
ENDBRANCH  10  11
ENDBRANCH   8  10
ENDBRANCH   1   2
BRANCH   1  19
ATOM     19  C   UNL     1      35.368 -18.534 -22.665  0.00  0.00    +0.227 C 
BRANCH  19  20
ATOM     20  O   UNL     1      36.162 -19.219 -21.698  0.00  0.00    -0.474 OA
BRANCH  20  24
ATOM     21  C   UNL     1      34.267 -22.113 -19.404  0.00  0.00    -0.021 C 
ATOM     22  C   UNL     1      35.658 -22.016 -19.393  0.00  0.00    -0.001 C 
ATOM     23  C   UNL     1      33.512 -21.238 -20.186  0.00  0.00    -0.001 C 
ATOM     24  C   UNL     1      35.541 -20.169 -20.946  0.00  0.00    +0.139 C 
ATOM     25  C   UNL     1      36.295 -21.044 -20.164  0.00  0.00    +0.037 C 
ATOM     26  C   UNL     1      34.149 -20.267 -20.957  0.00  0.00    +0.037 C 
BRANCH  21  27
ATOM     27  C   UNL     1      33.579 -23.164 -18.571  0.00  0.00    +0.047 C 
BRANCH  27  32
ATOM     28  S   UNL     1      34.446 -23.443 -15.971  0.00  0.00    -0.048 S 
ATOM     29  O   UNL     1      30.890 -22.753 -17.304  0.00  0.00    -0.274 OA
ATOM     30  O   UNL     1      33.371 -24.751 -13.960  0.00  0.00    -0.263 OA
ATOM     31  N   UNL     1      31.955 -23.802 -15.538  0.00  0.00    -0.246 N 
ATOM     32  C   UNL     1      33.301 -22.676 -17.160  0.00  0.00    +0.137 C 
ATOM     33  C   UNL     1      31.913 -23.065 -16.703  0.00  0.00    +0.239 C 
ATOM     34  C   UNL     1      33.167 -24.111 -14.980  0.00  0.00    +0.279 C 
ATOM     35  H   UNL     1      31.120 -24.103 -15.111  0.00  0.00    +0.158 HD
ENDBRANCH  27  32
ENDBRANCH  21  27
ENDBRANCH  20  24
ENDBRANCH  19  20
ENDBRANCH   1  19
TORSDOF 9
ENDMDL
MODEL 8
REMARK VINA RESULT:     -11.3      3.486     11.390
REMARK  Name = 9826451
REMARK  9 active torsions:
REMARK  status: ('A' for Active; 'I' for Inactive)
REMARK    1  A    between atoms: C_1  and  N_2
REMARK    2  A    between atoms: C_1  and  C_19
REMARK    3  A    between atoms: C_8  and  O_10
REMARK    4  A    between atoms: O_10  and  C_11
REMARK    5  A    between atoms: C_14  and  O_17
REMARK    6  A    between atoms: C_19  and  O_20
REMARK    7  A    between atoms: O_20  and  C_24
REMARK    8  A    between atoms: C_21  and  C_27
REMARK    9  A    between atoms: C_27  and  C_32
REMARK                            x       y       z     vdW  Elec       q    Type
REMARK                         _______ _______ _______ _____ _____    ______ ____
ROOT
ATOM      1  C   UNL     1      34.613 -21.293 -19.427  0.00  0.00    +0.139 C 
ENDROOT
BRANCH   1   2
ATOM      2  N   UNL     1      34.307 -20.559 -20.631  0.00  0.00    -0.291 N 
ATOM      3  C   UNL     1      32.932 -20.578 -21.132  0.00  0.00    +0.113 C 
ATOM      4  N   UNL     1      36.556 -19.847 -20.842  0.00  0.00    -0.233 NA
ATOM      5  N   UNL     1      37.198 -18.456 -22.702  0.00  0.00    -0.214 NA
ATOM      6  C   UNL     1      35.296 -19.849 -21.325  0.00  0.00    +0.115 C 
ATOM      7  C   UNL     1      34.915 -19.187 -22.475  0.00  0.00    +0.146 C 
ATOM      8  C   UNL     1      35.919 -18.500 -23.128  0.00  0.00    +0.210 C 
ATOM      9  C   UNL     1      37.443 -19.142 -21.569  0.00  0.00    +0.254 C 
BRANCH   8  10
ATOM     10  O   UNL     1      35.621 -17.817 -24.278  0.00  0.00    -0.440 OA
BRANCH  10  11
ATOM     11  C   UNL     1      35.085 -16.552 -24.143  0.00  0.00    +0.147 C 
ATOM     12  C   UNL     1      35.180 -15.879 -22.925  0.00  0.00    +0.041 C 
ATOM     13  C   UNL     1      34.447 -15.946 -25.227  0.00  0.00    +0.041 C 
ATOM     14  C   UNL     1      34.001 -13.996 -23.873  0.00  0.00    +0.139 C 
ATOM     15  C   UNL     1      34.638 -14.602 -22.789  0.00  0.00    +0.040 C 
ATOM     16  C   UNL     1      33.907 -14.668 -25.092  0.00  0.00    +0.040 C 
BRANCH  14  17
ATOM     17  O   UNL     1      33.473 -12.748 -23.741  0.00  0.00    -0.471 OA
ATOM     18  C   UNL     1      32.630 -12.514 -22.614  0.00  0.00    +0.252 C 
ENDBRANCH  14  17
ENDBRANCH  10  11
ENDBRANCH   8  10
ENDBRANCH   1   2
BRANCH   1  19
ATOM     19  C   UNL     1      33.783 -22.564 -19.367  0.00  0.00    +0.227 C 
BRANCH  19  20
ATOM     20  O   UNL     1      32.967 -22.544 -18.197  0.00  0.00    -0.474 OA
BRANCH  20  24
ATOM     21  C   UNL     1      34.517 -24.315 -14.778  0.00  0.00    -0.021 C 
ATOM     22  C   UNL     1      33.174 -23.938 -14.821  0.00  0.00    -0.001 C 
ATOM     23  C   UNL     1      35.338 -24.096 -15.885  0.00  0.00    -0.001 C 
ATOM     24  C   UNL     1      33.475 -23.124 -17.076  0.00  0.00    +0.139 C 
ATOM     25  C   UNL     1      32.653 -23.343 -15.969  0.00  0.00    +0.037 C 
ATOM     26  C   UNL     1      34.817 -23.500 -17.032  0.00  0.00    +0.037 C 
BRANCH  21  27
ATOM     27  C   UNL     1      35.079 -24.958 -13.537  0.00  0.00    +0.047 C 
BRANCH  27  32
ATOM     28  S   UNL     1      37.133 -23.146 -13.250  0.00  0.00    -0.048 S 
ATOM     29  O   UNL     1      35.316 -25.230 -10.558  0.00  0.00    -0.274 OA
ATOM     30  O   UNL     1      39.315 -23.278 -11.790  0.00  0.00    -0.263 OA
ATOM     31  N   UNL     1      37.394 -24.313 -10.994  0.00  0.00    -0.246 N 
ATOM     32  C   UNL     1      35.639 -23.930 -12.570  0.00  0.00    +0.137 C 
ATOM     33  C   UNL     1      36.068 -24.571 -11.268  0.00  0.00    +0.239 C 
ATOM     34  C   UNL     1      38.138 -23.587 -11.886  0.00  0.00    +0.279 C 
ATOM     35  H   UNL     1      37.803 -24.649 -10.164  0.00  0.00    +0.158 HD
ENDBRANCH  27  32
ENDBRANCH  21  27
ENDBRANCH  20  24
ENDBRANCH  19  20
ENDBRANCH   1  19
TORSDOF 9
ENDMDL
MODEL 9
REMARK VINA RESULT:     -11.2      3.223      5.200
REMARK  Name = 9826451
REMARK  9 active torsions:
REMARK  status: ('A' for Active; 'I' for Inactive)
REMARK    1  A    between atoms: C_1  and  N_2
REMARK    2  A    between atoms: C_1  and  C_19
REMARK    3  A    between atoms: C_8  and  O_10
REMARK    4  A    between atoms: O_10  and  C_11
REMARK    5  A    between atoms: C_14  and  O_17
REMARK    6  A    between atoms: C_19  and  O_20
REMARK    7  A    between atoms: O_20  and  C_24
REMARK    8  A    between atoms: C_21  and  C_27
REMARK    9  A    between atoms: C_27  and  C_32
REMARK                            x       y       z     vdW  Elec       q    Type
REMARK                         _______ _______ _______ _____ _____    ______ ____
ROOT
ATOM      1  C   UNL     1      36.439 -18.706 -21.676  0.00  0.00    +0.139 C 
ENDROOT
BRANCH   1   2
ATOM      2  N   UNL     1      35.470 -19.727 -21.357  0.00  0.00    -0.291 N 
ATOM      3  C   UNL     1      34.250 -19.810 -22.161  0.00  0.00    +0.113 C 
ATOM      4  N   UNL     1      36.805 -20.523 -19.570  0.00  0.00    -0.233 NA
ATOM      5  N   UNL     1      36.033 -22.374 -18.236  0.00  0.00    -0.214 NA
ATOM      6  C   UNL     1      35.671 -20.620 -20.296  0.00  0.00    +0.115 C 
ATOM      7  C   UNL     1      34.685 -21.555 -20.055  0.00  0.00    +0.146 C 
ATOM      8  C   UNL     1      34.923 -22.415 -19.002  0.00  0.00    +0.210 C 
ATOM      9  C   UNL     1      36.918 -21.418 -18.570  0.00  0.00    +0.254 C 
BRANCH   8  10
ATOM     10  O   UNL     1      33.991 -23.373 -18.699  0.00  0.00    -0.440 OA
BRANCH  10  11
ATOM     11  C   UNL     1      33.540 -23.430 -17.395  0.00  0.00    +0.147 C 
ATOM     12  C   UNL     1      34.378 -23.903 -16.386  0.00  0.00    +0.041 C 
ATOM     13  C   UNL     1      32.244 -23.012 -17.087  0.00  0.00    +0.041 C 
ATOM     14  C   UNL     1      32.627 -23.543 -14.762  0.00  0.00    +0.139 C 
ATOM     15  C   UNL     1      33.922 -23.960 -15.070  0.00  0.00    +0.040 C 
ATOM     16  C   UNL     1      31.788 -23.068 -15.771  0.00  0.00    +0.040 C 
BRANCH  14  17
ATOM     17  O   UNL     1      32.181 -23.597 -13.477  0.00  0.00    -0.471 OA
ATOM     18  C   UNL     1      30.851 -24.068 -13.269  0.00  0.00    +0.252 C 
ENDBRANCH  14  17
ENDBRANCH  10  11
ENDBRANCH   8  10
ENDBRANCH   1   2
BRANCH   1  19
ATOM     19  C   UNL     1      35.737 -17.476 -22.226  0.00  0.00    +0.227 C 
BRANCH  19  20
ATOM     20  O   UNL     1      35.413 -16.595 -21.152  0.00  0.00    -0.474 OA
BRANCH  20  24
ATOM     21  C   UNL     1      32.989 -13.345 -22.038  0.00  0.00    -0.021 C 
ATOM     22  C   UNL     1      32.946 -13.920 -20.769  0.00  0.00    -0.001 C 
ATOM     23  C   UNL     1      33.846 -13.861 -23.010  0.00  0.00    -0.001 C 
ATOM     24  C   UNL     1      34.618 -15.529 -21.442  0.00  0.00    +0.139 C 
ATOM     25  C   UNL     1      33.760 -15.013 -20.470  0.00  0.00    +0.037 C 
ATOM     26  C   UNL     1      34.659 -14.954 -22.712  0.00  0.00    +0.037 C 
BRANCH  21  27
ATOM     27  C   UNL     1      32.109 -12.164 -22.359  0.00  0.00    +0.047 C 
BRANCH  27  32
ATOM     28  S   UNL     1      31.905  -9.630 -21.300  0.00  0.00    -0.048 S 
ATOM     29  O   UNL     1      33.661 -10.796 -24.533  0.00  0.00    -0.274 OA
ATOM     30  O   UNL     1      31.390  -7.338 -22.480  0.00  0.00    -0.263 OA
ATOM     31  N   UNL     1      32.559  -8.953 -23.674  0.00  0.00    -0.246 N 
ATOM     32  C   UNL     1      32.861 -10.850 -22.253  0.00  0.00    +0.137 C 
ATOM     33  C   UNL     1      33.083 -10.227 -23.613  0.00  0.00    +0.239 C 
ATOM     34  C   UNL     1      31.907  -8.440 -22.584  0.00  0.00    +0.279 C 
ATOM     35  H   UNL     1      32.652  -8.417 -24.495  0.00  0.00    +0.158 HD
ENDBRANCH  27  32
ENDBRANCH  21  27
ENDBRANCH  20  24
ENDBRANCH  19  20
ENDBRANCH   1  19
TORSDOF 9
ENDMDL
