MODEL 1
REMARK VINA RESULT:     -11.0      0.000      0.000
REMARK  Name = 24779674
REMARK  2 active torsions:
REMARK  status: ('A' for Active; 'I' for Inactive)
REMARK    1  A    between atoms: N_2  and  C_14
REMARK    2  A    between atoms: N_5  and  C_20
REMARK                            x       y       z     vdW  Elec       q    Type
REMARK                         _______ _______ _______ _____ _____    ______ ____
ROOT
ATOM      1  N   UNL     1      32.359 -23.720 -16.369  0.00  0.00    -0.124 N 
ATOM      2  N   UNL     1      32.884 -22.460 -18.297  0.00  0.00    -0.274 N 
ATOM      3  N   UNL     1      34.560 -23.373 -16.892  0.00  0.00    -0.295 NA
ATOM      4  N   UNL     1      33.993 -24.642 -14.950  0.00  0.00    -0.315 NA
ATOM      5  N   UNL     1      36.223 -24.286 -15.485  0.00  0.00    -0.238 N 
ATOM      6  N   UNL     1      31.035 -23.593 -16.569  0.00  0.00    -0.171 NA
ATOM      7  C   UNL     1      33.315 -23.170 -17.208  0.00  0.00    +0.279 C 
ATOM      8  C   UNL     1      32.692 -24.442 -15.260  0.00  0.00    +0.206 C 
ATOM      9  C   UNL     1      34.885 -24.113 -15.757  0.00  0.00    +0.207 C 
ATOM     10  C   UNL     1      31.496 -24.817 -14.693  0.00  0.00    +0.127 C 
ATOM     11  C   UNL     1      30.512 -24.267 -15.540  0.00  0.00    +0.101 C 
ATOM     12  H   UNL     1      31.910 -22.385 -18.415  0.00  0.00    +0.156 HD
ATOM     13  H   UNL     1      36.832 -24.306 -16.259  0.00  0.00    +0.166 HD
ENDROOT
BRANCH   2  14
ATOM     14  C   UNL     1      33.678 -21.832 -19.257  0.00  0.00    +0.051 C 
ATOM     15  C   UNL     1      33.125 -20.867 -20.098  0.00  0.00    +0.015 C 
ATOM     16  C   UNL     1      35.027 -22.170 -19.376  0.00  0.00    +0.015 C 
ATOM     17  C   UNL     1      33.919 -20.240 -21.058  0.00  0.00    +0.001 C 
ATOM     18  C   UNL     1      35.820 -21.543 -20.336  0.00  0.00    +0.001 C 
ATOM     19  C   UNL     1      35.267 -20.577 -21.177  0.00  0.00    +0.000 C 
ENDBRANCH   2  14
BRANCH   5  20
ATOM     20  C   UNL     1      36.804 -24.438 -14.229  0.00  0.00    +0.058 C 
ATOM     21  C   UNL     1      37.254 -25.691 -13.816  0.00  0.00    +0.015 C 
ATOM     22  C   UNL     1      36.936 -23.335 -13.385  0.00  0.00    +0.015 C 
ATOM     23  C   UNL     1      37.836 -25.843 -12.556  0.00  0.00    +0.001 C 
ATOM     24  C   UNL     1      37.517 -23.487 -12.126  0.00  0.00    +0.001 C 
ATOM     25  C   UNL     1      37.967 -24.741 -11.712  0.00  0.00    +0.000 C 
ENDBRANCH   5  20
TORSDOF 2
ENDMDL
MODEL 2
REMARK VINA RESULT:     -10.9      1.582      6.812
REMARK  Name = 24779674
REMARK  2 active torsions:
REMARK  status: ('A' for Active; 'I' for Inactive)
REMARK    1  A    between atoms: N_2  and  C_14
REMARK    2  A    between atoms: N_5  and  C_20
REMARK                            x       y       z     vdW  Elec       q    Type
REMARK                         _______ _______ _______ _____ _____    ______ ____
ROOT
ATOM      1  N   UNL     1      35.278 -23.446 -15.366  0.00  0.00    -0.124 N 
ATOM      2  N   UNL     1      33.051 -24.002 -14.811  0.00  0.00    -0.274 N 
ATOM      3  N   UNL     1      33.649 -23.181 -16.952  0.00  0.00    -0.295 NA
ATOM      4  N   UNL     1      35.912 -22.628 -17.479  0.00  0.00    -0.315 NA
ATOM      5  N   UNL     1      34.256 -22.361 -19.083  0.00  0.00    -0.238 N 
ATOM      6  N   UNL     1      35.734 -23.782 -14.147  0.00  0.00    -0.171 NA
ATOM      7  C   UNL     1      33.947 -23.541 -15.738  0.00  0.00    +0.279 C 
ATOM      8  C   UNL     1      36.243 -22.997 -16.221  0.00  0.00    +0.206 C 
ATOM      9  C   UNL     1      34.645 -22.726 -17.814  0.00  0.00    +0.207 C 
ATOM     10  C   UNL     1      37.418 -23.045 -15.507  0.00  0.00    +0.127 C 
ATOM     11  C   UNL     1      37.044 -23.535 -14.239  0.00  0.00    +0.101 C 
ATOM     12  H   UNL     1      33.416 -24.239 -13.928  0.00  0.00    +0.156 HD
ATOM     13  H   UNL     1      33.478 -22.835 -19.459  0.00  0.00    +0.166 HD
ENDROOT
BRANCH   2  14
ATOM     14  C   UNL     1      31.677 -24.172 -14.985  0.00  0.00    +0.051 C 
ATOM     15  C   UNL     1      31.097 -25.423 -14.772  0.00  0.00    +0.015 C 
ATOM     16  C   UNL     1      30.883 -23.092 -15.370  0.00  0.00    +0.015 C 
ATOM     17  C   UNL     1      29.724 -25.594 -14.946  0.00  0.00    +0.001 C 
ATOM     18  C   UNL     1      29.510 -23.263 -15.544  0.00  0.00    +0.001 C 
ATOM     19  C   UNL     1      28.930 -24.514 -15.331  0.00  0.00    +0.000 C 
ENDBRANCH   2  14
BRANCH   5  20
ATOM     20  C   UNL     1      34.849 -21.394 -19.890  0.00  0.00    +0.058 C 
ATOM     21  C   UNL     1      34.055 -20.573 -20.690  0.00  0.00    +0.015 C 
ATOM     22  C   UNL     1      36.236 -21.248 -19.897  0.00  0.00    +0.015 C 
ATOM     23  C   UNL     1      34.650 -19.604 -21.500  0.00  0.00    +0.001 C 
ATOM     24  C   UNL     1      36.829 -20.279 -20.706  0.00  0.00    +0.001 C 
ATOM     25  C   UNL     1      36.036 -19.457 -21.507  0.00  0.00    +0.000 C 
ENDBRANCH   5  20
TORSDOF 2
ENDMDL
MODEL 3
REMARK VINA RESULT:     -10.6     11.601     14.647
REMARK  Name = 24779674
REMARK  2 active torsions:
REMARK  status: ('A' for Active; 'I' for Inactive)
REMARK    1  A    between atoms: N_2  and  C_14
REMARK    2  A    between atoms: N_5  and  C_20
REMARK                            x       y       z     vdW  Elec       q    Type
REMARK                         _______ _______ _______ _____ _____    ______ ____
ROOT
ATOM      1  N   UNL     1      32.152 -10.647 -20.839  0.00  0.00    -0.124 N 
ATOM      2  N   UNL     1      32.460  -8.539 -21.859  0.00  0.00    -0.274 N 
ATOM      3  N   UNL     1      32.832 -10.570 -23.023  0.00  0.00    -0.295 NA
ATOM      4  N   UNL     1      32.511 -12.685 -21.960  0.00  0.00    -0.315 NA
ATOM      5  N   UNL     1      33.201 -12.600 -24.174  0.00  0.00    -0.238 N 
ATOM      6  N   UNL     1      31.784 -10.098 -19.668  0.00  0.00    -0.171 NA
ATOM      7  C   UNL     1      32.497  -9.905 -21.957  0.00  0.00    +0.279 C 
ATOM      8  C   UNL     1      32.159 -12.012 -20.841  0.00  0.00    +0.206 C 
ATOM      9  C   UNL     1      32.834 -11.963 -23.010  0.00  0.00    +0.207 C 
ATOM     10  C   UNL     1      31.765 -12.383 -19.576  0.00  0.00    +0.127 C 
ATOM     11  C   UNL     1      31.548 -11.166 -18.899  0.00  0.00    +0.101 C 
ATOM     12  H   UNL     1      32.187  -8.169 -20.989  0.00  0.00    +0.156 HD
ATOM     13  H   UNL     1      32.999 -12.130 -25.016  0.00  0.00    +0.166 HD
ENDROOT
BRANCH   2  14
ATOM     14  C   UNL     1      32.767  -7.618 -22.861  0.00  0.00    +0.051 C 
ATOM     15  C   UNL     1      34.096  -7.267 -23.103  0.00  0.00    +0.015 C 
ATOM     16  C   UNL     1      31.746  -7.049 -23.622  0.00  0.00    +0.015 C 
ATOM     17  C   UNL     1      34.403  -6.346 -24.104  0.00  0.00    +0.001 C 
ATOM     18  C   UNL     1      32.053  -6.129 -24.624  0.00  0.00    +0.001 C 
ATOM     19  C   UNL     1      33.382  -5.777 -24.865  0.00  0.00    +0.000 C 
ENDBRANCH   2  14
BRANCH   5  20
ATOM     20  C   UNL     1      33.826 -13.839 -24.284  0.00  0.00    +0.058 C 
ATOM     21  C   UNL     1      33.660 -14.603 -25.438  0.00  0.00    +0.015 C 
ATOM     22  C   UNL     1      34.618 -14.315 -23.239  0.00  0.00    +0.015 C 
ATOM     23  C   UNL     1      34.287 -15.845 -25.548  0.00  0.00    +0.001 C 
ATOM     24  C   UNL     1      35.244 -15.556 -23.349  0.00  0.00    +0.001 C 
ATOM     25  C   UNL     1      35.078 -16.321 -24.504  0.00  0.00    +0.000 C 
ENDBRANCH   5  20
TORSDOF 2
ENDMDL
MODEL 4
REMARK VINA RESULT:     -10.5      1.387      6.799
REMARK  Name = 24779674
REMARK  2 active torsions:
REMARK  status: ('A' for Active; 'I' for Inactive)
REMARK    1  A    between atoms: N_2  and  C_14
REMARK    2  A    between atoms: N_5  and  C_20
REMARK                            x       y       z     vdW  Elec       q    Type
REMARK                         _______ _______ _______ _____ _____    ______ ____
ROOT
ATOM      1  N   UNL     1      35.583 -22.697 -17.507  0.00  0.00    -0.124 N 
ATOM      2  N   UNL     1      37.057 -23.181 -15.725  0.00  0.00    -0.274 N 
ATOM      3  N   UNL     1      34.762 -23.770 -15.658  0.00  0.00    -0.295 NA
ATOM      4  N   UNL     1      33.300 -23.264 -17.478  0.00  0.00    -0.315 NA
ATOM      5  N   UNL     1      32.473 -24.351 -15.602  0.00  0.00    -0.238 N 
ATOM      6  N   UNL     1      36.553 -22.118 -18.236  0.00  0.00    -0.171 NA
ATOM      7  C   UNL     1      35.793 -23.240 -16.249  0.00  0.00    +0.279 C 
ATOM      8  C   UNL     1      34.359 -22.709 -18.109  0.00  0.00    +0.206 C 
ATOM      9  C   UNL     1      33.518 -23.775 -16.287  0.00  0.00    +0.207 C 
ATOM     10  C   UNL     1      34.542 -22.091 -19.325  0.00  0.00    +0.127 C 
ATOM     11  C   UNL     1      35.910 -21.750 -19.348  0.00  0.00    +0.101 C 
ATOM     12  H   UNL     1      37.743 -22.751 -16.284  0.00  0.00    +0.156 HD
ATOM     13  H   UNL     1      32.701 -25.086 -14.986  0.00  0.00    +0.166 HD
ENDROOT
BRANCH   2  14
ATOM     14  C   UNL     1      37.475 -23.667 -14.486  0.00  0.00    +0.051 C 
ATOM     15  C   UNL     1      37.118 -22.993 -13.317  0.00  0.00    +0.015 C 
ATOM     16  C   UNL     1      38.248 -24.826 -14.415  0.00  0.00    +0.015 C 
ATOM     17  C   UNL     1      37.536 -23.478 -12.078  0.00  0.00    +0.001 C 
ATOM     18  C   UNL     1      38.665 -25.310 -13.176  0.00  0.00    +0.001 C 
ATOM     19  C   UNL     1      38.309 -24.637 -12.007  0.00  0.00    +0.000 C 
ENDBRANCH   2  14
BRANCH   5  20
ATOM     20  C   UNL     1      31.128 -24.003 -15.689  0.00  0.00    +0.058 C 
ATOM     21  C   UNL     1      30.207 -24.909 -16.215  0.00  0.00    +0.015 C 
ATOM     22  C   UNL     1      30.703 -22.749 -15.251  0.00  0.00    +0.015 C 
ATOM     23  C   UNL     1      28.859 -24.560 -16.303  0.00  0.00    +0.001 C 
ATOM     24  C   UNL     1      29.355 -22.401 -15.339  0.00  0.00    +0.001 C 
ATOM     25  C   UNL     1      28.433 -23.307 -15.865  0.00  0.00    +0.000 C 
ENDBRANCH   5  20
TORSDOF 2
ENDMDL
MODEL 5
REMARK VINA RESULT:      -9.9     12.023     15.287
REMARK  Name = 24779674
REMARK  2 active torsions:
REMARK  status: ('A' for Active; 'I' for Inactive)
REMARK    1  A    between atoms: N_2  and  C_14
REMARK    2  A    between atoms: N_5  and  C_20
REMARK                            x       y       z     vdW  Elec       q    Type
REMARK                         _______ _______ _______ _____ _____    ______ ____
ROOT
ATOM      1  N   UNL     1      32.130  -9.781 -21.289  0.00  0.00    -0.124 N 
ATOM      2  N   UNL     1      32.634  -7.785 -22.448  0.00  0.00    -0.274 N 
ATOM      3  N   UNL     1      32.930  -9.922 -23.429  0.00  0.00    -0.295 NA
ATOM      4  N   UNL     1      32.410 -11.920 -22.228  0.00  0.00    -0.315 NA
ATOM      5  N   UNL     1      33.222 -12.057 -24.398  0.00  0.00    -0.238 N 
ATOM      6  N   UNL     1      31.737  -9.118 -20.188  0.00  0.00    -0.171 NA
ATOM      7  C   UNL     1      32.584  -9.154 -22.439  0.00  0.00    +0.279 C 
ATOM      8  C   UNL     1      32.045 -11.139 -21.186  0.00  0.00    +0.206 C 
ATOM      9  C   UNL     1      32.837 -11.307 -23.310  0.00  0.00    +0.207 C 
ATOM     10  C   UNL     1      31.559 -11.382 -19.922  0.00  0.00    +0.127 C 
ATOM     11  C   UNL     1      31.389 -10.103 -19.355  0.00  0.00    +0.101 C 
ATOM     12  H   UNL     1      32.341  -7.330 -21.626  0.00  0.00    +0.156 HD
ATOM     13  H   UNL     1      33.098 -11.644 -25.284  0.00  0.00    +0.166 HD
ENDROOT
BRANCH   2  14
ATOM     14  C   UNL     1      33.056  -6.969 -23.498  0.00  0.00    +0.051 C 
ATOM     15  C   UNL     1      32.116  -6.385 -24.348  0.00  0.00    +0.015 C 
ATOM     16  C   UNL     1      34.417  -6.735 -23.697  0.00  0.00    +0.015 C 
ATOM     17  C   UNL     1      32.537  -5.569 -25.398  0.00  0.00    +0.001 C 
ATOM     18  C   UNL     1      34.838  -5.919 -24.746  0.00  0.00    +0.001 C 
ATOM     19  C   UNL     1      33.898  -5.335 -25.597  0.00  0.00    +0.000 C 
ENDBRANCH   2  14
BRANCH   5  20
ATOM     20  C   UNL     1      33.767 -13.337 -24.375  0.00  0.00    +0.058 C 
ATOM     21  C   UNL     1      34.527 -13.752 -23.282  0.00  0.00    +0.015 C 
ATOM     22  C   UNL     1      33.552 -14.205 -25.447  0.00  0.00    +0.015 C 
ATOM     23  C   UNL     1      35.074 -15.036 -23.261  0.00  0.00    +0.001 C 
ATOM     24  C   UNL     1      34.099 -15.487 -25.424  0.00  0.00    +0.001 C 
ATOM     25  C   UNL     1      34.860 -15.903 -24.331  0.00  0.00    +0.000 C 
ENDBRANCH   5  20
TORSDOF 2
ENDMDL
MODEL 6
REMARK VINA RESULT:      -9.9      1.431      4.712
REMARK  Name = 24779674
REMARK  2 active torsions:
REMARK  status: ('A' for Active; 'I' for Inactive)
REMARK    1  A    between atoms: N_2  and  C_14
REMARK    2  A    between atoms: N_5  and  C_20
REMARK                            x       y       z     vdW  Elec       q    Type
REMARK                         _______ _______ _______ _____ _____    ______ ____
ROOT
ATOM      1  N   UNL     1      33.912 -22.500 -18.246  0.00  0.00    -0.124 N 
ATOM      2  N   UNL     1      31.680 -22.911 -17.593  0.00  0.00    -0.274 N 
ATOM      3  N   UNL     1      33.524 -23.529 -16.238  0.00  0.00    -0.295 NA
ATOM      4  N   UNL     1      35.769 -23.098 -16.931  0.00  0.00    -0.315 NA
ATOM      5  N   UNL     1      35.370 -24.142 -14.897  0.00  0.00    -0.238 N 
ATOM      6  N   UNL     1      33.536 -21.928 -19.403  0.00  0.00    -0.171 NA
ATOM      7  C   UNL     1      33.018 -23.003 -17.315  0.00  0.00    +0.279 C 
ATOM      8  C   UNL     1      35.263 -22.547 -18.057  0.00  0.00    +0.206 C 
ATOM      9  C   UNL     1      34.906 -23.570 -16.059  0.00  0.00    +0.207 C 
ATOM     10  C   UNL     1      35.811 -21.960 -19.175  0.00  0.00    +0.127 C 
ATOM     11  C   UNL     1      34.702 -21.599 -19.966  0.00  0.00    +0.101 C 
ATOM     12  H   UNL     1      31.437 -22.488 -18.447  0.00  0.00    +0.156 HD
ATOM     13  H   UNL     1      34.787 -24.069 -14.106  0.00  0.00    +0.166 HD
ENDROOT
BRANCH   2  14
ATOM     14  C   UNL     1      30.625 -23.353 -16.793  0.00  0.00    +0.051 C 
ATOM     15  C   UNL     1      29.435 -22.626 -16.744  0.00  0.00    +0.015 C 
ATOM     16  C   UNL     1      30.760 -24.521 -16.043  0.00  0.00    +0.015 C 
ATOM     17  C   UNL     1      28.381 -23.066 -15.945  0.00  0.00    +0.001 C 
ATOM     18  C   UNL     1      29.706 -24.961 -15.243  0.00  0.00    +0.001 C 
ATOM     19  C   UNL     1      28.516 -24.235 -15.194  0.00  0.00    +0.000 C 
ENDBRANCH   2  14
BRANCH   5  20
ATOM     20  C   UNL     1      36.577 -24.812 -14.724  0.00  0.00    +0.058 C 
ATOM     21  C   UNL     1      37.613 -24.209 -14.011  0.00  0.00    +0.015 C 
ATOM     22  C   UNL     1      36.750 -26.088 -15.263  0.00  0.00    +0.015 C 
ATOM     23  C   UNL     1      38.824 -24.881 -13.838  0.00  0.00    +0.001 C 
ATOM     24  C   UNL     1      37.960 -26.758 -15.089  0.00  0.00    +0.001 C 
ATOM     25  C   UNL     1      38.997 -26.155 -14.377  0.00  0.00    +0.000 C 
ENDBRANCH   5  20
TORSDOF 2
ENDMDL
MODEL 7
REMARK VINA RESULT:      -9.7      7.525     11.100
REMARK  Name = 24779674
REMARK  2 active torsions:
REMARK  status: ('A' for Active; 'I' for Inactive)
REMARK    1  A    between atoms: N_2  and  C_14
REMARK    2  A    between atoms: N_5  and  C_20
REMARK                            x       y       z     vdW  Elec       q    Type
REMARK                         _______ _______ _______ _____ _____    ______ ____
ROOT
ATOM      1  N   UNL     1      33.784 -14.586 -24.494  0.00  0.00    -0.124 N 
ATOM      2  N   UNL     1      32.798 -12.981 -23.068  0.00  0.00    -0.274 N 
ATOM      3  N   UNL     1      34.093 -14.781 -22.234  0.00  0.00    -0.295 NA
ATOM      4  N   UNL     1      35.076 -16.387 -23.705  0.00  0.00    -0.315 NA
ATOM      5  N   UNL     1      35.386 -16.581 -21.413  0.00  0.00    -0.238 N 
ATOM      6  N   UNL     1      33.296 -13.997 -25.600  0.00  0.00    -0.171 NA
ATOM      7  C   UNL     1      33.559 -14.111 -23.212  0.00  0.00    +0.279 C 
ATOM      8  C   UNL     1      34.528 -15.704 -24.736  0.00  0.00    +0.206 C 
ATOM      9  C   UNL     1      34.852 -15.921 -22.496  0.00  0.00    +0.207 C 
ATOM     10  C   UNL     1      34.528 -15.856 -26.103  0.00  0.00    +0.127 C 
ATOM     11  C   UNL     1      33.755 -14.779 -26.581  0.00  0.00    +0.101 C 
ATOM     12  H   UNL     1      32.456 -12.574 -23.896  0.00  0.00    +0.156 HD
ATOM     13  H   UNL     1      35.606 -16.031 -20.627  0.00  0.00    +0.166 HD
ENDROOT
BRANCH   2  14
ATOM     14  C   UNL     1      32.458 -12.345 -21.874  0.00  0.00    +0.051 C 
ATOM     15  C   UNL     1      32.186 -10.976 -21.865  0.00  0.00    +0.015 C 
ATOM     16  C   UNL     1      32.388 -13.077 -20.689  0.00  0.00    +0.015 C 
ATOM     17  C   UNL     1      31.847 -10.340 -20.671  0.00  0.00    +0.001 C 
ATOM     18  C   UNL     1      32.049 -12.441 -19.495  0.00  0.00    +0.001 C 
ATOM     19  C   UNL     1      31.777 -11.073 -19.486  0.00  0.00    +0.000 C 
ENDBRANCH   2  14
BRANCH   5  20
ATOM     20  C   UNL     1      35.647 -17.944 -21.315  0.00  0.00    +0.058 C 
ATOM     21  C   UNL     1      34.595 -18.859 -21.348  0.00  0.00    +0.015 C 
ATOM     22  C   UNL     1      36.961 -18.394 -21.185  0.00  0.00    +0.015 C 
ATOM     23  C   UNL     1      34.857 -20.227 -21.249  0.00  0.00    +0.001 C 
ATOM     24  C   UNL     1      37.222 -19.761 -21.086  0.00  0.00    +0.001 C 
ATOM     25  C   UNL     1      36.171 -20.677 -21.118  0.00  0.00    +0.000 C 
ENDBRANCH   5  20
TORSDOF 2
ENDMDL
MODEL 8
REMARK VINA RESULT:      -9.1      1.253      6.615
REMARK  Name = 24779674
REMARK  2 active torsions:
REMARK  status: ('A' for Active; 'I' for Inactive)
REMARK    1  A    between atoms: N_2  and  C_14
REMARK    2  A    between atoms: N_5  and  C_20
REMARK                            x       y       z     vdW  Elec       q    Type
REMARK                         _______ _______ _______ _____ _____    ______ ____
ROOT
ATOM      1  N   UNL     1      33.598 -24.425 -15.200  0.00  0.00    -0.124 N 
ATOM      2  N   UNL     1      35.580 -25.406 -14.369  0.00  0.00    -0.274 N 
ATOM      3  N   UNL     1      35.610 -23.733 -16.047  0.00  0.00    -0.295 NA
ATOM      4  N   UNL     1      33.586 -22.763 -16.865  0.00  0.00    -0.315 NA
ATOM      5  N   UNL     1      35.627 -22.065 -17.720  0.00  0.00    -0.238 N 
ATOM      6  N   UNL     1      32.817 -25.168 -14.397  0.00  0.00    -0.171 NA
ATOM      7  C   UNL     1      34.981 -24.513 -15.217  0.00  0.00    +0.279 C 
ATOM      8  C   UNL     1      32.914 -23.566 -16.010  0.00  0.00    +0.206 C 
ATOM      9  C   UNL     1      34.897 -22.860 -16.867  0.00  0.00    +0.207 C 
ATOM     10  C   UNL     1      31.585 -23.761 -15.712  0.00  0.00    +0.127 C 
ATOM     11  C   UNL     1      31.586 -24.756 -14.714  0.00  0.00    +0.101 C 
ATOM     12  H   UNL     1      34.981 -25.934 -13.794  0.00  0.00    +0.156 HD
ATOM     13  H   UNL     1      36.530 -21.809 -17.420  0.00  0.00    +0.166 HD
ENDROOT
BRANCH   2  14
ATOM     14  C   UNL     1      36.947 -25.645 -14.231  0.00  0.00    +0.051 C 
ATOM     15  C   UNL     1      37.671 -25.000 -13.227  0.00  0.00    +0.015 C 
ATOM     16  C   UNL     1      37.592 -26.529 -15.097  0.00  0.00    +0.015 C 
ATOM     17  C   UNL     1      39.038 -25.239 -13.090  0.00  0.00    +0.001 C 
ATOM     18  C   UNL     1      38.959 -26.767 -14.960  0.00  0.00    +0.001 C 
ATOM     19  C   UNL     1      39.682 -26.122 -13.956  0.00  0.00    +0.000 C 
ENDBRANCH   2  14
BRANCH   5  20
ATOM     20  C   UNL     1      35.222 -21.585 -18.962  0.00  0.00    +0.058 C 
ATOM     21  C   UNL     1      36.160 -21.035 -19.836  0.00  0.00    +0.015 C 
ATOM     22  C   UNL     1      33.879 -21.655 -19.332  0.00  0.00    +0.015 C 
ATOM     23  C   UNL     1      35.754 -20.553 -21.081  0.00  0.00    +0.001 C 
ATOM     24  C   UNL     1      33.474 -21.173 -20.576  0.00  0.00    +0.001 C 
ATOM     25  C   UNL     1      34.411 -20.622 -21.451  0.00  0.00    +0.000 C 
ENDBRANCH   5  20
TORSDOF 2
ENDMDL
MODEL 9
REMARK VINA RESULT:      -9.0      1.524      4.718
REMARK  Name = 24779674
REMARK  2 active torsions:
REMARK  status: ('A' for Active; 'I' for Inactive)
REMARK    1  A    between atoms: N_2  and  C_14
REMARK    2  A    between atoms: N_5  and  C_20
REMARK                            x       y       z     vdW  Elec       q    Type
REMARK                         _______ _______ _______ _____ _____    ______ ____
ROOT
ATOM      1  N   UNL     1      34.601 -22.531 -17.952  0.00  0.00    -0.124 N 
ATOM      2  N   UNL     1      32.442 -23.168 -17.237  0.00  0.00    -0.274 N 
ATOM      3  N   UNL     1      34.376 -23.575 -15.928  0.00  0.00    -0.295 NA
ATOM      4  N   UNL     1      36.544 -22.916 -16.683  0.00  0.00    -0.315 NA
ATOM      5  N   UNL     1      36.310 -23.976 -14.632  0.00  0.00    -0.238 N 
ATOM      6  N   UNL     1      34.136 -22.013 -19.103  0.00  0.00    -0.171 NA
ATOM      7  C   UNL     1      33.789 -23.116 -16.994  0.00  0.00    +0.279 C 
ATOM      8  C   UNL     1      35.954 -22.433 -17.800  0.00  0.00    +0.206 C 
ATOM      9  C   UNL     1      35.758 -23.468 -15.785  0.00  0.00    +0.207 C 
ATOM     10  C   UNL     1      36.407 -21.803 -18.936  0.00  0.00    +0.127 C 
ATOM     11  C   UNL     1      35.247 -21.569 -19.700  0.00  0.00    +0.101 C 
ATOM     12  H   UNL     1      32.134 -22.781 -18.087  0.00  0.00    +0.156 HD
ATOM     13  H   UNL     1      35.744 -23.957 -13.826  0.00  0.00    +0.166 HD
ENDROOT
BRANCH   2  14
ATOM     14  C   UNL     1      31.461 -23.710 -16.406  0.00  0.00    +0.051 C 
ATOM     15  C   UNL     1      30.114 -23.448 -16.654  0.00  0.00    +0.015 C 
ATOM     16  C   UNL     1      31.827 -24.516 -15.327  0.00  0.00    +0.015 C 
ATOM     17  C   UNL     1      29.133 -23.989 -15.824  0.00  0.00    +0.001 C 
ATOM     18  C   UNL     1      30.846 -25.057 -14.497  0.00  0.00    +0.001 C 
ATOM     19  C   UNL     1      29.499 -24.794 -14.745  0.00  0.00    +0.000 C 
ENDBRANCH   2  14
BRANCH   5  20
ATOM     20  C   UNL     1      37.586 -24.514 -14.486  0.00  0.00    +0.058 C 
ATOM     21  C   UNL     1      38.475 -24.499 -15.560  0.00  0.00    +0.015 C 
ATOM     22  C   UNL     1      37.974 -25.066 -13.266  0.00  0.00    +0.015 C 
ATOM     23  C   UNL     1      39.754 -25.039 -15.414  0.00  0.00    +0.001 C 
ATOM     24  C   UNL     1      39.251 -25.606 -13.120  0.00  0.00    +0.001 C 
ATOM     25  C   UNL     1      40.141 -25.592 -14.194  0.00  0.00    +0.000 C 
ENDBRANCH   5  20
TORSDOF 2
ENDMDL
