MODEL 1
REMARK VINA RESULT:     -11.4      0.000      0.000
REMARK  Name = 25118925
REMARK  3 active torsions:
REMARK  status: ('A' for Active; 'I' for Inactive)
REMARK    1  A    between atoms: C_3  and  C_12
REMARK    2  A    between atoms: C_5  and  C_24
REMARK    3  A    between atoms: C_27  and  C_33
REMARK                            x       y       z     vdW  Elec       q    Type
REMARK                         _______ _______ _______ _____ _____    ______ ____
ROOT
ATOM      1  N   UNL     1      32.055 -11.505 -21.759  0.00  0.00    -0.279 N 
ATOM      2  N   UNL     1      33.371 -11.477 -23.548  0.00  0.00    -0.394 NA
ATOM      3  C   UNL     1      32.711 -10.739 -22.682  0.00  0.00    +0.160 C 
ATOM      4  C   UNL     1      32.312 -12.814 -22.055  0.00  0.00    +0.152 C 
ATOM      5  C   UNL     1      33.125 -12.772 -23.163  0.00  0.00    +0.130 C 
ATOM      6  C   UNL     1      31.236 -11.034 -20.667  0.00  0.00    +0.115 C 
ENDROOT
BRANCH   3  12
ATOM      7  N   UNL     1      32.590  -6.581 -23.843  0.00  0.00    -0.296 N 
ATOM      8  N   UNL     1      31.635  -4.395 -23.850  0.00  0.00    -0.233 NA
ATOM      9  N   UNL     1      34.172  -3.417 -26.815  0.00  0.00    -0.223 N 
ATOM     10  N   UNL     1      32.387  -2.644 -25.373  0.00  0.00    -0.232 NA
ATOM     11  N   UNL     1      34.896  -4.526 -27.051  0.00  0.00    -0.183 NA
ATOM     12  C   UNL     1      32.653  -9.224 -22.664  0.00  0.00    +0.070 C 
ATOM     13  C   UNL     1      31.399  -8.685 -23.367  0.00  0.00    +0.030 C 
ATOM     14  C   UNL     1      33.904  -8.590 -23.290  0.00  0.00    +0.030 C 
ATOM     15  C   UNL     1      31.347  -7.158 -23.314  0.00  0.00    +0.092 C 
ATOM     16  C   UNL     1      33.839  -7.063 -23.243  0.00  0.00    +0.092 C 
ATOM     17  C   UNL     1      32.528  -5.280 -24.354  0.00  0.00    +0.118 C 
ATOM     18  C   UNL     1      33.377  -4.873 -25.379  0.00  0.00    +0.152 C 
ATOM     19  C   UNL     1      33.248  -3.569 -25.824  0.00  0.00    +0.133 C 
ATOM     20  C   UNL     1      34.408  -5.410 -26.174  0.00  0.00    +0.105 C 
ATOM     21  C   UNL     1      31.620  -3.150 -24.383  0.00  0.00    +0.252 C 
ATOM     22  H   UNL     1      34.297  -2.575 -27.309  0.00  0.00    +0.176 HD
ENDBRANCH   3  12
BRANCH   5  24
ATOM     23  F   UNL     1      35.168 -17.227 -25.786  0.00  0.00    -0.204 F 
ATOM     24  C   UNL     1      33.653 -13.918 -23.835  0.00  0.00    +0.027 C 
ATOM     25  C   UNL     1      34.304 -14.916 -23.109  0.00  0.00    +0.008 C 
ATOM     26  C   UNL     1      33.513 -14.041 -25.218  0.00  0.00    +0.005 C 
ATOM     27  C   UNL     1      34.817 -16.034 -23.764  0.00  0.00    +0.099 C 
ATOM     28  C   UNL     1      34.026 -15.159 -25.874  0.00  0.00    +0.030 C 
ATOM     29  C   UNL     1      34.678 -16.156 -25.147  0.00  0.00    +0.144 C 
BRANCH  27  33
ATOM     30  F   UNL     1      34.925 -18.327 -23.092  0.00  0.00    -0.166 F 
ATOM     31  F   UNL     1      36.811 -17.293 -23.366  0.00  0.00    -0.166 F 
ATOM     32  F   UNL     1      35.558 -16.828 -21.650  0.00  0.00    -0.166 F 
ATOM     33  C   UNL     1      35.514 -17.099 -22.987  0.00  0.00    +0.421 C 
ENDBRANCH  27  33
ENDBRANCH   5  24
TORSDOF 3
ENDMDL
MODEL 2
REMARK VINA RESULT:     -11.2      3.326      6.051
REMARK  Name = 25118925
REMARK  3 active torsions:
REMARK  status: ('A' for Active; 'I' for Inactive)
REMARK    1  A    between atoms: C_3  and  C_12
REMARK    2  A    between atoms: C_5  and  C_24
REMARK    3  A    between atoms: C_27  and  C_33
REMARK                            x       y       z     vdW  Elec       q    Type
REMARK                         _______ _______ _______ _____ _____    ______ ____
ROOT
ATOM      1  N   UNL     1      34.619 -16.062 -24.890  0.00  0.00    -0.279 N 
ATOM      2  N   UNL     1      34.561 -16.028 -22.670  0.00  0.00    -0.394 NA
ATOM      3  C   UNL     1      34.255 -15.371 -23.768  0.00  0.00    +0.160 C 
ATOM      4  C   UNL     1      35.193 -17.234 -24.482  0.00  0.00    +0.152 C 
ATOM      5  C   UNL     1      35.145 -17.190 -23.109  0.00  0.00    +0.130 C 
ATOM      6  C   UNL     1      34.438 -15.645 -26.260  0.00  0.00    +0.115 C 
ENDROOT
BRANCH   3  12
ATOM      7  N   UNL     1      33.035 -11.304 -22.976  0.00  0.00    -0.296 N 
ATOM      8  N   UNL     1      32.695  -9.022 -23.584  0.00  0.00    -0.233 NA
ATOM      9  N   UNL     1      32.058  -8.199 -19.698  0.00  0.00    -0.223 N 
ATOM     10  N   UNL     1      32.175  -7.295 -21.941  0.00  0.00    -0.232 NA
ATOM     11  N   UNL     1      32.191  -9.373 -19.053  0.00  0.00    -0.183 NA
ATOM     12  C   UNL     1      33.582 -14.014 -23.836  0.00  0.00    +0.070 C 
ATOM     13  C   UNL     1      34.593 -12.878 -24.058  0.00  0.00    +0.030 C 
ATOM     14  C   UNL     1      32.747 -13.719 -22.581  0.00  0.00    +0.030 C 
ATOM     15  C   UNL     1      33.892 -11.523 -24.150  0.00  0.00    +0.092 C 
ATOM     16  C   UNL     1      32.058 -12.356 -22.677  0.00  0.00    +0.092 C 
ATOM     17  C   UNL     1      32.750  -9.979 -22.626  0.00  0.00    +0.118 C 
ATOM     18  C   UNL     1      32.518  -9.624 -21.301  0.00  0.00    +0.152 C 
ATOM     19  C   UNL     1      32.244  -8.292 -21.045  0.00  0.00    +0.133 C 
ATOM     20  C   UNL     1      32.472 -10.237 -20.035  0.00  0.00    +0.105 C 
ATOM     21  C   UNL     1      32.415  -7.758 -23.187  0.00  0.00    +0.252 C 
ATOM     22  H   UNL     1      31.846  -7.353 -19.241  0.00  0.00    +0.176 HD
ENDBRANCH   3  12
BRANCH   5  24
ATOM     23  F   UNL     1      37.075 -21.166 -19.736  0.00  0.00    -0.204 F 
ATOM     24  C   UNL     1      35.639 -18.213 -22.241  0.00  0.00    +0.027 C 
ATOM     25  C   UNL     1      34.772 -19.189 -21.749  0.00  0.00    +0.008 C 
ATOM     26  C   UNL     1      36.988 -18.237 -21.887  0.00  0.00    +0.005 C 
ATOM     27  C   UNL     1      35.254 -20.188 -20.903  0.00  0.00    +0.099 C 
ATOM     28  C   UNL     1      37.470 -19.234 -21.041  0.00  0.00    +0.030 C 
ATOM     29  C   UNL     1      36.603 -20.210 -20.549  0.00  0.00    +0.144 C 
BRANCH  27  33
ATOM     30  F   UNL     1      34.747 -22.507 -20.614  0.00  0.00    -0.166 F 
ATOM     31  F   UNL     1      34.137 -21.163 -19.026  0.00  0.00    -0.166 F 
ATOM     32  F   UNL     1      33.079 -21.148 -20.927  0.00  0.00    -0.166 F 
ATOM     33  C   UNL     1      34.325 -21.230 -20.377  0.00  0.00    +0.421 C 
ENDBRANCH  27  33
ENDBRANCH   5  24
TORSDOF 3
ENDMDL
MODEL 3
REMARK VINA RESULT:     -10.5      0.979      1.951
REMARK  Name = 25118925
REMARK  3 active torsions:
REMARK  status: ('A' for Active; 'I' for Inactive)
REMARK    1  A    between atoms: C_3  and  C_12
REMARK    2  A    between atoms: C_5  and  C_24
REMARK    3  A    between atoms: C_27  and  C_33
REMARK                            x       y       z     vdW  Elec       q    Type
REMARK                         _______ _______ _______ _____ _____    ______ ____
ROOT
ATOM      1  N   UNL     1      31.765 -11.264 -21.058  0.00  0.00    -0.279 N 
ATOM      2  N   UNL     1      33.277 -11.369 -22.682  0.00  0.00    -0.394 NA
ATOM      3  C   UNL     1      32.480 -10.576 -21.999  0.00  0.00    +0.160 C 
ATOM      4  C   UNL     1      32.129 -12.578 -21.146  0.00  0.00    +0.152 C 
ATOM      5  C   UNL     1      33.062 -12.618 -22.155  0.00  0.00    +0.130 C 
ATOM      6  C   UNL     1      30.800 -10.718 -20.133  0.00  0.00    +0.115 C 
ENDROOT
BRANCH   3  12
ATOM      7  N   UNL     1      32.409  -6.600 -23.683  0.00  0.00    -0.296 N 
ATOM      8  N   UNL     1      31.362  -4.517 -24.193  0.00  0.00    -0.233 NA
ATOM      9  N   UNL     1      34.479  -3.666 -26.590  0.00  0.00    -0.223 N 
ATOM     10  N   UNL     1      32.360  -2.890 -25.713  0.00  0.00    -0.232 NA
ATOM     11  N   UNL     1      35.300  -4.729 -26.507  0.00  0.00    -0.183 NA
ATOM     12  C   UNL     1      32.335  -9.079 -22.191  0.00  0.00    +0.070 C 
ATOM     13  C   UNL     1      31.258  -8.731 -23.229  0.00  0.00    +0.030 C 
ATOM     14  C   UNL     1      33.662  -8.415 -22.586  0.00  0.00    +0.030 C 
ATOM     15  C   UNL     1      31.109  -7.218 -23.386  0.00  0.00    +0.092 C 
ATOM     16  C   UNL     1      33.503  -6.903 -22.753  0.00  0.00    +0.092 C 
ATOM     17  C   UNL     1      32.399  -5.374 -24.358  0.00  0.00    +0.118 C 
ATOM     18  C   UNL     1      33.445  -5.015 -25.202  0.00  0.00    +0.152 C 
ATOM     19  C   UNL     1      33.354  -3.785 -25.830  0.00  0.00    +0.133 C 
ATOM     20  C   UNL     1      34.665  -5.547 -25.660  0.00  0.00    +0.105 C 
ATOM     21  C   UNL     1      31.407  -3.346 -24.871  0.00  0.00    +0.252 C 
ATOM     22  H   UNL     1      34.672  -2.878 -27.147  0.00  0.00    +0.176 HD
ENDBRANCH   3  12
BRANCH   5  24
ATOM     23  F   UNL     1      35.657 -17.215 -23.900  0.00  0.00    -0.204 F 
ATOM     24  C   UNL     1      33.728 -13.801 -22.607  0.00  0.00    +0.027 C 
ATOM     25  C   UNL     1      33.660 -14.171 -23.950  0.00  0.00    +0.008 C 
ATOM     26  C   UNL     1      34.448 -14.583 -21.703  0.00  0.00    +0.005 C 
ATOM     27  C   UNL     1      34.310 -15.323 -24.390  0.00  0.00    +0.099 C 
ATOM     28  C   UNL     1      35.098 -15.736 -22.142  0.00  0.00    +0.030 C 
ATOM     29  C   UNL     1      35.029 -16.106 -23.486  0.00  0.00    +0.144 C 
BRANCH  27  33
ATOM     30  F   UNL     1      33.362 -16.740 -26.067  0.00  0.00    -0.166 F 
ATOM     31  F   UNL     1      33.835 -14.705 -26.651  0.00  0.00    -0.166 F 
ATOM     32  F   UNL     1      35.437 -16.139 -26.318  0.00  0.00    -0.166 F 
ATOM     33  C   UNL     1      34.235 -15.718 -25.826  0.00  0.00    +0.421 C 
ENDBRANCH  27  33
ENDBRANCH   5  24
TORSDOF 3
ENDMDL
MODEL 4
REMARK VINA RESULT:     -10.1      7.587     13.359
REMARK  Name = 25118925
REMARK  3 active torsions:
REMARK  status: ('A' for Active; 'I' for Inactive)
REMARK    1  A    between atoms: C_3  and  C_12
REMARK    2  A    between atoms: C_5  and  C_24
REMARK    3  A    between atoms: C_27  and  C_33
REMARK                            x       y       z     vdW  Elec       q    Type
REMARK                         _______ _______ _______ _____ _____    ______ ____
ROOT
ATOM      1  N   UNL     1      35.238 -19.406 -24.221  0.00  0.00    -0.279 N 
ATOM      2  N   UNL     1      34.688 -18.001 -22.591  0.00  0.00    -0.394 NA
ATOM      3  C   UNL     1      34.931 -19.257 -22.897  0.00  0.00    +0.160 C 
ATOM      4  C   UNL     1      35.187 -18.167 -24.796  0.00  0.00    +0.152 C 
ATOM      5  C   UNL     1      34.846 -17.317 -23.771  0.00  0.00    +0.130 C 
ATOM      6  C   UNL     1      35.559 -20.637 -24.903  0.00  0.00    +0.115 C 
ENDROOT
BRANCH   3  12
ATOM      7  N   UNL     1      35.140 -21.738 -19.368  0.00  0.00    -0.296 N 
ATOM      8  N   UNL     1      34.240 -23.291 -17.796  0.00  0.00    -0.233 NA
ATOM      9  N   UNL     1      37.416 -22.567 -15.434  0.00  0.00    -0.223 N 
ATOM     10  N   UNL     1      35.352 -23.808 -15.687  0.00  0.00    -0.232 NA
ATOM     11  N   UNL     1      38.162 -21.664 -16.098  0.00  0.00    -0.183 NA
ATOM     12  C   UNL     1      34.890 -20.432 -21.939  0.00  0.00    +0.070 C 
ATOM     13  C   UNL     1      33.843 -20.239 -20.832  0.00  0.00    +0.030 C 
ATOM     14  C   UNL     1      36.261 -20.710 -21.305  0.00  0.00    +0.030 C 
ATOM     15  C   UNL     1      33.799 -21.445 -19.895  0.00  0.00    +0.092 C 
ATOM     16  C   UNL     1      36.206 -21.910 -20.360  0.00  0.00    +0.092 C 
ATOM     17  C   UNL     1      35.216 -22.419 -18.148  0.00  0.00    +0.118 C 
ATOM     18  C   UNL     1      36.288 -22.218 -17.283  0.00  0.00    +0.152 C 
ATOM     19  C   UNL     1      36.283 -22.933 -16.098  0.00  0.00    +0.133 C 
ATOM     20  C   UNL     1      37.469 -21.456 -17.223  0.00  0.00    +0.105 C 
ATOM     21  C   UNL     1      34.368 -23.922 -16.604  0.00  0.00    +0.252 C 
ATOM     22  H   UNL     1      37.665 -22.930 -14.554  0.00  0.00    +0.176 HD
ENDBRANCH   3  12
BRANCH   5  24
ATOM     23  F   UNL     1      34.176 -11.821 -24.274  0.00  0.00    -0.204 F 
ATOM     24  C   UNL     1      34.673 -15.904 -23.904  0.00  0.00    +0.027 C 
ATOM     25  C   UNL     1      34.274 -15.360 -25.124  0.00  0.00    +0.008 C 
ATOM     26  C   UNL     1      34.902 -15.068 -22.810  0.00  0.00    +0.005 C 
ATOM     27  C   UNL     1      34.105 -13.982 -25.253  0.00  0.00    +0.099 C 
ATOM     28  C   UNL     1      34.735 -13.690 -22.938  0.00  0.00    +0.030 C 
ATOM     29  C   UNL     1      34.336 -13.147 -24.160  0.00  0.00    +0.144 C 
BRANCH  27  33
ATOM     30  F   UNL     1      33.769 -12.041 -26.609  0.00  0.00    -0.166 F 
ATOM     31  F   UNL     1      34.417 -13.846 -27.620  0.00  0.00    -0.166 F 
ATOM     32  F   UNL     1      32.382 -13.696 -26.866  0.00  0.00    -0.166 F 
ATOM     33  C   UNL     1      33.680 -13.403 -26.560  0.00  0.00    +0.421 C 
ENDBRANCH  27  33
ENDBRANCH   5  24
TORSDOF 3
ENDMDL
MODEL 5
REMARK VINA RESULT:      -9.9      7.326     13.481
REMARK  Name = 25118925
REMARK  3 active torsions:
REMARK  status: ('A' for Active; 'I' for Inactive)
REMARK    1  A    between atoms: C_3  and  C_12
REMARK    2  A    between atoms: C_5  and  C_24
REMARK    3  A    between atoms: C_27  and  C_33
REMARK                            x       y       z     vdW  Elec       q    Type
REMARK                         _______ _______ _______ _____ _____    ______ ____
ROOT
ATOM      1  N   UNL     1      36.255 -18.226 -23.055  0.00  0.00    -0.279 N 
ATOM      2  N   UNL     1      34.609 -17.444 -21.785  0.00  0.00    -0.394 NA
ATOM      3  C   UNL     1      35.352 -18.492 -22.063  0.00  0.00    +0.160 C 
ATOM      4  C   UNL     1      36.076 -16.924 -23.433  0.00  0.00    +0.152 C 
ATOM      5  C   UNL     1      35.056 -16.463 -22.636  0.00  0.00    +0.130 C 
ATOM      6  C   UNL     1      37.224 -19.138 -23.613  0.00  0.00    +0.115 C 
ENDROOT
BRANCH   3  12
ATOM      7  N   UNL     1      35.199 -21.683 -19.157  0.00  0.00    -0.296 N 
ATOM      8  N   UNL     1      34.198 -23.593 -18.136  0.00  0.00    -0.233 NA
ATOM      9  N   UNL     1      36.860 -23.248 -15.139  0.00  0.00    -0.223 N 
ATOM     10  N   UNL     1      34.988 -24.509 -16.017  0.00  0.00    -0.232 NA
ATOM     11  N   UNL     1      37.619 -22.182 -15.452  0.00  0.00    -0.183 NA
ATOM     12  C   UNL     1      35.260 -19.852 -21.397  0.00  0.00    +0.070 C 
ATOM     13  C   UNL     1      34.031 -19.966 -20.484  0.00  0.00    +0.030 C 
ATOM     14  C   UNL     1      36.527 -20.191 -20.598  0.00  0.00    +0.030 C 
ATOM     15  C   UNL     1      33.943 -21.352 -19.845  0.00  0.00    +0.092 C 
ATOM     16  C   UNL     1      36.427 -21.574 -19.953  0.00  0.00    +0.092 C 
ATOM     17  C   UNL     1      35.135 -22.615 -18.114  0.00  0.00    +0.118 C 
ATOM     18  C   UNL     1      36.025 -22.555 -17.047  0.00  0.00    +0.152 C 
ATOM     19  C   UNL     1      35.890 -23.516 -16.060  0.00  0.00    +0.133 C 
ATOM     20  C   UNL     1      37.106 -21.764 -16.614  0.00  0.00    +0.105 C 
ATOM     21  C   UNL     1      34.183 -24.467 -17.101  0.00  0.00    +0.252 C 
ATOM     22  H   UNL     1      36.991 -23.784 -14.325  0.00  0.00    +0.176 HD
ENDBRANCH   3  12
BRANCH   5  24
ATOM     23  F   UNL     1      32.980 -11.308 -22.810  0.00  0.00    -0.204 F 
ATOM     24  C   UNL     1      34.520 -15.138 -22.678  0.00  0.00    +0.027 C 
ATOM     25  C   UNL     1      33.747 -14.663 -21.619  0.00  0.00    +0.008 C 
ATOM     26  C   UNL     1      34.772 -14.319 -23.779  0.00  0.00    +0.005 C 
ATOM     27  C   UNL     1      33.225 -13.370 -21.660  0.00  0.00    +0.099 C 
ATOM     28  C   UNL     1      34.250 -13.027 -23.822  0.00  0.00    +0.030 C 
ATOM     29  C   UNL     1      33.477 -12.552 -22.761  0.00  0.00    +0.144 C 
BRANCH  27  33
ATOM     30  F   UNL     1      32.937 -11.776 -19.901  0.00  0.00    -0.166 F 
ATOM     31  F   UNL     1      31.142 -12.478 -20.896  0.00  0.00    -0.166 F 
ATOM     32  F   UNL     1      32.222 -13.799 -19.547  0.00  0.00    -0.166 F 
ATOM     33  C   UNL     1      32.399 -12.865 -20.527  0.00  0.00    +0.421 C 
ENDBRANCH  27  33
ENDBRANCH   5  24
TORSDOF 3
ENDMDL
MODEL 6
REMARK VINA RESULT:      -9.8      1.830      3.009
REMARK  Name = 25118925
REMARK  3 active torsions:
REMARK  status: ('A' for Active; 'I' for Inactive)
REMARK    1  A    between atoms: C_3  and  C_12
REMARK    2  A    between atoms: C_5  and  C_24
REMARK    3  A    between atoms: C_27  and  C_33
REMARK                            x       y       z     vdW  Elec       q    Type
REMARK                         _______ _______ _______ _____ _____    ______ ____
ROOT
ATOM      1  N   UNL     1      33.877 -13.032 -25.687  0.00  0.00    -0.279 N 
ATOM      2  N   UNL     1      34.434 -14.003 -23.769  0.00  0.00    -0.394 NA
ATOM      3  C   UNL     1      34.134 -12.865 -24.355  0.00  0.00    +0.160 C 
ATOM      4  C   UNL     1      34.021 -14.362 -25.969  0.00  0.00    +0.152 C 
ATOM      5  C   UNL     1      34.364 -14.940 -24.770  0.00  0.00    +0.130 C 
ATOM      6  C   UNL     1      33.518 -12.005 -26.636  0.00  0.00    +0.115 C 
ENDROOT
BRANCH   3  12
ATOM      7  N   UNL     1      33.283  -8.732 -23.431  0.00  0.00    -0.296 N 
ATOM      8  N   UNL     1      32.462  -6.985 -22.028  0.00  0.00    -0.233 NA
ATOM      9  N   UNL     1      32.781  -4.477 -25.158  0.00  0.00    -0.223 N 
ATOM     10  N   UNL     1      32.155  -4.701 -22.829  0.00  0.00    -0.232 NA
ATOM     11  N   UNL     1      33.252  -5.224 -26.173  0.00  0.00    -0.183 NA
ATOM     12  C   UNL     1      34.070 -11.507 -23.683  0.00  0.00    +0.070 C 
ATOM     13  C   UNL     1      32.631 -11.106 -23.325  0.00  0.00    +0.030 C 
ATOM     14  C   UNL     1      34.711 -10.406 -24.540  0.00  0.00    +0.030 C 
ATOM     15  C   UNL     1      32.591  -9.749 -22.625  0.00  0.00    +0.092 C 
ATOM     16  C   UNL     1      34.657  -9.048 -23.838  0.00  0.00    +0.092 C 
ATOM     17  C   UNL     1      32.911  -7.397 -23.239  0.00  0.00    +0.118 C 
ATOM     18  C   UNL     1      32.997  -6.475 -24.277  0.00  0.00    +0.152 C 
ATOM     19  C   UNL     1      32.609  -5.176 -24.000  0.00  0.00    +0.133 C 
ATOM     20  C   UNL     1      33.382  -6.440 -25.631  0.00  0.00    +0.105 C 
ATOM     21  C   UNL     1      32.117  -5.682 -21.901  0.00  0.00    +0.252 C 
ATOM     22  H   UNL     1      32.579  -3.517 -25.242  0.00  0.00    +0.176 HD
ENDBRANCH   3  12
BRANCH   5  24
ATOM     23  F   UNL     1      35.349 -20.362 -24.033  0.00  0.00    -0.204 F 
ATOM     24  C   UNL     1      34.620 -16.334 -24.578  0.00  0.00    +0.027 C 
ATOM     25  C   UNL     1      35.362 -16.763 -23.478  0.00  0.00    +0.008 C 
ATOM     26  C   UNL     1      34.124 -17.266 -25.491  0.00  0.00    +0.005 C 
ATOM     27  C   UNL     1      35.610 -18.122 -23.291  0.00  0.00    +0.099 C 
ATOM     28  C   UNL     1      34.373 -18.625 -25.305  0.00  0.00    +0.030 C 
ATOM     29  C   UNL     1      35.116 -19.053 -24.204  0.00  0.00    +0.144 C 
BRANCH  27  33
ATOM     30  F   UNL     1      35.946 -19.741 -21.562  0.00  0.00    -0.166 F 
ATOM     31  F   UNL     1      37.719 -18.816 -22.401  0.00  0.00    -0.166 F 
ATOM     32  F   UNL     1      36.409 -17.668 -21.098  0.00  0.00    -0.166 F 
ATOM     33  C   UNL     1      36.405 -18.579 -22.114  0.00  0.00    +0.421 C 
ENDBRANCH  27  33
ENDBRANCH   5  24
TORSDOF 3
ENDMDL
MODEL 7
REMARK VINA RESULT:      -9.6      1.240      2.850
REMARK  Name = 25118925
REMARK  3 active torsions:
REMARK  status: ('A' for Active; 'I' for Inactive)
REMARK    1  A    between atoms: C_3  and  C_12
REMARK    2  A    between atoms: C_5  and  C_24
REMARK    3  A    between atoms: C_27  and  C_33
REMARK                            x       y       z     vdW  Elec       q    Type
REMARK                         _______ _______ _______ _____ _____    ______ ____
ROOT
ATOM      1  N   UNL     1      32.390 -10.977 -21.994  0.00  0.00    -0.279 N 
ATOM      2  N   UNL     1      33.665 -11.799 -23.616  0.00  0.00    -0.394 NA
ATOM      3  C   UNL     1      32.988 -10.750 -23.202  0.00  0.00    +0.160 C 
ATOM      4  C   UNL     1      32.706 -12.251 -21.613  0.00  0.00    +0.152 C 
ATOM      5  C   UNL     1      33.493 -12.738 -22.629  0.00  0.00    +0.130 C 
ATOM      6  C   UNL     1      31.572 -10.053 -21.245  0.00  0.00    +0.115 C 
ENDROOT
BRANCH   3  12
ATOM      7  N   UNL     1      32.598  -6.554 -24.148  0.00  0.00    -0.296 N 
ATOM      8  N   UNL     1      33.271  -4.541 -25.238  0.00  0.00    -0.233 NA
ATOM      9  N   UNL     1      30.662  -2.544 -22.916  0.00  0.00    -0.223 N 
ATOM     10  N   UNL     1      32.320  -2.367 -24.672  0.00  0.00    -0.232 NA
ATOM     11  N   UNL     1      30.086  -3.477 -22.135  0.00  0.00    -0.183 NA
ATOM     12  C   UNL     1      32.855  -9.430 -23.935  0.00  0.00    +0.070 C 
ATOM     13  C   UNL     1      34.039  -8.492 -23.658  0.00  0.00    +0.030 C 
ATOM     14  C   UNL     1      31.541  -8.710 -23.597  0.00  0.00    +0.030 C 
ATOM     15  C   UNL     1      33.898  -7.179 -24.428  0.00  0.00    +0.092 C 
ATOM     16  C   UNL     1      31.413  -7.392 -24.362  0.00  0.00    +0.092 C 
ATOM     17  C   UNL     1      32.501  -5.168 -24.316  0.00  0.00    +0.118 C 
ATOM     18  C   UNL     1      31.618  -4.415 -23.547  0.00  0.00    +0.152 C 
ATOM     19  C   UNL     1      31.588  -3.051 -23.779  0.00  0.00    +0.133 C 
ATOM     20  C   UNL     1      30.672  -4.614 -22.525  0.00  0.00    +0.105 C 
ATOM     21  C   UNL     1      33.134  -3.199 -25.357  0.00  0.00    +0.252 C 
ATOM     22  H   UNL     1      30.437  -1.587 -22.869  0.00  0.00    +0.176 HD
ENDBRANCH   3  12
BRANCH   5  24
ATOM     23  F   UNL     1      35.713 -17.833 -22.762  0.00  0.00    -0.204 F 
ATOM     24  C   UNL     1      34.063 -14.049 -22.666  0.00  0.00    +0.027 C 
ATOM     25  C   UNL     1      34.131 -14.747 -23.872  0.00  0.00    +0.008 C 
ATOM     26  C   UNL     1      34.553 -14.629 -21.496  0.00  0.00    +0.005 C 
ATOM     27  C   UNL     1      34.687 -16.025 -23.908  0.00  0.00    +0.099 C 
ATOM     28  C   UNL     1      35.109 -15.907 -21.531  0.00  0.00    +0.030 C 
ATOM     29  C   UNL     1      35.176 -16.605 -22.737  0.00  0.00    +0.144 C 
BRANCH  27  33
ATOM     30  F   UNL     1      34.912 -18.119 -25.042  0.00  0.00    -0.166 F 
ATOM     31  F   UNL     1      33.644 -16.626 -25.974  0.00  0.00    -0.166 F 
ATOM     32  F   UNL     1      35.804 -16.371 -25.978  0.00  0.00    -0.166 F 
ATOM     33  C   UNL     1      34.758 -16.770 -25.198  0.00  0.00    +0.421 C 
ENDBRANCH  27  33
ENDBRANCH   5  24
TORSDOF 3
ENDMDL
MODEL 8
REMARK VINA RESULT:      -9.6      7.724     13.715
REMARK  Name = 25118925
REMARK  3 active torsions:
REMARK  status: ('A' for Active; 'I' for Inactive)
REMARK    1  A    between atoms: C_3  and  C_12
REMARK    2  A    between atoms: C_5  and  C_24
REMARK    3  A    between atoms: C_27  and  C_33
REMARK                            x       y       z     vdW  Elec       q    Type
REMARK                         _______ _______ _______ _____ _____    ______ ____
ROOT
ATOM      1  N   UNL     1      36.500 -18.960 -21.809  0.00  0.00    -0.279 N 
ATOM      2  N   UNL     1      34.466 -18.763 -22.680  0.00  0.00    -0.394 NA
ATOM      3  C   UNL     1      35.230 -19.462 -21.868  0.00  0.00    +0.160 C 
ATOM      4  C   UNL     1      36.550 -17.872 -22.635  0.00  0.00    +0.152 C 
ATOM      5  C   UNL     1      35.283 -17.771 -23.160  0.00  0.00    +0.130 C 
ATOM      6  C   UNL     1      37.598 -19.472 -21.025  0.00  0.00    +0.115 C 
ENDROOT
BRANCH   3  12
ATOM      7  N   UNL     1      34.232 -22.183 -18.665  0.00  0.00    -0.296 N 
ATOM      8  N   UNL     1      32.781 -23.695 -17.524  0.00  0.00    -0.233 NA
ATOM      9  N   UNL     1      35.319 -23.599 -14.404  0.00  0.00    -0.223 N 
ATOM     10  N   UNL     1      33.251 -24.510 -15.274  0.00  0.00    -0.232 NA
ATOM     11  N   UNL     1      36.313 -22.769 -14.772  0.00  0.00    -0.183 NA
ATOM     12  C   UNL     1      34.804 -20.681 -21.073  0.00  0.00    +0.070 C 
ATOM     13  C   UNL     1      33.542 -20.416 -20.239  0.00  0.00    +0.030 C 
ATOM     14  C   UNL     1      35.925 -21.196 -20.159  0.00  0.00    +0.030 C 
ATOM     15  C   UNL     1      33.115 -21.665 -19.468  0.00  0.00    +0.092 C 
ATOM     16  C   UNL     1      35.486 -22.439 -19.382  0.00  0.00    +0.092 C 
ATOM     17  C   UNL     1      33.914 -22.950 -17.539  0.00  0.00    +0.118 C 
ATOM     18  C   UNL     1      34.747 -22.965 -16.425  0.00  0.00    +0.152 C 
ATOM     19  C   UNL     1      34.355 -23.751 -15.356  0.00  0.00    +0.133 C 
ATOM     20  C   UNL     1      35.959 -22.386 -16.004  0.00  0.00    +0.105 C 
ATOM     21  C   UNL     1      32.524 -24.418 -16.408  0.00  0.00    +0.252 C 
ATOM     22  H   UNL     1      35.291 -24.052 -13.531  0.00  0.00    +0.176 HD
ENDBRANCH   3  12
BRANCH   5  24
ATOM     23  F   UNL     1      33.643 -13.881 -26.779  0.00  0.00    -0.204 F 
ATOM     24  C   UNL     1      34.861 -16.768 -24.089  0.00  0.00    +0.027 C 
ATOM     25  C   UNL     1      34.766 -15.437 -23.684  0.00  0.00    +0.008 C 
ATOM     26  C   UNL     1      34.546 -17.122 -25.401  0.00  0.00    +0.005 C 
ATOM     27  C   UNL     1      34.355 -14.460 -24.589  0.00  0.00    +0.099 C 
ATOM     28  C   UNL     1      34.135 -16.145 -26.307  0.00  0.00    +0.030 C 
ATOM     29  C   UNL     1      34.039 -14.814 -25.901  0.00  0.00    +0.144 C 
BRANCH  27  33
ATOM     30  F   UNL     1      34.681 -12.145 -25.095  0.00  0.00    -0.166 F 
ATOM     31  F   UNL     1      32.979 -12.649 -23.849  0.00  0.00    -0.166 F 
ATOM     32  F   UNL     1      34.994 -12.775 -23.038  0.00  0.00    -0.166 F 
ATOM     33  C   UNL     1      34.253 -13.037 -24.154  0.00  0.00    +0.421 C 
ENDBRANCH  27  33
ENDBRANCH   5  24
TORSDOF 3
ENDMDL
MODEL 9
REMARK VINA RESULT:      -9.5      5.411      9.672
REMARK  Name = 25118925
REMARK  3 active torsions:
REMARK  status: ('A' for Active; 'I' for Inactive)
REMARK    1  A    between atoms: C_3  and  C_12
REMARK    2  A    between atoms: C_5  and  C_24
REMARK    3  A    between atoms: C_27  and  C_33
REMARK                            x       y       z     vdW  Elec       q    Type
REMARK                         _______ _______ _______ _____ _____    ______ ____
ROOT
ATOM      1  N   UNL     1      32.267  -4.298 -24.429  0.00  0.00    -0.279 N 
ATOM      2  N   UNL     1      33.662  -5.847 -25.196  0.00  0.00    -0.394 NA
ATOM      3  C   UNL     1      32.711  -5.587 -24.325  0.00  0.00    +0.160 C 
ATOM      4  C   UNL     1      32.980  -3.698 -25.430  0.00  0.00    +0.152 C 
ATOM      5  C   UNL     1      33.834  -4.674 -25.887  0.00  0.00    +0.130 C 
ATOM      6  C   UNL     1      31.237  -3.669 -23.637  0.00  0.00    +0.115 C 
ENDROOT
BRANCH   3  12
ATOM      7  N   UNL     1      32.089  -8.988 -21.737  0.00  0.00    -0.296 N 
ATOM      8  N   UNL     1      31.704 -10.014 -19.618  0.00  0.00    -0.233 NA
ATOM      9  N   UNL     1      32.485 -13.573 -21.324  0.00  0.00    -0.223 N 
ATOM     10  N   UNL     1      31.884 -12.423 -19.279  0.00  0.00    -0.232 NA
ATOM     11  N   UNL     1      32.758 -13.303 -22.614  0.00  0.00    -0.183 NA
ATOM     12  C   UNL     1      32.141  -6.559 -23.310  0.00  0.00    +0.070 C 
ATOM     13  C   UNL     1      33.083  -6.765 -22.115  0.00  0.00    +0.030 C 
ATOM     14  C   UNL     1      31.804  -7.919 -23.938  0.00  0.00    +0.030 C 
ATOM     15  C   UNL     1      32.478  -7.726 -21.092  0.00  0.00    +0.092 C 
ATOM     16  C   UNL     1      31.210  -8.879 -22.906  0.00  0.00    +0.092 C 
ATOM     17  C   UNL     1      32.024 -10.129 -20.930  0.00  0.00    +0.118 C 
ATOM     18  C   UNL     1      32.281 -11.392 -21.455  0.00  0.00    +0.152 C 
ATOM     19  C   UNL     1      32.193 -12.465 -20.585  0.00  0.00    +0.133 C 
ATOM     20  C   UNL     1      32.631 -11.973 -22.687  0.00  0.00    +0.105 C 
ATOM     21  C   UNL     1      31.655 -11.152 -18.885  0.00  0.00    +0.252 C 
ATOM     22  H   UNL     1      32.495 -14.483 -20.950  0.00  0.00    +0.176 HD
ENDBRANCH   3  12
BRANCH   5  24
ATOM     23  F   UNL     1      37.514  -4.005 -30.000  0.00  0.00    -0.204 F 
ATOM     24  C   UNL     1      34.782  -4.501 -26.943  0.00  0.00    +0.027 C 
ATOM     25  C   UNL     1      36.143  -4.406 -26.651  0.00  0.00    +0.008 C 
ATOM     26  C   UNL     1      34.347  -4.431 -28.266  0.00  0.00    +0.005 C 
ATOM     27  C   UNL     1      37.068  -4.238 -27.680  0.00  0.00    +0.099 C 
ATOM     28  C   UNL     1      35.271  -4.262 -29.297  0.00  0.00    +0.030 C 
ATOM     29  C   UNL     1      36.632  -4.166 -29.003  0.00  0.00    +0.144 C 
BRANCH  27  33
ATOM     30  F   UNL     1      38.825  -4.456 -26.073  0.00  0.00    -0.166 F 
ATOM     31  F   UNL     1      39.306  -4.952 -28.129  0.00  0.00    -0.166 F 
ATOM     32  F   UNL     1      39.012  -2.875 -27.554  0.00  0.00    -0.166 F 
ATOM     33  C   UNL     1      38.522  -4.135 -27.366  0.00  0.00    +0.421 C 
ENDBRANCH  27  33
ENDBRANCH   5  24
TORSDOF 3
ENDMDL
