MODEL 1
REMARK VINA RESULT:     -11.7      0.000      0.000
REMARK  Name = 9810927
REMARK  6 active torsions:
REMARK  status: ('A' for Active; 'I' for Inactive)
REMARK    1  A    between atoms: N_1  and  C_13
REMARK    2  A    between atoms: C_11  and  O_24
REMARK    3  A    between atoms: C_12  and  O_26
REMARK    4  A    between atoms: C_14  and  C_18
REMARK    5  A    between atoms: C_19  and  C_20
REMARK    6  A    between atoms: N_28  and  C_32
REMARK                            x       y       z     vdW  Elec       q    Type
REMARK                         _______ _______ _______ _____ _____    ______ ____
ROOT
ATOM      1  N   UNL     1      36.440 -23.512 -16.157  0.00  0.00    -0.247 N 
ATOM      2  N   UNL     1      37.545 -21.891 -17.219  0.00  0.00    -0.242 NA
ATOM      3  N   UNL     1      34.489 -23.693 -17.594  0.00  0.00    -0.228 NA
ATOM      4  N   UNL     1      34.603 -22.114 -19.450  0.00  0.00    -0.228 NA
ATOM      5  C   UNL     1      35.671 -23.170 -17.234  0.00  0.00    +0.152 C 
ATOM      6  C   UNL     1      37.554 -22.715 -16.192  0.00  0.00    +0.223 C 
ATOM      7  C   UNL     1      36.374 -22.165 -17.879  0.00  0.00    +0.140 C 
ATOM      8  C   UNL     1      35.798 -21.633 -19.028  0.00  0.00    +0.150 C 
ATOM      9  C   UNL     1      34.031 -23.099 -18.717  0.00  0.00    +0.253 C 
ATOM     10  N   UNL     1      36.442 -20.610 -19.747  0.00  0.00    -0.295 N 
ATOM     11  H   UNL     1      37.303 -20.335 -19.356  0.00  0.00    +0.154 HD
ENDROOT
BRANCH  10  14
ATOM     12 CL   UNL     1      35.000 -17.631 -24.656  0.00  0.00    -0.082 Cl
ATOM     13  F   UNL     1      38.088 -18.609 -20.763  0.00  0.00    -0.203 F 
ATOM     14  C   UNL     1      36.100 -19.899 -20.916  0.00  0.00    +0.077 C 
ATOM     15  C   UNL     1      36.946 -18.902 -21.401  0.00  0.00    +0.154 C 
ATOM     16  C   UNL     1      34.914 -20.195 -21.587  0.00  0.00    +0.018 C 
ATOM     17  C   UNL     1      36.606 -18.201 -22.557  0.00  0.00    +0.042 C 
ATOM     18  C   UNL     1      34.573 -19.493 -22.743  0.00  0.00    +0.013 C 
ATOM     19  C   UNL     1      35.419 -18.497 -23.229  0.00  0.00    +0.060 C 
ENDBRANCH  10  14
BRANCH   1  23
ATOM     20  O   UNL     1      34.719 -24.772 -15.103  0.00  0.00    -0.326 OA
ATOM     21  C   UNL     1      36.579 -24.154 -13.740  0.00  0.00    +0.187 C 
ATOM     22  C   UNL     1      35.289 -23.648 -13.122  0.00  0.00    +0.178 C 
ATOM     23  C   UNL     1      36.140 -24.533 -15.150  0.00  0.00    +0.225 C 
ATOM     24  C   UNL     1      34.247 -24.563 -13.752  0.00  0.00    +0.223 C 
BRANCH  24  28
ATOM     25  O   UNL     1      32.243 -24.088 -15.065  0.00  0.00    -0.421 OA
ATOM     26  N   UNL     1      32.064 -23.557 -12.900  0.00  0.00    -0.109 NA
ATOM     27  N   UNL     1      30.869 -23.237 -13.518  0.00  0.00    -0.112 NA
ATOM     28  C   UNL     1      32.826 -24.047 -13.841  0.00  0.00    +0.255 A 
ATOM     29  C   UNL     1      31.019 -23.564 -14.780  0.00  0.00    +0.225 A 
BRANCH  29  30
ATOM     30  C   UNL     1      30.071 -23.448 -15.896  0.00  0.00    +0.070 C 
ATOM     31  C   UNL     1      29.466 -24.837 -16.320  0.00  0.00    +0.009 C 
ATOM     32  C   UNL     1      30.729 -22.835 -17.186  0.00  0.00    +0.009 C 
ATOM     33  C   UNL     1      28.808 -22.539 -15.636  0.00  0.00    +0.009 C 
ENDBRANCH  29  30
ENDBRANCH  24  28
BRANCH  21  34
ATOM     34  O   UNL     1      37.017 -25.342 -13.084  0.00  0.00    -0.378 OA
ATOM     35  H   UNL     1      37.977 -25.437 -13.195  0.00  0.00    +0.211 HD
ENDBRANCH  21  34
BRANCH  22  36
ATOM     36  O   UNL     1      35.292 -23.739 -11.711  0.00  0.00    -0.379 OA
ATOM     37  H   UNL     1      36.075 -24.235 -11.421  0.00  0.00    +0.211 HD
ENDBRANCH  22  36
ENDBRANCH   1  23
TORSDOF 6
ENDMDL
MODEL 2
REMARK VINA RESULT:     -11.3     11.721     15.631
REMARK  Name = 9810927
REMARK  6 active torsions:
REMARK  status: ('A' for Active; 'I' for Inactive)
REMARK    1  A    between atoms: N_1  and  C_13
REMARK    2  A    between atoms: C_11  and  O_24
REMARK    3  A    between atoms: C_12  and  O_26
REMARK    4  A    between atoms: C_14  and  C_18
REMARK    5  A    between atoms: C_19  and  C_20
REMARK    6  A    between atoms: N_28  and  C_32
REMARK                            x       y       z     vdW  Elec       q    Type
REMARK                         _______ _______ _______ _____ _____    ______ ____
ROOT
ATOM      1  N   UNL     1      32.477 -10.183 -22.421  0.00  0.00    -0.247 N 
ATOM      2  N   UNL     1      33.637 -11.168 -24.053  0.00  0.00    -0.242 NA
ATOM      3  N   UNL     1      31.979 -12.120 -21.041  0.00  0.00    -0.228 NA
ATOM      4  N   UNL     1      32.917 -14.159 -22.000  0.00  0.00    -0.228 NA
ATOM      5  C   UNL     1      32.520 -11.514 -22.109  0.00  0.00    +0.152 C 
ATOM      6  C   UNL     1      33.162 -10.027 -23.598  0.00  0.00    +0.223 C 
ATOM      7  C   UNL     1      33.244 -12.105 -23.132  0.00  0.00    +0.140 C 
ATOM      8  C   UNL     1      33.436 -13.481 -23.052  0.00  0.00    +0.150 C 
ATOM      9  C   UNL     1      32.230 -13.447 -21.074  0.00  0.00    +0.253 C 
ATOM     10  N   UNL     1      34.159 -14.164 -24.045  0.00  0.00    -0.295 N 
ATOM     11  H   UNL     1      34.494 -13.578 -24.763  0.00  0.00    +0.154 HD
ENDROOT
BRANCH  10  14
ATOM     12 CL   UNL     1      35.600 -19.861 -24.765  0.00  0.00    -0.082 Cl
ATOM     13  F   UNL     1      33.418 -15.568 -26.331  0.00  0.00    -0.203 F 
ATOM     14  C   UNL     1      34.502 -15.522 -24.219  0.00  0.00    +0.077 C 
ATOM     15  C   UNL     1      34.116 -16.198 -25.376  0.00  0.00    +0.154 C 
ATOM     16  C   UNL     1      35.226 -16.186 -23.230  0.00  0.00    +0.018 C 
ATOM     17  C   UNL     1      34.455 -17.540 -25.545  0.00  0.00    +0.042 C 
ATOM     18  C   UNL     1      35.565 -17.529 -23.399  0.00  0.00    +0.013 C 
ATOM     19  C   UNL     1      35.181 -18.205 -24.556  0.00  0.00    +0.060 C 
ENDBRANCH  10  14
BRANCH   1  23
ATOM     20  O   UNL     1      31.569  -7.986 -22.507  0.00  0.00    -0.326 OA
ATOM     21  C   UNL     1      32.653  -8.616 -20.476  0.00  0.00    +0.187 C 
ATOM     22  C   UNL     1      33.289  -7.358 -21.037  0.00  0.00    +0.178 C 
ATOM     23  C   UNL     1      31.826  -9.119 -21.653  0.00  0.00    +0.225 C 
ATOM     24  C   UNL     1      32.186  -6.811 -21.933  0.00  0.00    +0.223 C 
BRANCH  24  28
ATOM     25  O   UNL     1      31.952  -4.722 -23.178  0.00  0.00    -0.421 OA
ATOM     26  N   UNL     1      33.499  -6.109 -24.004  0.00  0.00    -0.109 NA
ATOM     27  N   UNL     1      33.473  -4.978 -24.799  0.00  0.00    -0.112 NA
ATOM     28  C   UNL     1      32.599  -5.910 -23.079  0.00  0.00    +0.255 A 
ATOM     29  C   UNL     1      32.555  -4.197 -24.279  0.00  0.00    +0.225 A 
BRANCH  29  30
ATOM     30  C   UNL     1      32.105  -2.867 -24.711  0.00  0.00    +0.070 C 
ATOM     31  C   UNL     1      32.927  -2.320 -25.936  0.00  0.00    +0.009 C 
ATOM     32  C   UNL     1      32.228  -1.788 -23.573  0.00  0.00    +0.009 C 
ATOM     33  C   UNL     1      30.601  -2.766 -25.179  0.00  0.00    +0.009 C 
ENDBRANCH  29  30
ENDBRANCH  24  28
BRANCH  21  34
ATOM     34  O   UNL     1      31.755  -8.295 -19.415  0.00  0.00    -0.378 OA
ATOM     35  H   UNL     1      31.699  -7.330 -19.321  0.00  0.00    +0.211 HD
ENDBRANCH  21  34
BRANCH  22  36
ATOM     36  O   UNL     1      33.658  -6.441 -20.027  0.00  0.00    -0.379 OA
ATOM     37  H   UNL     1      34.626  -6.390 -19.974  0.00  0.00    +0.211 HD
ENDBRANCH  22  36
ENDBRANCH   1  23
TORSDOF 6
ENDMDL
MODEL 3
REMARK VINA RESULT:     -11.2     11.682     15.593
REMARK  Name = 9810927
REMARK  6 active torsions:
REMARK  status: ('A' for Active; 'I' for Inactive)
REMARK    1  A    between atoms: N_1  and  C_13
REMARK    2  A    between atoms: C_11  and  O_24
REMARK    3  A    between atoms: C_12  and  O_26
REMARK    4  A    between atoms: C_14  and  C_18
REMARK    5  A    between atoms: C_19  and  C_20
REMARK    6  A    between atoms: N_28  and  C_32
REMARK                            x       y       z     vdW  Elec       q    Type
REMARK                         _______ _______ _______ _____ _____    ______ ____
ROOT
ATOM      1  N   UNL     1      32.464 -10.168 -22.414  0.00  0.00    -0.247 N 
ATOM      2  N   UNL     1      33.614 -11.154 -24.052  0.00  0.00    -0.242 NA
ATOM      3  N   UNL     1      31.945 -12.109 -21.047  0.00  0.00    -0.228 NA
ATOM      4  N   UNL     1      32.863 -14.151 -22.018  0.00  0.00    -0.228 NA
ATOM      5  C   UNL     1      32.493 -11.501 -22.110  0.00  0.00    +0.152 C 
ATOM      6  C   UNL     1      33.150 -10.012 -23.590  0.00  0.00    +0.223 C 
ATOM      7  C   UNL     1      33.211 -12.093 -23.137  0.00  0.00    +0.140 C 
ATOM      8  C   UNL     1      33.389 -13.471 -23.066  0.00  0.00    +0.150 C 
ATOM      9  C   UNL     1      32.183 -13.438 -21.088  0.00  0.00    +0.253 C 
ATOM     10  N   UNL     1      34.105 -14.155 -24.064  0.00  0.00    -0.295 N 
ATOM     11  H   UNL     1      34.446 -13.568 -24.777  0.00  0.00    +0.154 HD
ENDROOT
BRANCH  10  14
ATOM     12 CL   UNL     1      35.482 -19.861 -24.837  0.00  0.00    -0.082 Cl
ATOM     13  F   UNL     1      35.494 -15.587 -22.122  0.00  0.00    -0.203 F 
ATOM     14  C   UNL     1      34.434 -15.515 -24.246  0.00  0.00    +0.077 C 
ATOM     15  C   UNL     1      35.131 -16.205 -23.255  0.00  0.00    +0.154 C 
ATOM     16  C   UNL     1      34.062 -16.168 -25.421  0.00  0.00    +0.018 C 
ATOM     17  C   UNL     1      35.455 -17.549 -23.437  0.00  0.00    +0.042 C 
ATOM     18  C   UNL     1      34.387 -17.511 -25.604  0.00  0.00    +0.013 C 
ATOM     19  C   UNL     1      35.082 -18.203 -24.613  0.00  0.00    +0.060 C 
ENDBRANCH  10  14
BRANCH   1  23
ATOM     20  O   UNL     1      31.559  -7.969 -22.490  0.00  0.00    -0.326 OA
ATOM     21  C   UNL     1      32.664  -8.602 -20.471  0.00  0.00    +0.187 C 
ATOM     22  C   UNL     1      33.296  -7.345 -21.039  0.00  0.00    +0.178 C 
ATOM     23  C   UNL     1      31.823  -9.103 -21.639  0.00  0.00    +0.225 C 
ATOM     24  C   UNL     1      32.185  -6.795 -21.923  0.00  0.00    +0.223 C 
BRANCH  24  28
ATOM     25  O   UNL     1      31.950  -4.702 -23.160  0.00  0.00    -0.421 OA
ATOM     26  N   UNL     1      33.473  -6.100 -24.012  0.00  0.00    -0.109 NA
ATOM     27  N   UNL     1      33.444  -4.967 -24.804  0.00  0.00    -0.112 NA
ATOM     28  C   UNL     1      32.588  -5.896 -23.073  0.00  0.00    +0.255 A 
ATOM     29  C   UNL     1      32.541  -4.179 -24.269  0.00  0.00    +0.225 A 
BRANCH  29  30
ATOM     30  C   UNL     1      32.095  -2.845 -24.691  0.00  0.00    +0.070 C 
ATOM     31  C   UNL     1      32.961  -2.264 -25.869  0.00  0.00    +0.009 C 
ATOM     32  C   UNL     1      32.161  -1.789 -23.527  0.00  0.00    +0.009 C 
ATOM     33  C   UNL     1      30.611  -2.748 -25.219  0.00  0.00    +0.009 C 
ENDBRANCH  29  30
ENDBRANCH  24  28
BRANCH  21  34
ATOM     34  O   UNL     1      31.778  -8.278 -19.401  0.00  0.00    -0.378 OA
ATOM     35  H   UNL     1      30.863  -8.284 -19.726  0.00  0.00    +0.211 HD
ENDBRANCH  21  34
BRANCH  22  36
ATOM     36  O   UNL     1      33.678  -6.429 -20.033  0.00  0.00    -0.379 OA
ATOM     37  H   UNL     1      34.515  -6.005 -20.281  0.00  0.00    +0.211 HD
ENDBRANCH  22  36
ENDBRANCH   1  23
TORSDOF 6
ENDMDL
MODEL 4
REMARK VINA RESULT:     -10.8      6.553      9.229
REMARK  Name = 9810927
REMARK  6 active torsions:
REMARK  status: ('A' for Active; 'I' for Inactive)
REMARK    1  A    between atoms: N_1  and  C_13
REMARK    2  A    between atoms: C_11  and  O_24
REMARK    3  A    between atoms: C_12  and  O_26
REMARK    4  A    between atoms: C_14  and  C_18
REMARK    5  A    between atoms: C_19  and  C_20
REMARK    6  A    between atoms: N_28  and  C_32
REMARK                            x       y       z     vdW  Elec       q    Type
REMARK                         _______ _______ _______ _____ _____    ______ ____
ROOT
ATOM      1  N   UNL     1      35.193 -16.525 -22.601  0.00  0.00    -0.247 N 
ATOM      2  N   UNL     1      34.490 -14.883 -21.264  0.00  0.00    -0.242 NA
ATOM      3  N   UNL     1      34.720 -15.528 -24.765  0.00  0.00    -0.228 NA
ATOM      4  N   UNL     1      33.745 -13.304 -24.525  0.00  0.00    -0.228 NA
ATOM      5  C   UNL     1      34.742 -15.531 -23.424  0.00  0.00    +0.152 C 
ATOM      6  C   UNL     1      35.019 -16.088 -21.314  0.00  0.00    +0.223 C 
ATOM      7  C   UNL     1      34.312 -14.523 -22.576  0.00  0.00    +0.140 C 
ATOM      8  C   UNL     1      33.798 -13.376 -23.173  0.00  0.00    +0.150 C 
ATOM      9  C   UNL     1      34.202 -14.369 -25.227  0.00  0.00    +0.253 C 
ATOM     10  N   UNL     1      33.339 -12.303 -22.389  0.00  0.00    -0.295 N 
ATOM     11  H   UNL     1      33.424 -12.457 -21.420  0.00  0.00    +0.154 HD
ENDROOT
BRANCH  10  14
ATOM     12 CL   UNL     1      31.007  -7.037 -23.760  0.00  0.00    -0.082 Cl
ATOM     13  F   UNL     1      30.893 -11.485 -21.343  0.00  0.00    -0.203 F 
ATOM     14  C   UNL     1      32.782 -11.048 -22.714  0.00  0.00    +0.077 C 
ATOM     15  C   UNL     1      31.554 -10.667 -22.174  0.00  0.00    +0.154 C 
ATOM     16  C   UNL     1      33.461 -10.190 -23.578  0.00  0.00    +0.018 C 
ATOM     17  C   UNL     1      31.005  -9.426 -22.497  0.00  0.00    +0.042 C 
ATOM     18  C   UNL     1      32.912  -8.950 -23.903  0.00  0.00    +0.013 C 
ATOM     19  C   UNL     1      31.685  -8.567 -23.362  0.00  0.00    +0.060 C 
ENDBRANCH  10  14
BRANCH   1  23
ATOM     20  O   UNL     1      34.836 -18.876 -22.674  0.00  0.00    -0.326 OA
ATOM     21  C   UNL     1      37.084 -18.146 -22.335  0.00  0.00    +0.187 C 
ATOM     22  C   UNL     1      36.660 -19.067 -21.207  0.00  0.00    +0.178 C 
ATOM     23  C   UNL     1      35.755 -17.816 -23.006  0.00  0.00    +0.225 C 
ATOM     24  C   UNL     1      35.511 -19.843 -21.837  0.00  0.00    +0.223 C 
BRANCH  24  28
ATOM     25  O   UNL     1      34.904 -21.423 -20.074  0.00  0.00    -0.421 OA
ATOM     26  N   UNL     1      33.210 -20.144 -20.780  0.00  0.00    -0.109 NA
ATOM     27  N   UNL     1      32.728 -20.984 -19.792  0.00  0.00    -0.112 NA
ATOM     28  C   UNL     1      34.477 -20.439 -20.905  0.00  0.00    +0.255 A 
ATOM     29  C   UNL     1      33.752 -21.711 -19.410  0.00  0.00    +0.225 A 
BRANCH  29  30
ATOM     30  C   UNL     1      33.821 -22.764 -18.389  0.00  0.00    +0.070 C 
ATOM     31  C   UNL     1      33.985 -24.199 -19.012  0.00  0.00    +0.009 C 
ATOM     32  C   UNL     1      32.536 -22.814 -17.483  0.00  0.00    +0.009 C 
ATOM     33  C   UNL     1      35.014 -22.651 -17.361  0.00  0.00    +0.009 C 
ENDBRANCH  29  30
ENDBRANCH  24  28
BRANCH  21  34
ATOM     34  O   UNL     1      37.889 -18.848 -23.280  0.00  0.00    -0.378 OA
ATOM     35  H   UNL     1      37.711 -18.508 -24.172  0.00  0.00    +0.211 HD
ENDBRANCH  21  34
BRANCH  22  36
ATOM     36  O   UNL     1      37.705 -19.917 -20.780  0.00  0.00    -0.379 OA
ATOM     37  H   UNL     1      38.025 -20.440 -21.532  0.00  0.00    +0.211 HD
ENDBRANCH  22  36
ENDBRANCH   1  23
TORSDOF 6
ENDMDL
MODEL 5
REMARK VINA RESULT:     -10.8      2.339      3.174
REMARK  Name = 9810927
REMARK  6 active torsions:
REMARK  status: ('A' for Active; 'I' for Inactive)
REMARK    1  A    between atoms: N_1  and  C_13
REMARK    2  A    between atoms: C_11  and  O_24
REMARK    3  A    between atoms: C_12  and  O_26
REMARK    4  A    between atoms: C_14  and  C_18
REMARK    5  A    between atoms: C_19  and  C_20
REMARK    6  A    between atoms: N_28  and  C_32
REMARK                            x       y       z     vdW  Elec       q    Type
REMARK                         _______ _______ _______ _____ _____    ______ ____
ROOT
ATOM      1  N   UNL     1      36.050 -22.029 -18.790  0.00  0.00    -0.247 N 
ATOM      2  N   UNL     1      37.141 -20.320 -19.721  0.00  0.00    -0.242 NA
ATOM      3  N   UNL     1      33.926 -21.849 -19.955  0.00  0.00    -0.228 NA
ATOM      4  N   UNL     1      33.935 -19.988 -21.535  0.00  0.00    -0.228 NA
ATOM      5  C   UNL     1      35.182 -21.465 -19.683  0.00  0.00    +0.152 C 
ATOM      6  C   UNL     1      37.212 -21.305 -18.849  0.00  0.00    +0.223 C 
ATOM      7  C   UNL     1      35.879 -20.409 -20.250  0.00  0.00    +0.140 C 
ATOM      8  C   UNL     1      35.208 -19.657 -21.209  0.00  0.00    +0.150 C 
ATOM      9  C   UNL     1      33.381 -21.048 -20.896  0.00  0.00    +0.253 C 
ATOM     10  N   UNL     1      35.838 -18.568 -21.837  0.00  0.00    -0.295 N 
ATOM     11  H   UNL     1      36.761 -18.415 -21.529  0.00  0.00    +0.154 HD
ENDROOT
BRANCH  10  14
ATOM     12 CL   UNL     1      34.049 -14.714 -25.959  0.00  0.00    -0.082 Cl
ATOM     13  F   UNL     1      35.287 -19.383 -24.441  0.00  0.00    -0.203 F 
ATOM     14  C   UNL     1      35.411 -17.651 -22.821  0.00  0.00    +0.077 C 
ATOM     15  C   UNL     1      35.143 -18.090 -24.117  0.00  0.00    +0.154 C 
ATOM     16  C   UNL     1      35.259 -16.304 -22.495  0.00  0.00    +0.018 C 
ATOM     17  C   UNL     1      34.722 -17.182 -25.088  0.00  0.00    +0.042 C 
ATOM     18  C   UNL     1      34.839 -15.395 -23.465  0.00  0.00    +0.013 C 
ATOM     19  C   UNL     1      34.569 -15.834 -24.761  0.00  0.00    +0.060 C 
ENDBRANCH  10  14
BRANCH   1  23
ATOM     20  O   UNL     1      34.416 -23.586 -18.038  0.00  0.00    -0.326 OA
ATOM     21  C   UNL     1      36.071 -22.922 -16.450  0.00  0.00    +0.187 C 
ATOM     22  C   UNL     1      34.683 -22.639 -15.906  0.00  0.00    +0.178 C 
ATOM     23  C   UNL     1      35.797 -23.185 -17.927  0.00  0.00    +0.225 C 
ATOM     24  C   UNL     1      33.815 -23.587 -16.722  0.00  0.00    +0.223 C 
BRANCH  24  28
ATOM     25  O   UNL     1      31.461 -23.978 -16.197  0.00  0.00    -0.421 OA
ATOM     26  N   UNL     1      31.812 -22.286 -17.617  0.00  0.00    -0.109 NA
ATOM     27  N   UNL     1      30.449 -22.395 -17.411  0.00  0.00    -0.112 NA
ATOM     28  C   UNL     1      32.354 -23.227 -16.890  0.00  0.00    +0.255 A 
ATOM     29  C   UNL     1      30.292 -23.395 -16.577  0.00  0.00    +0.225 A 
BRANCH  29  30
ATOM     30  C   UNL     1      29.058 -23.954 -16.008  0.00  0.00    +0.070 C 
ATOM     31  C   UNL     1      28.173 -24.682 -17.086  0.00  0.00    +0.009 C 
ATOM     32  C   UNL     1      28.145 -22.856 -15.348  0.00  0.00    +0.009 C 
ATOM     33  C   UNL     1      29.249 -25.033 -14.872  0.00  0.00    +0.009 C 
ENDBRANCH  29  30
ENDBRANCH  24  28
BRANCH  21  34
ATOM     34  O   UNL     1      36.597 -24.121 -15.883  0.00  0.00    -0.378 OA
ATOM     35  H   UNL     1      37.519 -24.234 -16.165  0.00  0.00    +0.211 HD
ENDBRANCH  21  34
BRANCH  22  36
ATOM     36  O   UNL     1      34.584 -22.889 -14.519  0.00  0.00    -0.379 OA
ATOM     37  H   UNL     1      35.329 -23.442 -14.235  0.00  0.00    +0.211 HD
ENDBRANCH  22  36
ENDBRANCH   1  23
TORSDOF 6
ENDMDL
MODEL 6
REMARK VINA RESULT:     -10.5      5.796     10.213
REMARK  Name = 9810927
REMARK  6 active torsions:
REMARK  status: ('A' for Active; 'I' for Inactive)
REMARK    1  A    between atoms: N_1  and  C_13
REMARK    2  A    between atoms: C_11  and  O_24
REMARK    3  A    between atoms: C_12  and  O_26
REMARK    4  A    between atoms: C_14  and  C_18
REMARK    5  A    between atoms: C_19  and  C_20
REMARK    6  A    between atoms: N_28  and  C_32
REMARK                            x       y       z     vdW  Elec       q    Type
REMARK                         _______ _______ _______ _____ _____    ______ ____
ROOT
ATOM      1  N   UNL     1      34.652 -20.215 -21.593  0.00  0.00    -0.247 N 
ATOM      2  N   UNL     1      32.688 -20.669 -20.637  0.00  0.00    -0.242 NA
ATOM      3  N   UNL     1      36.139 -21.358 -20.049  0.00  0.00    -0.228 NA
ATOM      4  N   UNL     1      34.892 -22.433 -18.247  0.00  0.00    -0.228 NA
ATOM      5  C   UNL     1      34.933 -20.966 -20.486  0.00  0.00    +0.152 C 
ATOM      6  C   UNL     1      33.290 -20.064 -21.639  0.00  0.00    +0.223 C 
ATOM      7  C   UNL     1      33.702 -21.237 -19.909  0.00  0.00    +0.140 C 
ATOM      8  C   UNL     1      33.708 -22.002 -18.746  0.00  0.00    +0.150 C 
ATOM      9  C   UNL     1      36.017 -22.089 -18.920  0.00  0.00    +0.253 C 
ATOM     10  N   UNL     1      32.506 -22.326 -18.094  0.00  0.00    -0.295 N 
ATOM     11  H   UNL     1      31.706 -21.966 -18.539  0.00  0.00    +0.154 HD
ENDROOT
BRANCH  10  14
ATOM     12 CL   UNL     1      31.306 -25.434 -13.200  0.00  0.00    -0.082 Cl
ATOM     13  F   UNL     1      29.891 -22.692 -17.214  0.00  0.00    -0.203 F 
ATOM     14  C   UNL     1      32.218 -23.067 -16.928  0.00  0.00    +0.077 C 
ATOM     15  C   UNL     1      30.897 -23.232 -16.513  0.00  0.00    +0.154 C 
ATOM     16  C   UNL     1      33.257 -23.633 -16.190  0.00  0.00    +0.018 C 
ATOM     17  C   UNL     1      30.615 -23.964 -15.360  0.00  0.00    +0.042 C 
ATOM     18  C   UNL     1      32.976 -24.364 -15.037  0.00  0.00    +0.013 C 
ATOM     19  C   UNL     1      31.655 -24.531 -14.622  0.00  0.00    +0.060 C 
ENDBRANCH  10  14
BRANCH   1  23
ATOM     20  O   UNL     1      35.882 -18.286 -22.245  0.00  0.00    -0.326 OA
ATOM     21  C   UNL     1      35.137 -19.723 -24.000  0.00  0.00    +0.187 C 
ATOM     22  C   UNL     1      34.624 -18.314 -24.228  0.00  0.00    +0.178 C 
ATOM     23  C   UNL     1      35.614 -19.669 -22.553  0.00  0.00    +0.225 C 
ATOM     24  C   UNL     1      35.600 -17.477 -23.411  0.00  0.00    +0.223 C 
BRANCH  24  28
ATOM     25  O   UNL     1      34.545 -15.317 -23.845  0.00  0.00    -0.421 OA
ATOM     26  N   UNL     1      35.187 -15.611 -21.723  0.00  0.00    -0.109 NA
ATOM     27  N   UNL     1      34.612 -14.357 -21.826  0.00  0.00    -0.112 NA
ATOM     28  C   UNL     1      35.123 -16.126 -22.922  0.00  0.00    +0.255 A 
ATOM     29  C   UNL     1      34.253 -14.229 -23.081  0.00  0.00    +0.225 A 
BRANCH  29  30
ATOM     30  C   UNL     1      33.594 -13.103 -23.755  0.00  0.00    +0.070 C 
ATOM     31  C   UNL     1      32.401 -12.513 -22.917  0.00  0.00    +0.009 C 
ATOM     32  C   UNL     1      33.001 -13.501 -25.157  0.00  0.00    +0.009 C 
ATOM     33  C   UNL     1      34.506 -11.852 -24.062  0.00  0.00    +0.009 C 
ENDBRANCH  29  30
ENDBRANCH  24  28
BRANCH  21  34
ATOM     34  O   UNL     1      36.272 -19.983 -24.825  0.00  0.00    -0.378 OA
ATOM     35  H   UNL     1      36.058 -19.763 -25.746  0.00  0.00    +0.211 HD
ENDBRANCH  21  34
BRANCH  22  36
ATOM     36  O   UNL     1      34.625 -17.950 -25.594  0.00  0.00    -0.379 OA
ATOM     37  H   UNL     1      33.967 -17.253 -25.744  0.00  0.00    +0.211 HD
ENDBRANCH  22  36
ENDBRANCH   1  23
TORSDOF 6
ENDMDL
MODEL 7
REMARK VINA RESULT:     -10.4     11.831     15.887
REMARK  Name = 9810927
REMARK  6 active torsions:
REMARK  status: ('A' for Active; 'I' for Inactive)
REMARK    1  A    between atoms: N_1  and  C_13
REMARK    2  A    between atoms: C_11  and  O_24
REMARK    3  A    between atoms: C_12  and  O_26
REMARK    4  A    between atoms: C_14  and  C_18
REMARK    5  A    between atoms: C_19  and  C_20
REMARK    6  A    between atoms: N_28  and  C_32
REMARK                            x       y       z     vdW  Elec       q    Type
REMARK                         _______ _______ _______ _____ _____    ______ ____
ROOT
ATOM      1  N   UNL     1      32.361  -9.557 -22.397  0.00  0.00    -0.247 N 
ATOM      2  N   UNL     1      33.545 -10.500 -24.037  0.00  0.00    -0.242 NA
ATOM      3  N   UNL     1      31.789 -11.537 -21.110  0.00  0.00    -0.228 NA
ATOM      4  N   UNL     1      32.713 -13.555 -22.125  0.00  0.00    -0.228 NA
ATOM      5  C   UNL     1      32.370 -10.900 -22.137  0.00  0.00    +0.152 C 
ATOM      6  C   UNL     1      33.080  -9.368 -23.548  0.00  0.00    +0.223 C 
ATOM      7  C   UNL     1      33.109 -11.464 -23.165  0.00  0.00    +0.140 C 
ATOM      8  C   UNL     1      33.273 -12.846 -23.136  0.00  0.00    +0.150 C 
ATOM      9  C   UNL     1      32.015 -12.866 -21.189  0.00  0.00    +0.253 C 
ATOM     10  N   UNL     1      34.009 -13.503 -24.137  0.00  0.00    -0.295 N 
ATOM     11  H   UNL     1      34.373 -12.896 -24.821  0.00  0.00    +0.154 HD
ENDROOT
BRANCH  10  14
ATOM     12 CL   UNL     1      35.359 -19.194 -25.050  0.00  0.00    -0.082 Cl
ATOM     13  F   UNL     1      33.205 -14.830 -26.448  0.00  0.00    -0.203 F 
ATOM     14  C   UNL     1      34.330 -14.859 -24.357  0.00  0.00    +0.077 C 
ATOM     15  C   UNL     1      33.912 -15.497 -25.525  0.00  0.00    +0.154 C 
ATOM     16  C   UNL     1      35.064 -15.562 -23.403  0.00  0.00    +0.018 C 
ATOM     17  C   UNL     1      34.230 -16.837 -25.739  0.00  0.00    +0.042 C 
ATOM     18  C   UNL     1      35.382 -16.903 -23.616  0.00  0.00    +0.013 C 
ATOM     19  C   UNL     1      34.966 -17.540 -24.785  0.00  0.00    +0.060 C 
ENDBRANCH  10  14
BRANCH   1  23
ATOM     20  O   UNL     1      31.257  -7.452 -22.468  0.00  0.00    -0.326 OA
ATOM     21  C   UNL     1      32.619  -7.880 -20.556  0.00  0.00    +0.187 C 
ATOM     22  C   UNL     1      33.072  -6.605 -21.242  0.00  0.00    +0.178 C 
ATOM     23  C   UNL     1      31.710  -8.512 -21.603  0.00  0.00    +0.225 C 
ATOM     24  C   UNL     1      31.829  -6.200 -22.024  0.00  0.00    +0.223 C 
BRANCH  24  28
ATOM     25  O   UNL     1      33.096  -5.619 -24.030  0.00  0.00    -0.421 OA
ATOM     26  N   UNL     1      31.308  -4.323 -23.671  0.00  0.00    -0.109 NA
ATOM     27  N   UNL     1      31.927  -3.886 -24.828  0.00  0.00    -0.112 NA
ATOM     28  C   UNL     1      32.026  -5.330 -23.247  0.00  0.00    +0.255 A 
ATOM     29  C   UNL     1      32.964  -4.671 -24.998  0.00  0.00    +0.225 A 
BRANCH  29  30
ATOM     30  C   UNL     1      33.974  -4.668 -26.064  0.00  0.00    +0.070 C 
ATOM     31  C   UNL     1      35.269  -5.469 -25.671  0.00  0.00    +0.009 C 
ATOM     32  C   UNL     1      34.445  -3.218 -26.447  0.00  0.00    +0.009 C 
ATOM     33  C   UNL     1      33.529  -5.305 -27.438  0.00  0.00    +0.009 C 
ENDBRANCH  29  30
ENDBRANCH  24  28
BRANCH  21  34
ATOM     34  O   UNL     1      31.824  -7.578 -19.411  0.00  0.00    -0.378 OA
ATOM     35  H   UNL     1      31.450  -6.687 -19.503  0.00  0.00    +0.211 HD
ENDBRANCH  21  34
BRANCH  22  36
ATOM     36  O   UNL     1      33.471  -5.607 -20.324  0.00  0.00    -0.379 OA
ATOM     37  H   UNL     1      34.406  -5.734 -20.095  0.00  0.00    +0.211 HD
ENDBRANCH  22  36
ENDBRANCH   1  23
TORSDOF 6
ENDMDL
MODEL 8
REMARK VINA RESULT:      -9.9      7.527     11.730
REMARK  Name = 9810927
REMARK  6 active torsions:
REMARK  status: ('A' for Active; 'I' for Inactive)
REMARK    1  A    between atoms: N_1  and  C_13
REMARK    2  A    between atoms: C_11  and  O_24
REMARK    3  A    between atoms: C_12  and  O_26
REMARK    4  A    between atoms: C_14  and  C_18
REMARK    5  A    between atoms: C_19  and  C_20
REMARK    6  A    between atoms: N_28  and  C_32
REMARK                            x       y       z     vdW  Elec       q    Type
REMARK                         _______ _______ _______ _____ _____    ______ ____
ROOT
ATOM      1  N   UNL     1      34.927 -16.661 -24.932  0.00  0.00    -0.247 N 
ATOM      2  N   UNL     1      34.620 -18.849 -24.626  0.00  0.00    -0.242 NA
ATOM      3  N   UNL     1      35.362 -15.980 -22.640  0.00  0.00    -0.228 NA
ATOM      4  N   UNL     1      35.276 -17.885 -21.116  0.00  0.00    -0.228 NA
ATOM      5  C   UNL     1      35.082 -16.884 -23.591  0.00  0.00    +0.152 C 
ATOM      6  C   UNL     1      34.650 -17.872 -25.509  0.00  0.00    +0.223 C 
ATOM      7  C   UNL     1      34.889 -18.246 -23.425  0.00  0.00    +0.140 C 
ATOM      8  C   UNL     1      34.996 -18.741 -22.129  0.00  0.00    +0.150 C 
ATOM      9  C   UNL     1      35.439 -16.577 -21.431  0.00  0.00    +0.253 C 
ATOM     10  N   UNL     1      34.816 -20.111 -21.867  0.00  0.00    -0.295 N 
ATOM     11  H   UNL     1      34.618 -20.644 -22.671  0.00  0.00    +0.154 HD
ENDROOT
BRANCH  10  14
ATOM     12 CL   UNL     1      35.007 -23.315 -16.892  0.00  0.00    -0.082 Cl
ATOM     13  F   UNL     1      37.217 -20.587 -20.542  0.00  0.00    -0.203 F 
ATOM     14  C   UNL     1      34.864 -20.874 -20.681  0.00  0.00    +0.077 C 
ATOM     15  C   UNL     1      36.082 -21.095 -20.040  0.00  0.00    +0.154 C 
ATOM     16  C   UNL     1      33.689 -21.408 -20.151  0.00  0.00    +0.018 C 
ATOM     17  C   UNL     1      36.127 -21.850 -18.869  0.00  0.00    +0.042 C 
ATOM     18  C   UNL     1      33.733 -22.163 -18.980  0.00  0.00    +0.013 C 
ATOM     19  C   UNL     1      34.951 -22.384 -18.338  0.00  0.00    +0.060 C 
ENDBRANCH  10  14
BRANCH   1  23
ATOM     20  O   UNL     1      34.962 -14.296 -24.676  0.00  0.00    -0.326 OA
ATOM     21  C   UNL     1      33.931 -15.142 -26.655  0.00  0.00    +0.187 C 
ATOM     22  C   UNL     1      32.955 -14.265 -25.894  0.00  0.00    +0.178 C 
ATOM     23  C   UNL     1      35.032 -15.376 -25.628  0.00  0.00    +0.225 C 
ATOM     24  C   UNL     1      33.884 -13.405 -25.047  0.00  0.00    +0.223 C 
BRANCH  24  28
ATOM     25  O   UNL     1      33.111 -11.475 -23.764  0.00  0.00    -0.421 OA
ATOM     26  N   UNL     1      33.004 -13.414 -22.654  0.00  0.00    -0.109 NA
ATOM     27  N   UNL     1      32.542 -12.415 -21.816  0.00  0.00    -0.112 NA
ATOM     28  C   UNL     1      33.322 -12.816 -23.771  0.00  0.00    +0.255 A 
ATOM     29  C   UNL     1      32.623 -11.302 -22.506  0.00  0.00    +0.225 A 
BRANCH  29  30
ATOM     30  C   UNL     1      32.264  -9.932 -22.117  0.00  0.00    +0.070 C 
ATOM     31  C   UNL     1      32.050  -9.782 -20.566  0.00  0.00    +0.009 C 
ATOM     32  C   UNL     1      30.937  -9.438 -22.801  0.00  0.00    +0.009 C 
ATOM     33  C   UNL     1      33.321  -8.815 -22.471  0.00  0.00    +0.009 C 
ENDBRANCH  29  30
ENDBRANCH  24  28
BRANCH  21  34
ATOM     34  O   UNL     1      34.499 -14.426 -27.751  0.00  0.00    -0.378 OA
ATOM     35  H   UNL     1      35.378 -14.786 -27.951  0.00  0.00    +0.211 HD
ENDBRANCH  21  34
BRANCH  22  36
ATOM     36  O   UNL     1      32.144 -13.486 -26.750  0.00  0.00    -0.379 OA
ATOM     37  H   UNL     1      31.221 -13.779 -26.678  0.00  0.00    +0.211 HD
ENDBRANCH  22  36
ENDBRANCH   1  23
TORSDOF 6
ENDMDL
MODEL 9
REMARK VINA RESULT:      -9.6      1.581      2.510
REMARK  Name = 9810927
REMARK  6 active torsions:
REMARK  status: ('A' for Active; 'I' for Inactive)
REMARK    1  A    between atoms: N_1  and  C_13
REMARK    2  A    between atoms: C_11  and  O_24
REMARK    3  A    between atoms: C_12  and  O_26
REMARK    4  A    between atoms: C_14  and  C_18
REMARK    5  A    between atoms: C_19  and  C_20
REMARK    6  A    between atoms: N_28  and  C_32
REMARK                            x       y       z     vdW  Elec       q    Type
REMARK                         _______ _______ _______ _____ _____    ______ ____
ROOT
ATOM      1  N   UNL     1      35.064 -22.854 -18.334  0.00  0.00    -0.247 N 
ATOM      2  N   UNL     1      33.615 -21.914 -19.746  0.00  0.00    -0.242 NA
ATOM      3  N   UNL     1      37.093 -21.687 -18.986  0.00  0.00    -0.228 NA
ATOM      4  N   UNL     1      36.664 -20.098 -20.788  0.00  0.00    -0.228 NA
ATOM      5  C   UNL     1      35.782 -21.958 -19.076  0.00  0.00    +0.152 C 
ATOM      6  C   UNL     1      33.768 -22.791 -18.775  0.00  0.00    +0.223 C 
ATOM      7  C   UNL     1      34.865 -21.386 -19.944  0.00  0.00    +0.140 C 
ATOM      8  C   UNL     1      35.348 -20.422 -20.823  0.00  0.00    +0.150 C 
ATOM      9  C   UNL     1      37.443 -20.742 -19.885  0.00  0.00    +0.253 C 
ATOM     10  N   UNL     1      34.489 -19.789 -21.738  0.00  0.00    -0.295 N 
ATOM     11  H   UNL     1      33.555 -20.096 -21.679  0.00  0.00    +0.154 HD
ENDROOT
BRANCH  10  14
ATOM     12 CL   UNL     1      35.361 -15.648 -25.877  0.00  0.00    -0.082 Cl
ATOM     13  F   UNL     1      35.349 -17.229 -21.067  0.00  0.00    -0.203 F 
ATOM     14  C   UNL     1      34.697 -18.801 -22.723  0.00  0.00    +0.077 C 
ATOM     15  C   UNL     1      35.129 -17.527 -22.355  0.00  0.00    +0.154 C 
ATOM     16  C   UNL     1      34.470 -19.100 -24.066  0.00  0.00    +0.018 C 
ATOM     17  C   UNL     1      35.334 -16.552 -23.331  0.00  0.00    +0.042 C 
ATOM     18  C   UNL     1      34.674 -18.125 -25.041  0.00  0.00    +0.013 C 
ATOM     19  C   UNL     1      35.107 -16.851 -24.675  0.00  0.00    +0.060 C 
ENDBRANCH  10  14
BRANCH   1  23
ATOM     20  O   UNL     1      34.471 -24.343 -16.575  0.00  0.00    -0.326 OA
ATOM     21  C   UNL     1      36.407 -22.990 -16.225  0.00  0.00    +0.187 C 
ATOM     22  C   UNL     1      35.408 -22.770 -15.105  0.00  0.00    +0.178 C 
ATOM     23  C   UNL     1      35.572 -23.723 -17.270  0.00  0.00    +0.225 C 
ATOM     24  C   UNL     1      34.569 -24.040 -15.165  0.00  0.00    +0.223 C 
BRANCH  24  28
ATOM     25  O   UNL     1      32.162 -23.827 -15.523  0.00  0.00    -0.421 OA
ATOM     26  N   UNL     1      32.752 -24.034 -13.376  0.00  0.00    -0.109 NA
ATOM     27  N   UNL     1      31.374 -23.922 -13.431  0.00  0.00    -0.112 NA
ATOM     28  C   UNL     1      33.160 -23.973 -14.615  0.00  0.00    +0.255 A 
ATOM     29  C   UNL     1      31.076 -23.803 -14.704  0.00  0.00    +0.225 A 
BRANCH  29  30
ATOM     30  C   UNL     1      29.763 -23.656 -15.347  0.00  0.00    +0.070 C 
ATOM     31  C   UNL     1      28.846 -24.917 -15.143  0.00  0.00    +0.009 C 
ATOM     32  C   UNL     1      29.873 -23.430 -16.899  0.00  0.00    +0.009 C 
ATOM     33  C   UNL     1      28.879 -22.450 -14.842  0.00  0.00    +0.009 C 
ENDBRANCH  29  30
ENDBRANCH  24  28
BRANCH  21  34
ATOM     34  O   UNL     1      37.449 -23.869 -15.803  0.00  0.00    -0.378 OA
ATOM     35  H   UNL     1      37.549 -23.811 -14.839  0.00  0.00    +0.211 HD
ENDBRANCH  21  34
BRANCH  22  36
ATOM     36  O   UNL     1      36.032 -22.604 -13.847  0.00  0.00    -0.379 OA
ATOM     37  H   UNL     1      36.940 -22.946 -13.889  0.00  0.00    +0.211 HD
ENDBRANCH  22  36
ENDBRANCH   1  23
TORSDOF 6
ENDMDL
