MODEL 1
REMARK VINA RESULT:     -11.7      0.000      0.000
REMARK  Name = 66000
REMARK  8 active torsions:
REMARK  status: ('A' for Active; 'I' for Inactive)
REMARK    1  A    between atoms: C_1  and  O_19
REMARK    2  A    between atoms: C_4  and  C_7
REMARK    3  A    between atoms: C_10  and  C_15
REMARK    4  A    between atoms: O_19  and  C_20
REMARK    5  A    between atoms: C_20  and  C_24
REMARK    6  A    between atoms: C_23  and  C_28
REMARK    7  A    between atoms: C_28  and  C_30
REMARK    8  A    between atoms: C_30  and  O_31
REMARK                            x       y       z     vdW  Elec       q    Type
REMARK                         _______ _______ _______ _____ _____    ______ ____
ROOT
ATOM      1  C   UNL     1      35.601 -22.153 -18.579  0.00  0.00    +0.139 C 
ATOM      2  C   UNL     1      36.727 -21.467 -19.018  0.00  0.00    +0.037 C 
ATOM      3  C   UNL     1      34.374 -21.982 -19.208  0.00  0.00    +0.037 C 
ATOM      4  C   UNL     1      35.397 -20.418 -20.739  0.00  0.00    +0.000 C 
ATOM      5  C   UNL     1      36.624 -20.596 -20.102  0.00  0.00    +0.003 C 
ATOM      6  C   UNL     1      34.271 -21.110 -20.292  0.00  0.00    +0.003 C 
ENDROOT
BRANCH   4   7
ATOM      7  C   UNL     1      35.289 -19.513 -21.863  0.00  0.00    +0.000 C 
ATOM      8  C   UNL     1      34.748 -19.961 -23.069  0.00  0.00    +0.000 C 
ATOM      9  C   UNL     1      35.726 -18.194 -21.742  0.00  0.00    +0.000 C 
ATOM     10  C   UNL     1      35.080 -17.769 -24.031  0.00  0.00    +0.031 C 
ATOM     11  C   UNL     1      34.643 -19.088 -24.153  0.00  0.00    +0.003 C 
ATOM     12  C   UNL     1      35.622 -17.322 -22.826  0.00  0.00    +0.003 C 
BRANCH  10  15
ATOM     13  N   UNL     1      35.692 -15.669 -25.207  0.00  0.00    -0.343 N 
ATOM     14  N   UNL     1      34.171 -17.159 -26.171  0.00  0.00    -0.285 NA
ATOM     15  C   UNL     1      34.971 -16.861 -25.161  0.00  0.00    +0.117 C 
ATOM     16  H   UNL     1      35.602 -15.069 -25.982  0.00  0.00    +0.144 HD
ATOM     17  H   UNL     1      36.290 -15.428 -24.464  0.00  0.00    +0.144 HD
ATOM     18  H   UNL     1      34.096 -16.545 -26.937  0.00  0.00    +0.188 HD
ENDBRANCH  10  15
ENDBRANCH   4   7
BRANCH   1  19
ATOM     19  O   UNL     1      35.702 -23.010 -17.511  0.00  0.00    -0.474 OA
BRANCH  19  20
ATOM     20  C   UNL     1      36.708 -22.728 -16.554  0.00  0.00    +0.225 C 
BRANCH  20  24
ATOM     21  O   UNL     1      37.027 -27.052 -15.868  0.00  0.00    -0.275 OA
ATOM     22  N   UNL     1      36.059 -24.928 -15.697  0.00  0.00    -0.302 N 
ATOM     23  C   UNL     1      38.328 -25.110 -15.154  0.00  0.00    +0.089 C 
ATOM     24  C   UNL     1      36.467 -23.595 -15.325  0.00  0.00    +0.116 C 
ATOM     25  C   UNL     1      37.736 -23.847 -14.518  0.00  0.00    +0.033 C 
ATOM     26  C   UNL     1      37.089 -25.861 -15.604  0.00  0.00    +0.223 C 
ATOM     27  H   UNL     1      35.146 -25.155 -15.987  0.00  0.00    +0.149 HD
BRANCH  23  28
ATOM     28  C   UNL     1      39.190 -25.913 -14.199  0.00  0.00    +0.118 C 
BRANCH  28  30
ATOM     29  O   UNL     1      41.451 -26.822 -14.228  0.00  0.00    -0.250 OA
ATOM     30  C   UNL     1      40.527 -26.264 -14.800  0.00  0.00    +0.314 C 
BRANCH  30  31
ATOM     31  O   UNL     1      40.571 -25.870 -16.099  0.00  0.00    -0.480 OA
ATOM     32  H   UNL     1      39.784 -25.832 -16.605  0.00  0.00    +0.295 HD
ENDBRANCH  30  31
ENDBRANCH  28  30
ENDBRANCH  23  28
ENDBRANCH  20  24
ENDBRANCH  19  20
ENDBRANCH   1  19
TORSDOF 8
ENDMDL
MODEL 2
REMARK VINA RESULT:     -11.6      1.516      2.045
REMARK  Name = 66000
REMARK  8 active torsions:
REMARK  status: ('A' for Active; 'I' for Inactive)
REMARK    1  A    between atoms: C_1  and  O_19
REMARK    2  A    between atoms: C_4  and  C_7
REMARK    3  A    between atoms: C_10  and  C_15
REMARK    4  A    between atoms: O_19  and  C_20
REMARK    5  A    between atoms: C_20  and  C_24
REMARK    6  A    between atoms: C_23  and  C_28
REMARK    7  A    between atoms: C_28  and  C_30
REMARK    8  A    between atoms: C_30  and  O_31
REMARK                            x       y       z     vdW  Elec       q    Type
REMARK                         _______ _______ _______ _____ _____    ______ ____
ROOT
ATOM      1  C   UNL     1      35.048 -22.227 -19.118  0.00  0.00    +0.139 C 
ATOM      2  C   UNL     1      36.261 -21.697 -19.543  0.00  0.00    +0.037 C 
ATOM      3  C   UNL     1      33.847 -21.756 -19.633  0.00  0.00    +0.037 C 
ATOM      4  C   UNL     1      35.070 -20.201 -21.018  0.00  0.00    +0.000 C 
ATOM      5  C   UNL     1      36.271 -20.680 -20.496  0.00  0.00    +0.003 C 
ATOM      6  C   UNL     1      33.858 -20.738 -20.586  0.00  0.00    +0.003 C 
ENDROOT
BRANCH   4   7
ATOM      7  C   UNL     1      35.081 -19.145 -22.007  0.00  0.00    +0.000 C 
ATOM      8  C   UNL     1      34.796 -19.436 -23.342  0.00  0.00    +0.000 C 
ATOM      9  C   UNL     1      35.374 -17.835 -21.627  0.00  0.00    +0.000 C 
ATOM     10  C   UNL     1      35.098 -17.109 -23.915  0.00  0.00    +0.031 C 
ATOM     11  C   UNL     1      34.805 -18.418 -24.296  0.00  0.00    +0.003 C 
ATOM     12  C   UNL     1      35.383 -16.817 -22.581  0.00  0.00    +0.003 C 
BRANCH  10  15
ATOM     13  N   UNL     1      35.050 -14.705 -24.540  0.00  0.00    -0.343 N 
ATOM     14  N   UNL     1      35.168 -16.350 -26.195  0.00  0.00    -0.285 NA
ATOM     15  C   UNL     1      35.108 -16.047 -24.909  0.00  0.00    +0.117 C 
ATOM     16  H   UNL     1      35.057 -14.004 -25.230  0.00  0.00    +0.144 HD
ATOM     17  H   UNL     1      35.001 -14.459 -23.588  0.00  0.00    +0.144 HD
ATOM     18  H   UNL     1      35.175 -15.634 -26.870  0.00  0.00    +0.188 HD
ENDBRANCH  10  15
ENDBRANCH   4   7
BRANCH   1  19
ATOM     19  O   UNL     1      35.038 -23.228 -18.178  0.00  0.00    -0.474 OA
BRANCH  19  20
ATOM     20  C   UNL     1      34.170 -23.061 -17.071  0.00  0.00    +0.225 C 
BRANCH  20  24
ATOM     21  O   UNL     1      34.143 -24.836 -13.056  0.00  0.00    -0.275 OA
ATOM     22  N   UNL     1      34.270 -23.104 -14.625  0.00  0.00    -0.302 N 
ATOM     23  C   UNL     1      35.668 -24.950 -14.962  0.00  0.00    +0.089 C 
ATOM     24  C   UNL     1      35.010 -22.804 -15.827  0.00  0.00    +0.116 C 
ATOM     25  C   UNL     1      36.213 -23.734 -15.719  0.00  0.00    +0.033 C 
ATOM     26  C   UNL     1      34.616 -24.330 -14.062  0.00  0.00    +0.223 C 
ATOM     27  H   UNL     1      33.591 -22.504 -14.242  0.00  0.00    +0.149 HD
BRANCH  23  28
ATOM     28  C   UNL     1      36.736 -25.702 -14.190  0.00  0.00    +0.118 C 
BRANCH  28  30
ATOM     29  O   UNL     1      38.524 -27.218 -14.855  0.00  0.00    -0.250 OA
ATOM     30  C   UNL     1      37.408 -26.756 -15.033  0.00  0.00    +0.314 C 
BRANCH  30  31
ATOM     31  O   UNL     1      36.585 -27.139 -16.044  0.00  0.00    -0.480 OA
ATOM     32  H   UNL     1      36.373 -28.044 -16.159  0.00  0.00    +0.295 HD
ENDBRANCH  30  31
ENDBRANCH  28  30
ENDBRANCH  23  28
ENDBRANCH  20  24
ENDBRANCH  19  20
ENDBRANCH   1  19
TORSDOF 8
ENDMDL
MODEL 3
REMARK VINA RESULT:     -11.4      1.317      1.805
REMARK  Name = 66000
REMARK  8 active torsions:
REMARK  status: ('A' for Active; 'I' for Inactive)
REMARK    1  A    between atoms: C_1  and  O_19
REMARK    2  A    between atoms: C_4  and  C_7
REMARK    3  A    between atoms: C_10  and  C_15
REMARK    4  A    between atoms: O_19  and  C_20
REMARK    5  A    between atoms: C_20  and  C_24
REMARK    6  A    between atoms: C_23  and  C_28
REMARK    7  A    between atoms: C_28  and  C_30
REMARK    8  A    between atoms: C_30  and  O_31
REMARK                            x       y       z     vdW  Elec       q    Type
REMARK                         _______ _______ _______ _____ _____    ______ ____
ROOT
ATOM      1  C   UNL     1      35.441 -22.102 -18.678  0.00  0.00    +0.139 C 
ATOM      2  C   UNL     1      34.213 -21.849 -19.278  0.00  0.00    +0.037 C 
ATOM      3  C   UNL     1      36.598 -21.488 -19.139  0.00  0.00    +0.037 C 
ATOM      4  C   UNL     1      35.299 -20.347 -20.827  0.00  0.00    +0.000 C 
ATOM      5  C   UNL     1      34.142 -20.968 -20.356  0.00  0.00    +0.003 C 
ATOM      6  C   UNL     1      36.527 -20.607 -20.219  0.00  0.00    +0.003 C 
ENDROOT
BRANCH   4   7
ATOM      7  C   UNL     1      35.226 -19.434 -21.947  0.00  0.00    +0.000 C 
ATOM      8  C   UNL     1      34.757 -19.880 -23.182  0.00  0.00    +0.000 C 
ATOM      9  C   UNL     1      35.624 -18.106 -21.791  0.00  0.00    +0.000 C 
ATOM     10  C   UNL     1      35.083 -17.672 -24.105  0.00  0.00    +0.031 C 
ATOM     11  C   UNL     1      34.685 -18.999 -24.262  0.00  0.00    +0.003 C 
ATOM     12  C   UNL     1      35.553 -17.225 -22.871  0.00  0.00    +0.003 C 
BRANCH  10  15
ATOM     13  N   UNL     1      35.810 -15.616 -25.294  0.00  0.00    -0.343 N 
ATOM     14  N   UNL     1      34.164 -16.992 -26.220  0.00  0.00    -0.285 NA
ATOM     15  C   UNL     1      35.009 -16.754 -25.231  0.00  0.00    +0.117 C 
ATOM     16  H   UNL     1      35.743 -15.008 -26.065  0.00  0.00    +0.144 HD
ATOM     17  H   UNL     1      36.443 -15.420 -24.566  0.00  0.00    +0.144 HD
ATOM     18  H   UNL     1      34.112 -16.372 -26.982  0.00  0.00    +0.188 HD
ENDBRANCH  10  15
ENDBRANCH   4   7
BRANCH   1  19
ATOM     19  O   UNL     1      35.510 -22.970 -17.617  0.00  0.00    -0.474 OA
BRANCH  19  20
ATOM     20  C   UNL     1      36.397 -22.630 -16.565  0.00  0.00    +0.225 C 
BRANCH  20  24
ATOM     21  O   UNL     1      36.632 -26.916 -15.646  0.00  0.00    -0.275 OA
ATOM     22  N   UNL     1      35.655 -24.789 -15.682  0.00  0.00    -0.302 N 
ATOM     23  C   UNL     1      37.851 -24.938 -14.887  0.00  0.00    +0.089 C 
ATOM     24  C   UNL     1      36.022 -23.439 -15.331  0.00  0.00    +0.116 C 
ATOM     25  C   UNL     1      37.195 -23.649 -14.379  0.00  0.00    +0.033 C 
ATOM     26  C   UNL     1      36.667 -25.713 -15.433  0.00  0.00    +0.223 C 
ATOM     27  H   UNL     1      34.779 -25.032 -16.059  0.00  0.00    +0.149 HD
BRANCH  23  28
ATOM     28  C   UNL     1      38.601 -25.692 -13.805  0.00  0.00    +0.118 C 
BRANCH  28  30
ATOM     29  O   UNL     1      38.023 -24.955 -11.556  0.00  0.00    -0.250 OA
ATOM     30  C   UNL     1      37.848 -25.710 -12.500  0.00  0.00    +0.314 C 
BRANCH  30  31
ATOM     31  O   UNL     1      36.920 -26.703 -12.510  0.00  0.00    -0.480 OA
ATOM     32  H   UNL     1      36.250 -26.711 -13.165  0.00  0.00    +0.295 HD
ENDBRANCH  30  31
ENDBRANCH  28  30
ENDBRANCH  23  28
ENDBRANCH  20  24
ENDBRANCH  19  20
ENDBRANCH   1  19
TORSDOF 8
ENDMDL
MODEL 4
REMARK VINA RESULT:     -11.4      1.728      2.715
REMARK  Name = 66000
REMARK  8 active torsions:
REMARK  status: ('A' for Active; 'I' for Inactive)
REMARK    1  A    between atoms: C_1  and  O_19
REMARK    2  A    between atoms: C_4  and  C_7
REMARK    3  A    between atoms: C_10  and  C_15
REMARK    4  A    between atoms: O_19  and  C_20
REMARK    5  A    between atoms: C_20  and  C_24
REMARK    6  A    between atoms: C_23  and  C_28
REMARK    7  A    between atoms: C_28  and  C_30
REMARK    8  A    between atoms: C_30  and  O_31
REMARK                            x       y       z     vdW  Elec       q    Type
REMARK                         _______ _______ _______ _____ _____    ______ ____
ROOT
ATOM      1  C   UNL     1      35.170 -22.325 -18.589  0.00  0.00    +0.139 C 
ATOM      2  C   UNL     1      33.975 -22.011 -19.224  0.00  0.00    +0.037 C 
ATOM      3  C   UNL     1      36.363 -21.735 -18.986  0.00  0.00    +0.037 C 
ATOM      4  C   UNL     1      35.167 -20.496 -20.680  0.00  0.00    +0.000 C 
ATOM      5  C   UNL     1      33.974 -21.093 -20.274  0.00  0.00    +0.003 C 
ATOM      6  C   UNL     1      36.362 -20.818 -20.037  0.00  0.00    +0.003 C 
ENDROOT
BRANCH   4   7
ATOM      7  C   UNL     1      35.166 -19.544 -21.769  0.00  0.00    +0.000 C 
ATOM      8  C   UNL     1      35.661 -18.255 -21.570  0.00  0.00    +0.000 C 
ATOM      9  C   UNL     1      34.672 -19.916 -23.020  0.00  0.00    +0.000 C 
ATOM     10  C   UNL     1      35.168 -17.709 -23.871  0.00  0.00    +0.031 C 
ATOM     11  C   UNL     1      35.661 -17.337 -22.621  0.00  0.00    +0.003 C 
ATOM     12  C   UNL     1      34.673 -18.998 -24.071  0.00  0.00    +0.003 C 
BRANCH  10  15
ATOM     13  N   UNL     1      35.685 -15.468 -24.808  0.00  0.00    -0.343 N 
ATOM     14  N   UNL     1      34.665 -17.095 -26.140  0.00  0.00    -0.285 NA
ATOM     15  C   UNL     1      35.168 -16.752 -24.966  0.00  0.00    +0.117 C 
ATOM     16  H   UNL     1      35.674 -14.837 -25.563  0.00  0.00    +0.144 HD
ATOM     17  H   UNL     1      36.061 -15.193 -23.941  0.00  0.00    +0.144 HD
ATOM     18  H   UNL     1      34.664 -16.449 -26.882  0.00  0.00    +0.188 HD
ENDBRANCH  10  15
ENDBRANCH   4   7
BRANCH   1  19
ATOM     19  O   UNL     1      35.171 -23.229 -17.556  0.00  0.00    -0.474 OA
BRANCH  19  20
ATOM     20  C   UNL     1      36.061 -22.978 -16.482  0.00  0.00    +0.225 C 
BRANCH  20  24
ATOM     21  O   UNL     1      39.239 -24.601 -13.925  0.00  0.00    -0.275 OA
ATOM     22  N   UNL     1      37.509 -24.690 -15.500  0.00  0.00    -0.302 N 
ATOM     23  C   UNL     1      37.069 -23.560 -13.498  0.00  0.00    +0.089 C 
ATOM     24  C   UNL     1      36.147 -24.228 -15.617  0.00  0.00    +0.116 C 
ATOM     25  C   UNL     1      35.753 -23.976 -14.166  0.00  0.00    +0.033 C 
ATOM     26  C   UNL     1      38.098 -24.350 -14.284  0.00  0.00    +0.223 C 
ATOM     27  H   UNL     1      37.974 -25.194 -16.205  0.00  0.00    +0.149 HD
BRANCH  23  28
ATOM     28  C   UNL     1      37.105 -23.860 -12.012  0.00  0.00    +0.118 C 
BRANCH  28  30
ATOM     29  O   UNL     1      37.072 -26.296 -12.088  0.00  0.00    -0.250 OA
ATOM     30  C   UNL     1      36.591 -25.243 -11.700  0.00  0.00    +0.314 C 
BRANCH  30  31
ATOM     31  O   UNL     1      35.491 -25.163 -10.906  0.00  0.00    -0.480 OA
ATOM     32  H   UNL     1      35.083 -25.945 -10.591  0.00  0.00    +0.295 HD
ENDBRANCH  30  31
ENDBRANCH  28  30
ENDBRANCH  23  28
ENDBRANCH  20  24
ENDBRANCH  19  20
ENDBRANCH   1  19
TORSDOF 8
ENDMDL
MODEL 5
REMARK VINA RESULT:     -11.3      3.270      5.290
REMARK  Name = 66000
REMARK  8 active torsions:
REMARK  status: ('A' for Active; 'I' for Inactive)
REMARK    1  A    between atoms: C_1  and  O_19
REMARK    2  A    between atoms: C_4  and  C_7
REMARK    3  A    between atoms: C_10  and  C_15
REMARK    4  A    between atoms: O_19  and  C_20
REMARK    5  A    between atoms: C_20  and  C_24
REMARK    6  A    between atoms: C_23  and  C_28
REMARK    7  A    between atoms: C_28  and  C_30
REMARK    8  A    between atoms: C_30  and  O_31
REMARK                            x       y       z     vdW  Elec       q    Type
REMARK                         _______ _______ _______ _____ _____    ______ ____
ROOT
ATOM      1  C   UNL     1      35.224 -22.153 -18.921  0.00  0.00    +0.139 C 
ATOM      2  C   UNL     1      34.009 -21.735 -19.451  0.00  0.00    +0.037 C 
ATOM      3  C   UNL     1      36.420 -21.604 -19.366  0.00  0.00    +0.037 C 
ATOM      4  C   UNL     1      35.187 -20.198 -20.894  0.00  0.00    +0.000 C 
ATOM      5  C   UNL     1      33.991 -20.754 -20.441  0.00  0.00    +0.003 C 
ATOM      6  C   UNL     1      36.402 -20.623 -20.357  0.00  0.00    +0.003 C 
ENDROOT
BRANCH   4   7
ATOM      7  C   UNL     1      35.168 -19.180 -21.922  0.00  0.00    +0.000 C 
ATOM      8  C   UNL     1      34.809 -19.514 -23.228  0.00  0.00    +0.000 C 
ATOM      9  C   UNL     1      35.508 -17.864 -21.608  0.00  0.00    +0.000 C 
ATOM     10  C   UNL     1      35.129 -17.217 -23.904  0.00  0.00    +0.031 C 
ATOM     11  C   UNL     1      34.790 -18.533 -24.220  0.00  0.00    +0.003 C 
ATOM     12  C   UNL     1      35.488 -16.882 -22.599  0.00  0.00    +0.003 C 
BRANCH  10  15
ATOM     13  N   UNL     1      35.126 -14.838 -24.618  0.00  0.00    -0.343 N 
ATOM     14  N   UNL     1      35.071 -16.546 -26.212  0.00  0.00    -0.285 NA
ATOM     15  C   UNL     1      35.110 -16.194 -24.938  0.00  0.00    +0.117 C 
ATOM     16  H   UNL     1      35.112 -14.163 -25.334  0.00  0.00    +0.144 HD
ATOM     17  H   UNL     1      35.151 -14.556 -23.676  0.00  0.00    +0.144 HD
ATOM     18  H   UNL     1      35.058 -15.856 -26.913  0.00  0.00    +0.188 HD
ENDBRANCH  10  15
ENDBRANCH   4   7
BRANCH   1  19
ATOM     19  O   UNL     1      35.242 -23.120 -17.946  0.00  0.00    -0.474 OA
BRANCH  19  20
ATOM     20  C   UNL     1      34.666 -22.784 -16.697  0.00  0.00    +0.225 C 
BRANCH  20  24
ATOM     21  O   UNL     1      32.324 -23.453 -13.044  0.00  0.00    -0.275 OA
ATOM     22  N   UNL     1      33.810 -24.017 -14.762  0.00  0.00    -0.302 N 
ATOM     23  C   UNL     1      31.756 -23.089 -15.393  0.00  0.00    +0.089 C 
ATOM     24  C   UNL     1      33.844 -23.967 -16.204  0.00  0.00    +0.116 C 
ATOM     25  C   UNL     1      32.367 -23.859 -16.569  0.00  0.00    +0.033 C 
ATOM     26  C   UNL     1      32.617 -23.537 -14.227  0.00  0.00    +0.223 C 
ATOM     27  H   UNL     1      34.553 -24.356 -14.214  0.00  0.00    +0.149 HD
BRANCH  23  28
ATOM     28  C   UNL     1      30.283 -23.386 -15.186  0.00  0.00    +0.118 C 
BRANCH  28  30
ATOM     29  O   UNL     1      29.654 -22.531 -17.380  0.00  0.00    -0.250 OA
ATOM     30  C   UNL     1      29.415 -22.671 -16.191  0.00  0.00    +0.314 C 
BRANCH  30  31
ATOM     31  O   UNL     1      28.298 -22.192 -15.585  0.00  0.00    -0.480 OA
ATOM     32  H   UNL     1      27.986 -21.333 -15.789  0.00  0.00    +0.295 HD
ENDBRANCH  30  31
ENDBRANCH  28  30
ENDBRANCH  23  28
ENDBRANCH  20  24
ENDBRANCH  19  20
ENDBRANCH   1  19
TORSDOF 8
ENDMDL
MODEL 6
REMARK VINA RESULT:     -10.6      1.588      2.426
REMARK  Name = 66000
REMARK  8 active torsions:
REMARK  status: ('A' for Active; 'I' for Inactive)
REMARK    1  A    between atoms: C_1  and  O_19
REMARK    2  A    between atoms: C_4  and  C_7
REMARK    3  A    between atoms: C_10  and  C_15
REMARK    4  A    between atoms: O_19  and  C_20
REMARK    5  A    between atoms: C_20  and  C_24
REMARK    6  A    between atoms: C_23  and  C_28
REMARK    7  A    between atoms: C_28  and  C_30
REMARK    8  A    between atoms: C_30  and  O_31
REMARK                            x       y       z     vdW  Elec       q    Type
REMARK                         _______ _______ _______ _____ _____    ______ ____
ROOT
ATOM      1  C   UNL     1      35.915 -23.212 -16.869  0.00  0.00    +0.139 C 
ATOM      2  C   UNL     1      34.741 -23.177 -17.611  0.00  0.00    +0.037 C 
ATOM      3  C   UNL     1      37.005 -22.427 -17.224  0.00  0.00    +0.037 C 
ATOM      4  C   UNL     1      35.744 -21.552 -19.090  0.00  0.00    +0.000 C 
ATOM      5  C   UNL     1      34.655 -22.344 -18.726  0.00  0.00    +0.003 C 
ATOM      6  C   UNL     1      36.920 -21.594 -18.340  0.00  0.00    +0.003 C 
ENDROOT
BRANCH   4   7
ATOM      7  C   UNL     1      35.656 -20.688 -20.247  0.00  0.00    +0.000 C 
ATOM      8  C   UNL     1      36.777 -19.972 -20.670  0.00  0.00    +0.000 C 
ATOM      9  C   UNL     1      34.452 -20.572 -20.942  0.00  0.00    +0.000 C 
ATOM     10  C   UNL     1      35.488 -19.025 -22.480  0.00  0.00    +0.031 C 
ATOM     11  C   UNL     1      36.692 -19.140 -21.787  0.00  0.00    +0.003 C 
ATOM     12  C   UNL     1      34.368 -19.740 -22.058  0.00  0.00    +0.003 C 
BRANCH  10  15
ATOM     13  N   UNL     1      36.093 -16.949 -23.703  0.00  0.00    -0.343 N 
ATOM     14  N   UNL     1      34.647 -18.507 -24.672  0.00  0.00    -0.285 NA
ATOM     15  C   UNL     1      35.400 -18.156 -23.644  0.00  0.00    +0.117 C 
ATOM     16  H   UNL     1      36.018 -16.377 -24.500  0.00  0.00    +0.144 HD
ATOM     17  H   UNL     1      36.657 -16.668 -22.946  0.00  0.00    +0.144 HD
ATOM     18  H   UNL     1      34.585 -17.922 -25.460  0.00  0.00    +0.188 HD
ENDBRANCH  10  15
ENDBRANCH   4   7
BRANCH   1  19
ATOM     19  O   UNL     1      35.999 -24.033 -15.772  0.00  0.00    -0.474 OA
BRANCH  19  20
ATOM     20  C   UNL     1      35.218 -23.680 -14.644  0.00  0.00    +0.225 C 
BRANCH  20  24
ATOM     21  O   UNL     1      37.105 -26.657 -12.026  0.00  0.00    -0.275 OA
ATOM     22  N   UNL     1      35.977 -24.670 -12.537  0.00  0.00    -0.302 N 
ATOM     23  C   UNL     1      37.931 -25.125 -13.742  0.00  0.00    +0.089 C 
ATOM     24  C   UNL     1      36.137 -23.552 -13.435  0.00  0.00    +0.116 C 
ATOM     25  C   UNL     1      37.615 -23.627 -13.802  0.00  0.00    +0.033 C 
ATOM     26  C   UNL     1      36.996 -25.613 -12.652  0.00  0.00    +0.223 C 
ATOM     27  H   UNL     1      35.226 -24.757 -11.907  0.00  0.00    +0.149 HD
BRANCH  23  28
ATOM     28  C   UNL     1      39.389 -25.417 -13.443  0.00  0.00    +0.118 C 
BRANCH  28  30
ATOM     29  O   UNL     1      41.220 -26.530 -14.603  0.00  0.00    -0.250 OA
ATOM     30  C   UNL     1      40.082 -26.087 -14.602  0.00  0.00    +0.314 C 
BRANCH  30  31
ATOM     31  O   UNL     1      39.252 -26.138 -15.676  0.00  0.00    -0.480 OA
ATOM     32  H   UNL     1      39.424 -25.605 -16.427  0.00  0.00    +0.295 HD
ENDBRANCH  30  31
ENDBRANCH  28  30
ENDBRANCH  23  28
ENDBRANCH  20  24
ENDBRANCH  19  20
ENDBRANCH   1  19
TORSDOF 8
ENDMDL
MODEL 7
REMARK VINA RESULT:     -10.3      6.128     11.934
REMARK  Name = 66000
REMARK  8 active torsions:
REMARK  status: ('A' for Active; 'I' for Inactive)
REMARK    1  A    between atoms: C_1  and  O_19
REMARK    2  A    between atoms: C_4  and  C_7
REMARK    3  A    between atoms: C_10  and  C_15
REMARK    4  A    between atoms: O_19  and  C_20
REMARK    5  A    between atoms: C_20  and  C_24
REMARK    6  A    between atoms: C_23  and  C_28
REMARK    7  A    between atoms: C_28  and  C_30
REMARK    8  A    between atoms: C_30  and  O_31
REMARK                            x       y       z     vdW  Elec       q    Type
REMARK                         _______ _______ _______ _____ _____    ______ ____
ROOT
ATOM      1  C   UNL     1      35.217 -17.188 -24.148  0.00  0.00    +0.139 C 
ATOM      2  C   UNL     1      34.750 -18.457 -24.468  0.00  0.00    +0.037 C 
ATOM      3  C   UNL     1      35.568 -16.868 -22.843  0.00  0.00    +0.037 C 
ATOM      4  C   UNL     1      34.980 -19.107 -22.154  0.00  0.00    +0.000 C 
ATOM      5  C   UNL     1      34.631 -19.420 -23.467  0.00  0.00    +0.003 C 
ATOM      6  C   UNL     1      35.448 -17.831 -21.841  0.00  0.00    +0.003 C 
ENDROOT
BRANCH   4   7
ATOM      7  C   UNL     1      34.856 -20.106 -21.114  0.00  0.00    +0.000 C 
ATOM      8  C   UNL     1      33.593 -20.515 -20.687  0.00  0.00    +0.000 C 
ATOM      9  C   UNL     1      36.000 -20.662 -20.540  0.00  0.00    +0.000 C 
ATOM     10  C   UNL     1      34.617 -22.034 -19.112  0.00  0.00    +0.031 C 
ATOM     11  C   UNL     1      33.473 -21.479 -19.686  0.00  0.00    +0.003 C 
ATOM     12  C   UNL     1      35.880 -21.626 -19.539  0.00  0.00    +0.003 C 
BRANCH  10  15
ATOM     13  N   UNL     1      33.392 -23.893 -18.010  0.00  0.00    -0.343 N 
ATOM     14  N   UNL     1      35.432 -23.151 -17.146  0.00  0.00    -0.285 NA
ATOM     15  C   UNL     1      34.492 -23.039 -18.068  0.00  0.00    +0.117 C 
ATOM     16  H   UNL     1      33.328 -24.565 -17.294  0.00  0.00    +0.144 HD
ATOM     17  H   UNL     1      32.679 -23.823 -18.685  0.00  0.00    +0.144 HD
ATOM     18  H   UNL     1      35.350 -23.830 -16.438  0.00  0.00    +0.188 HD
ENDBRANCH  10  15
ENDBRANCH   4   7
BRANCH   1  19
ATOM     19  O   UNL     1      35.334 -16.239 -25.134  0.00  0.00    -0.474 OA
BRANCH  19  20
ATOM     20  C   UNL     1      35.361 -14.884 -24.722  0.00  0.00    +0.225 C 
BRANCH  20  24
ATOM     21  O   UNL     1      32.816 -12.482 -22.071  0.00  0.00    -0.275 OA
ATOM     22  N   UNL     1      33.294 -14.171 -23.620  0.00  0.00    -0.302 N 
ATOM     23  C   UNL     1      34.062 -12.018 -24.122  0.00  0.00    +0.089 C 
ATOM     24  C   UNL     1      33.966 -14.296 -24.891  0.00  0.00    +0.116 C 
ATOM     25  C   UNL     1      33.984 -12.859 -25.401  0.00  0.00    +0.033 C 
ATOM     26  C   UNL     1      33.299 -12.869 -23.125  0.00  0.00    +0.223 C 
ATOM     27  H   UNL     1      32.875 -14.928 -23.151  0.00  0.00    +0.149 HD
BRANCH  23  28
ATOM     28  C   UNL     1      33.475 -10.629 -24.283  0.00  0.00    +0.118 C 
BRANCH  28  30
ATOM     29  O   UNL     1      34.249  -8.480 -23.434  0.00  0.00    -0.250 OA
ATOM     30  C   UNL     1      34.481  -9.549 -23.977  0.00  0.00    +0.314 C 
BRANCH  30  31
ATOM     31  O   UNL     1      35.717  -9.932 -24.392  0.00  0.00    -0.480 OA
ATOM     32  H   UNL     1      36.459  -9.800 -23.837  0.00  0.00    +0.295 HD
ENDBRANCH  30  31
ENDBRANCH  28  30
ENDBRANCH  23  28
ENDBRANCH  20  24
ENDBRANCH  19  20
ENDBRANCH   1  19
TORSDOF 8
ENDMDL
MODEL 8
REMARK VINA RESULT:     -10.2      4.097     10.946
REMARK  Name = 66000
REMARK  8 active torsions:
REMARK  status: ('A' for Active; 'I' for Inactive)
REMARK    1  A    between atoms: C_1  and  O_19
REMARK    2  A    between atoms: C_4  and  C_7
REMARK    3  A    between atoms: C_10  and  C_15
REMARK    4  A    between atoms: O_19  and  C_20
REMARK    5  A    between atoms: C_20  and  C_24
REMARK    6  A    between atoms: C_23  and  C_28
REMARK    7  A    between atoms: C_28  and  C_30
REMARK    8  A    between atoms: C_30  and  O_31
REMARK                            x       y       z     vdW  Elec       q    Type
REMARK                         _______ _______ _______ _____ _____    ______ ____
ROOT
ATOM      1  C   UNL     1      34.866 -21.309 -20.212  0.00  0.00    +0.139 C 
ATOM      2  C   UNL     1      36.133 -21.280 -19.641  0.00  0.00    +0.037 C 
ATOM      3  C   UNL     1      33.811 -21.947 -19.571  0.00  0.00    +0.037 C 
ATOM      4  C   UNL     1      35.295 -22.542 -17.759  0.00  0.00    +0.000 C 
ATOM      5  C   UNL     1      36.348 -21.899 -18.410  0.00  0.00    +0.003 C 
ATOM      6  C   UNL     1      34.027 -22.567 -18.340  0.00  0.00    +0.003 C 
ENDROOT
BRANCH   4   7
ATOM      7  C   UNL     1      35.518 -23.185 -16.483  0.00  0.00    +0.000 C 
ATOM      8  C   UNL     1      34.462 -23.816 -15.825  0.00  0.00    +0.000 C 
ATOM      9  C   UNL     1      36.790 -23.177 -15.910  0.00  0.00    +0.000 C 
ATOM     10  C   UNL     1      35.949 -24.428 -14.022  0.00  0.00    +0.031 C 
ATOM     11  C   UNL     1      34.677 -24.437 -14.595  0.00  0.00    +0.003 C 
ATOM     12  C   UNL     1      37.005 -23.798 -14.679  0.00  0.00    +0.003 C 
BRANCH  10  15
ATOM     13  N   UNL     1      37.376 -25.716 -12.449  0.00  0.00    -0.343 N 
ATOM     14  N   UNL     1      35.220 -25.067 -11.823  0.00  0.00    -0.285 NA
ATOM     15  C   UNL     1      36.172 -25.075 -12.739  0.00  0.00    +0.117 C 
ATOM     16  H   UNL     1      37.505 -26.148 -11.574  0.00  0.00    +0.144 HD
ATOM     17  H   UNL     1      38.096 -25.736 -13.119  0.00  0.00    +0.144 HD
ATOM     18  H   UNL     1      35.369 -25.504 -10.954  0.00  0.00    +0.188 HD
ENDBRANCH  10  15
ENDBRANCH   4   7
BRANCH   1  19
ATOM     19  O   UNL     1      34.654 -20.700 -21.424  0.00  0.00    -0.474 OA
BRANCH  19  20
ATOM     20  C   UNL     1      35.022 -19.336 -21.530  0.00  0.00    +0.225 C 
BRANCH  20  24
ATOM     21  O   UNL     1      33.973 -18.584 -25.726  0.00  0.00    -0.275 OA
ATOM     22  N   UNL     1      35.148 -19.579 -23.964  0.00  0.00    -0.302 N 
ATOM     23  C   UNL     1      34.993 -17.244 -23.955  0.00  0.00    +0.089 C 
ATOM     24  C   UNL     1      35.866 -19.156 -22.785  0.00  0.00    +0.116 C 
ATOM     25  C   UNL     1      36.175 -17.694 -23.089  0.00  0.00    +0.033 C 
ATOM     26  C   UNL     1      34.629 -18.515 -24.698  0.00  0.00    +0.223 C 
ATOM     27  H   UNL     1      35.037 -20.522 -24.222  0.00  0.00    +0.149 HD
BRANCH  23  28
ATOM     28  C   UNL     1      35.336 -16.095 -24.885  0.00  0.00    +0.118 C 
BRANCH  28  30
ATOM     29  O   UNL     1      33.423 -14.589 -24.795  0.00  0.00    -0.250 OA
ATOM     30  C   UNL     1      34.104 -15.399 -25.404  0.00  0.00    +0.314 C 
BRANCH  30  31
ATOM     31  O   UNL     1      33.844 -15.799 -26.676  0.00  0.00    -0.480 OA
ATOM     32  H   UNL     1      34.305 -15.412 -27.393  0.00  0.00    +0.295 HD
ENDBRANCH  30  31
ENDBRANCH  28  30
ENDBRANCH  23  28
ENDBRANCH  20  24
ENDBRANCH  19  20
ENDBRANCH   1  19
TORSDOF 8
ENDMDL
MODEL 9
REMARK VINA RESULT:     -10.2      8.787     12.541
REMARK  Name = 66000
REMARK  8 active torsions:
REMARK  status: ('A' for Active; 'I' for Inactive)
REMARK    1  A    between atoms: C_1  and  O_19
REMARK    2  A    between atoms: C_4  and  C_7
REMARK    3  A    between atoms: C_10  and  C_15
REMARK    4  A    between atoms: O_19  and  C_20
REMARK    5  A    between atoms: C_20  and  C_24
REMARK    6  A    between atoms: C_23  and  C_28
REMARK    7  A    between atoms: C_28  and  C_30
REMARK    8  A    between atoms: C_30  and  O_31
REMARK                            x       y       z     vdW  Elec       q    Type
REMARK                         _______ _______ _______ _____ _____    ______ ____
ROOT
ATOM      1  C   UNL     1      32.186 -11.853 -20.472  0.00  0.00    +0.139 C 
ATOM      2  C   UNL     1      32.332 -10.776 -19.606  0.00  0.00    +0.037 C 
ATOM      3  C   UNL     1      31.947 -11.650 -21.826  0.00  0.00    +0.037 C 
ATOM      4  C   UNL     1      31.998  -9.263 -21.459  0.00  0.00    +0.000 C 
ATOM      5  C   UNL     1      32.238  -9.476 -20.102  0.00  0.00    +0.003 C 
ATOM      6  C   UNL     1      31.852 -10.350 -22.321  0.00  0.00    +0.003 C 
ENDROOT
BRANCH   4   7
ATOM      7  C   UNL     1      31.898  -7.914 -21.973  0.00  0.00    +0.000 C 
ATOM      8  C   UNL     1      32.358  -6.841 -21.210  0.00  0.00    +0.000 C 
ATOM      9  C   UNL     1      31.344  -7.686 -23.233  0.00  0.00    +0.000 C 
ATOM     10  C   UNL     1      31.710  -5.313 -22.966  0.00  0.00    +0.031 C 
ATOM     11  C   UNL     1      32.264  -5.540 -21.706  0.00  0.00    +0.003 C 
ATOM     12  C   UNL     1      31.250  -6.386 -23.730  0.00  0.00    +0.003 C 
BRANCH  10  15
ATOM     13  N   UNL     1      30.799  -3.005 -22.871  0.00  0.00    -0.343 N 
ATOM     14  N   UNL     1      32.298  -3.611 -24.558  0.00  0.00    -0.285 NA
ATOM     15  C   UNL     1      31.611  -3.957 -23.483  0.00  0.00    +0.117 C 
ATOM     16  H   UNL     1      30.747  -2.093 -23.238  0.00  0.00    +0.144 HD
ATOM     17  H   UNL     1      30.278  -3.244 -22.071  0.00  0.00    +0.144 HD
ATOM     18  H   UNL     1      32.233  -2.694 -24.910  0.00  0.00    +0.188 HD
ENDBRANCH  10  15
ENDBRANCH   4   7
BRANCH   1  19
ATOM     19  O   UNL     1      32.278 -13.133 -19.984  0.00  0.00    -0.474 OA
BRANCH  19  20
ATOM     20  C   UNL     1      32.637 -14.148 -20.905  0.00  0.00    +0.225 C 
BRANCH  20  24
ATOM     21  O   UNL     1      35.587 -17.355 -21.440  0.00  0.00    -0.275 OA
ATOM     22  N   UNL     1      34.745 -15.349 -20.576  0.00  0.00    -0.302 N 
ATOM     23  C   UNL     1      34.663 -15.624 -22.898  0.00  0.00    +0.089 C 
ATOM     24  C   UNL     1      34.150 -14.135 -21.080  0.00  0.00    +0.116 C 
ATOM     25  C   UNL     1      34.579 -14.136 -22.543  0.00  0.00    +0.033 C 
ATOM     26  C   UNL     1      35.083 -16.251 -21.582  0.00  0.00    +0.223 C 
ATOM     27  H   UNL     1      34.897 -15.522 -19.619  0.00  0.00    +0.149 HD
BRANCH  23  28
ATOM     28  C   UNL     1      35.635 -15.916 -24.026  0.00  0.00    +0.118 C 
BRANCH  28  30
ATOM     29  O   UNL     1      34.747 -16.645 -26.175  0.00  0.00    -0.250 OA
ATOM     30  C   UNL     1      35.068 -16.894 -25.024  0.00  0.00    +0.314 C 
BRANCH  30  31
ATOM     31  O   UNL     1      34.960 -18.125 -24.460  0.00  0.00    -0.480 OA
ATOM     32  H   UNL     1      34.703 -18.859 -24.982  0.00  0.00    +0.295 HD
ENDBRANCH  30  31
ENDBRANCH  28  30
ENDBRANCH  23  28
ENDBRANCH  20  24
ENDBRANCH  19  20
ENDBRANCH   1  19
TORSDOF 8
ENDMDL
