MODEL 1
REMARK VINA RESULT:     -11.5      0.000      0.000
REMARK  Name = 5497056
REMARK  11 active torsions:
REMARK  status: ('A' for Active; 'I' for Inactive)
REMARK    1  A    between atoms: N_2  and  C_22
REMARK    2  A    between atoms: C_3  and  C_5
REMARK    3  A    between atoms: C_8  and  C_11
REMARK    4  A    between atoms: C_13  and  C_17
REMARK    5  A    between atoms: C_17  and  N_18
REMARK    6  A    between atoms: C_22  and  C_24
REMARK    7  A    between atoms: C_24  and  C_26
REMARK    8  A    between atoms: C_24  and  C_29
REMARK    9  A    between atoms: C_26  and  O_27
REMARK   10  A    between atoms: C_29  and  C_30
REMARK   11  A    between atoms: C_33  and  C_38
REMARK                            x       y       z     vdW  Elec       q    Type
REMARK                         _______ _______ _______ _____ _____    ______ ____
ROOT
ATOM      1  O   UNL     1      33.420 -24.483 -18.052  0.00  0.00    -0.270 OA
ATOM      2  N   UNL     1      32.091 -22.761 -17.249  0.00  0.00    -0.302 N 
ATOM      3  C   UNL     1      33.071 -23.306 -18.064  0.00  0.00    +0.246 C 
ATOM      4  H   UNL     1      31.883 -21.802 -17.334  0.00  0.00    +0.150 HD
ENDROOT
BRANCH   3   5
ATOM      5  C   UNL     1      33.746 -22.360 -18.989  0.00  0.00    +0.053 C 
ATOM      6  C   UNL     1      35.135 -22.379 -19.115  0.00  0.00    +0.005 C 
ATOM      7  C   UNL     1      32.991 -21.451 -19.731  0.00  0.00    +0.005 C 
ATOM      8  C   UNL     1      35.014 -20.582 -20.726  0.00  0.00    -0.000 C 
ATOM      9  C   UNL     1      35.769 -21.490 -19.983  0.00  0.00    +0.000 C 
ATOM     10  C   UNL     1      33.625 -20.563 -20.600  0.00  0.00    +0.000 C 
BRANCH   8  11
ATOM     11  C   UNL     1      35.673 -19.662 -21.627  0.00  0.00    -0.000 C 
ATOM     12  C   UNL     1      34.987 -19.154 -22.730  0.00  0.00    -0.006 C 
ATOM     13  C   UNL     1      35.623 -18.267 -23.598  0.00  0.00    -0.044 C 
ATOM     14  C   UNL     1      36.994 -19.282 -21.391  0.00  0.00    -0.000 C 
ATOM     15  C   UNL     1      36.945 -17.888 -23.363  0.00  0.00    -0.006 C 
ATOM     16  C   UNL     1      37.630 -18.395 -22.260  0.00  0.00    -0.000 C 
BRANCH  13  17
ATOM     17  C   UNL     1      34.889 -17.722 -24.777  0.00  0.00    -0.059 C 
BRANCH  17  18
ATOM     18  N   UNL     1      35.390 -16.410 -25.188  0.00  0.00    +0.383 N 
ATOM     19  H   UNL     1      36.317 -16.513 -25.600  0.00  0.00    -0.089 HD
ATOM     20  H   UNL     1      35.444 -15.796 -24.376  0.00  0.00    -0.089 HD
ATOM     21  H   UNL     1      34.755 -16.005 -25.877  0.00  0.00    -0.089 HD
ENDBRANCH  17  18
ENDBRANCH  13  17
ENDBRANCH   8  11
ENDBRANCH   3   5
BRANCH   2  22
ATOM     22  C   UNL     1      31.363 -23.547 -16.281  0.00  0.00    +0.083 C 
ATOM     23  C   UNL     1      30.376 -22.662 -15.521  0.00  0.00    +0.022 C 
BRANCH  22  24
ATOM     24  C   UNL     1      32.295 -24.335 -15.333  0.00  0.00    +0.121 C 
BRANCH  24  26
ATOM     25  O   UNL     1      31.599 -25.092 -13.124  0.00  0.00    -0.250 OA
ATOM     26  C   UNL     1      31.497 -25.175 -14.341  0.00  0.00    +0.319 C 
BRANCH  26  27
ATOM     27  O   UNL     1      30.667 -26.019 -15.019  0.00  0.00    -0.444 OA
ATOM     28  C   UNL     1      29.271 -25.862 -14.744  0.00  0.00    +0.256 C 
ENDBRANCH  26  27
ENDBRANCH  24  26
BRANCH  24  29
ATOM     29  C   UNL     1      33.266 -23.407 -14.575  0.00  0.00    +0.039 C 
BRANCH  29  30
ATOM     30  C   UNL     1      34.711 -23.634 -14.955  0.00  0.00    -0.021 C 
ATOM     31  C   UNL     1      35.236 -24.926 -14.958  0.00  0.00    -0.002 C 
ATOM     32  C   UNL     1      35.520 -22.552 -15.300  0.00  0.00    -0.004 C 
ATOM     33  C   UNL     1      36.571 -25.137 -15.307  0.00  0.00    +0.030 C 
ATOM     34  C   UNL     1      36.855 -22.762 -15.649  0.00  0.00    -0.000 C 
ATOM     35  C   UNL     1      37.380 -24.053 -15.652  0.00  0.00    +0.003 C 
BRANCH  33  38
ATOM     36  N   UNL     1      37.878 -26.958 -14.240  0.00  0.00    -0.343 N 
ATOM     37  N   UNL     1      36.904 -27.280 -16.340  0.00  0.00    -0.285 NA
ATOM     38  C   UNL     1      37.119 -26.483 -15.308  0.00  0.00    +0.117 C 
ATOM     39  H   UNL     1      38.241 -27.873 -14.263  0.00  0.00    +0.144 HD
ATOM     40  H   UNL     1      38.053 -26.378 -13.464  0.00  0.00    +0.144 HD
ATOM     41  H   UNL     1      37.274 -28.192 -16.343  0.00  0.00    +0.188 HD
ENDBRANCH  33  38
ENDBRANCH  29  30
ENDBRANCH  24  29
ENDBRANCH  22  24
ENDBRANCH   2  22
TORSDOF 11
ENDMDL
MODEL 2
REMARK VINA RESULT:     -11.3      2.274      3.474
REMARK  Name = 5497056
REMARK  11 active torsions:
REMARK  status: ('A' for Active; 'I' for Inactive)
REMARK    1  A    between atoms: N_2  and  C_22
REMARK    2  A    between atoms: C_3  and  C_5
REMARK    3  A    between atoms: C_8  and  C_11
REMARK    4  A    between atoms: C_13  and  C_17
REMARK    5  A    between atoms: C_17  and  N_18
REMARK    6  A    between atoms: C_22  and  C_24
REMARK    7  A    between atoms: C_24  and  C_26
REMARK    8  A    between atoms: C_24  and  C_29
REMARK    9  A    between atoms: C_26  and  O_27
REMARK   10  A    between atoms: C_29  and  C_30
REMARK   11  A    between atoms: C_33  and  C_38
REMARK                            x       y       z     vdW  Elec       q    Type
REMARK                         _______ _______ _______ _____ _____    ______ ____
ROOT
ATOM      1  O   UNL     1      33.911 -24.290 -19.135  0.00  0.00    -0.270 OA
ATOM      2  N   UNL     1      33.887 -22.857 -17.312  0.00  0.00    -0.302 N 
ATOM      3  C   UNL     1      33.992 -23.161 -18.661  0.00  0.00    +0.246 C 
ATOM      4  H   UNL     1      33.966 -21.917 -17.031  0.00  0.00    +0.150 HD
ENDROOT
BRANCH   3   5
ATOM      5  C   UNL     1      34.247 -22.011 -19.566  0.00  0.00    +0.053 C 
ATOM      6  C   UNL     1      35.557 -21.643 -19.874  0.00  0.00    +0.005 C 
ATOM      7  C   UNL     1      33.178 -21.299 -20.110  0.00  0.00    +0.005 C 
ATOM      8  C   UNL     1      34.728 -19.852 -21.267  0.00  0.00    -0.000 C 
ATOM      9  C   UNL     1      35.798 -20.563 -20.724  0.00  0.00    +0.000 C 
ATOM     10  C   UNL     1      33.418 -20.220 -20.960  0.00  0.00    +0.000 C 
BRANCH   8  11
ATOM     11  C   UNL     1      34.979 -18.733 -22.150  0.00  0.00    -0.000 C 
ATOM     12  C   UNL     1      34.933 -17.430 -21.655  0.00  0.00    -0.006 C 
ATOM     13  C   UNL     1      35.175 -16.352 -22.506  0.00  0.00    -0.044 C 
ATOM     14  C   UNL     1      35.267 -18.959 -23.496  0.00  0.00    -0.000 C 
ATOM     15  C   UNL     1      35.462 -16.578 -23.853  0.00  0.00    -0.006 C 
ATOM     16  C   UNL     1      35.509 -17.881 -24.347  0.00  0.00    -0.000 C 
BRANCH  13  17
ATOM     17  C   UNL     1      35.127 -14.959 -21.977  0.00  0.00    -0.059 C 
BRANCH  17  18
ATOM     18  N   UNL     1      34.219 -14.825 -20.837  0.00  0.00    +0.383 N 
ATOM     19  H   UNL     1      34.663 -15.208 -20.002  0.00  0.00    -0.089 HD
ATOM     20  H   UNL     1      33.356 -15.335 -21.027  0.00  0.00    -0.089 HD
ATOM     21  H   UNL     1      34.005 -13.839 -20.687  0.00  0.00    -0.089 HD
ENDBRANCH  17  18
ENDBRANCH  13  17
ENDBRANCH   8  11
ENDBRANCH   3   5
BRANCH   2  22
ATOM     22  C   UNL     1      33.664 -23.868 -16.306  0.00  0.00    +0.083 C 
ATOM     23  C   UNL     1      32.352 -23.599 -15.571  0.00  0.00    +0.022 C 
BRANCH  22  24
ATOM     24  C   UNL     1      34.859 -24.016 -15.338  0.00  0.00    +0.121 C 
BRANCH  24  26
ATOM     25  O   UNL     1      36.045 -21.947 -14.833  0.00  0.00    -0.250 OA
ATOM     26  C   UNL     1      35.894 -22.918 -15.563  0.00  0.00    +0.319 C 
BRANCH  26  27
ATOM     27  O   UNL     1      36.611 -23.188 -16.692  0.00  0.00    -0.444 OA
ATOM     28  C   UNL     1      37.707 -22.304 -16.952  0.00  0.00    +0.256 C 
ENDBRANCH  26  27
ENDBRANCH  24  26
BRANCH  24  29
ATOM     29  C   UNL     1      35.529 -25.400 -15.452  0.00  0.00    +0.039 C 
BRANCH  29  30
ATOM     30  C   UNL     1      36.737 -25.542 -14.555  0.00  0.00    -0.021 C 
ATOM     31  C   UNL     1      37.981 -25.851 -15.105  0.00  0.00    -0.002 C 
ATOM     32  C   UNL     1      36.608 -25.367 -13.177  0.00  0.00    -0.004 C 
ATOM     33  C   UNL     1      39.096 -25.984 -14.277  0.00  0.00    +0.030 C 
ATOM     34  C   UNL     1      37.723 -25.501 -12.349  0.00  0.00    -0.000 C 
ATOM     35  C   UNL     1      38.967 -25.808 -12.899  0.00  0.00    +0.003 C 
BRANCH  33  38
ATOM     36  N   UNL     1      41.367 -26.975 -14.109  0.00  0.00    -0.343 N 
ATOM     37  N   UNL     1      40.667 -25.962 -16.095  0.00  0.00    -0.285 NA
ATOM     38  C   UNL     1      40.393 -26.306 -14.850  0.00  0.00    +0.117 C 
ATOM     39  H   UNL     1      42.239 -27.182 -14.516  0.00  0.00    +0.144 HD
ATOM     40  H   UNL     1      41.183 -27.237 -13.177  0.00  0.00    +0.144 HD
ATOM     41  H   UNL     1      41.545 -26.179 -16.484  0.00  0.00    +0.188 HD
ENDBRANCH  33  38
ENDBRANCH  29  30
ENDBRANCH  24  29
ENDBRANCH  22  24
ENDBRANCH   2  22
TORSDOF 11
ENDMDL
MODEL 3
REMARK VINA RESULT:     -10.8      8.359     14.275
REMARK  Name = 5497056
REMARK  11 active torsions:
REMARK  status: ('A' for Active; 'I' for Inactive)
REMARK    1  A    between atoms: N_2  and  C_22
REMARK    2  A    between atoms: C_3  and  C_5
REMARK    3  A    between atoms: C_8  and  C_11
REMARK    4  A    between atoms: C_13  and  C_17
REMARK    5  A    between atoms: C_17  and  N_18
REMARK    6  A    between atoms: C_22  and  C_24
REMARK    7  A    between atoms: C_24  and  C_26
REMARK    8  A    between atoms: C_24  and  C_29
REMARK    9  A    between atoms: C_26  and  O_27
REMARK   10  A    between atoms: C_29  and  C_30
REMARK   11  A    between atoms: C_33  and  C_38
REMARK                            x       y       z     vdW  Elec       q    Type
REMARK                         _______ _______ _______ _____ _____    ______ ____
ROOT
ATOM      1  O   UNL     1      33.903 -13.686 -25.573  0.00  0.00    -0.270 OA
ATOM      2  N   UNL     1      34.137 -12.501 -23.593  0.00  0.00    -0.302 N 
ATOM      3  C   UNL     1      34.183 -13.643 -24.378  0.00  0.00    +0.246 C 
ATOM      4  H   UNL     1      34.381 -12.570 -22.642  0.00  0.00    +0.150 HD
ENDROOT
BRANCH   3   5
ATOM      5  C   UNL     1      34.581 -14.893 -23.682  0.00  0.00    +0.053 C 
ATOM      6  C   UNL     1      34.622 -14.932 -22.288  0.00  0.00    +0.005 C 
ATOM      7  C   UNL     1      34.914 -16.029 -24.420  0.00  0.00    +0.005 C 
ATOM      8  C   UNL     1      35.327 -17.241 -22.372  0.00  0.00    -0.000 C 
ATOM      9  C   UNL     1      34.996 -16.106 -21.633  0.00  0.00    +0.000 C 
ATOM     10  C   UNL     1      35.286 -17.203 -23.766  0.00  0.00    +0.000 C 
BRANCH   8  11
ATOM     11  C   UNL     1      35.713 -18.459 -21.691  0.00  0.00    -0.000 C 
ATOM     12  C   UNL     1      34.737 -19.356 -21.260  0.00  0.00    -0.006 C 
ATOM     13  C   UNL     1      35.110 -20.530 -20.605  0.00  0.00    -0.044 C 
ATOM     14  C   UNL     1      37.062 -18.733 -21.467  0.00  0.00    -0.000 C 
ATOM     15  C   UNL     1      36.459 -20.804 -20.380  0.00  0.00    -0.006 C 
ATOM     16  C   UNL     1      37.436 -19.906 -20.811  0.00  0.00    -0.000 C 
BRANCH  13  17
ATOM     17  C   UNL     1      34.067 -21.491 -20.144  0.00  0.00    -0.059 C 
BRANCH  17  18
ATOM     18  N   UNL     1      32.757 -20.858 -19.984  0.00  0.00    +0.383 N 
ATOM     19  H   UNL     1      32.100 -21.531 -19.591  0.00  0.00    -0.089 HD
ATOM     20  H   UNL     1      32.418 -20.541 -20.892  0.00  0.00    -0.089 HD
ATOM     21  H   UNL     1      32.842 -20.058 -19.355  0.00  0.00    -0.089 HD
ENDBRANCH  17  18
ENDBRANCH  13  17
ENDBRANCH   8  11
ENDBRANCH   3   5
BRANCH   2  22
ATOM     22  C   UNL     1      33.745 -11.214 -24.119  0.00  0.00    +0.083 C 
ATOM     23  C   UNL     1      34.956 -10.500 -24.717  0.00  0.00    +0.022 C 
BRANCH  22  24
ATOM     24  C   UNL     1      33.007 -10.347 -23.075  0.00  0.00    +0.121 C 
BRANCH  24  26
ATOM     25  O   UNL     1      30.827 -11.226 -22.431  0.00  0.00    -0.250 OA
ATOM     26  C   UNL     1      32.037 -11.181 -22.246  0.00  0.00    +0.319 C 
BRANCH  26  27
ATOM     27  O   UNL     1      32.722 -11.858 -21.280  0.00  0.00    -0.444 OA
ATOM     28  C   UNL     1      31.984 -12.145 -20.087  0.00  0.00    +0.256 C 
ENDBRANCH  26  27
ENDBRANCH  24  26
BRANCH  24  29
ATOM     29  C   UNL     1      32.259  -9.167 -23.729  0.00  0.00    +0.039 C 
BRANCH  29  30
ATOM     30  C   UNL     1      32.319  -7.904 -22.900  0.00  0.00    -0.021 C 
ATOM     31  C   UNL     1      31.819  -6.708 -23.414  0.00  0.00    -0.002 C 
ATOM     32  C   UNL     1      32.876  -7.934 -21.622  0.00  0.00    -0.004 C 
ATOM     33  C   UNL     1      31.875  -5.542 -22.650  0.00  0.00    +0.030 C 
ATOM     34  C   UNL     1      32.933  -6.768 -20.858  0.00  0.00    -0.000 C 
ATOM     35  C   UNL     1      32.433  -5.572 -21.371  0.00  0.00    +0.003 C 
BRANCH  33  38
ATOM     36  N   UNL     1      30.445  -3.520 -22.469  0.00  0.00    -0.343 N 
ATOM     37  N   UNL     1      31.743  -3.878 -24.379  0.00  0.00    -0.285 NA
ATOM     38  C   UNL     1      31.355  -4.295 -23.187  0.00  0.00    +0.117 C 
ATOM     39  H   UNL     1      30.105  -2.679 -22.851  0.00  0.00    +0.144 HD
ATOM     40  H   UNL     1      30.141  -3.815 -21.579  0.00  0.00    +0.144 HD
ATOM     41  H   UNL     1      31.392  -3.034 -24.744  0.00  0.00    +0.188 HD
ENDBRANCH  33  38
ENDBRANCH  29  30
ENDBRANCH  24  29
ENDBRANCH  22  24
ENDBRANCH   2  22
TORSDOF 11
ENDMDL
MODEL 4
REMARK VINA RESULT:     -10.6      1.397      1.870
REMARK  Name = 5497056
REMARK  11 active torsions:
REMARK  status: ('A' for Active; 'I' for Inactive)
REMARK    1  A    between atoms: N_2  and  C_22
REMARK    2  A    between atoms: C_3  and  C_5
REMARK    3  A    between atoms: C_8  and  C_11
REMARK    4  A    between atoms: C_13  and  C_17
REMARK    5  A    between atoms: C_17  and  N_18
REMARK    6  A    between atoms: C_22  and  C_24
REMARK    7  A    between atoms: C_24  and  C_26
REMARK    8  A    between atoms: C_24  and  C_29
REMARK    9  A    between atoms: C_26  and  O_27
REMARK   10  A    between atoms: C_29  and  C_30
REMARK   11  A    between atoms: C_33  and  C_38
REMARK                            x       y       z     vdW  Elec       q    Type
REMARK                         _______ _______ _______ _____ _____    ______ ____
ROOT
ATOM      1  O   UNL     1      33.935 -24.205 -18.765  0.00  0.00    -0.270 OA
ATOM      2  N   UNL     1      32.656 -22.729 -17.516  0.00  0.00    -0.302 N 
ATOM      3  C   UNL     1      33.492 -23.077 -18.565  0.00  0.00    +0.246 C 
ATOM      4  H   UNL     1      32.354 -21.794 -17.441  0.00  0.00    +0.150 HD
ENDROOT
BRANCH   3   5
ATOM      5  C   UNL     1      33.879 -21.973 -19.480  0.00  0.00    +0.053 C 
ATOM      6  C   UNL     1      32.894 -21.190 -20.083  0.00  0.00    +0.005 C 
ATOM      7  C   UNL     1      35.226 -21.718 -19.737  0.00  0.00    +0.005 C 
ATOM      8  C   UNL     1      34.605 -19.898 -21.199  0.00  0.00    -0.000 C 
ATOM      9  C   UNL     1      33.257 -20.153 -20.943  0.00  0.00    +0.000 C 
ATOM     10  C   UNL     1      35.589 -20.681 -20.595  0.00  0.00    +0.000 C 
BRANCH   8  11
ATOM     11  C   UNL     1      34.980 -18.821 -22.089  0.00  0.00    -0.000 C 
ATOM     12  C   UNL     1      34.911 -17.498 -21.652  0.00  0.00    -0.006 C 
ATOM     13  C   UNL     1      35.273 -16.461 -22.511  0.00  0.00    -0.044 C 
ATOM     14  C   UNL     1      35.410 -19.107 -23.385  0.00  0.00    -0.000 C 
ATOM     15  C   UNL     1      35.702 -16.746 -23.808  0.00  0.00    -0.006 C 
ATOM     16  C   UNL     1      35.771 -18.069 -24.244  0.00  0.00    -0.000 C 
BRANCH  13  17
ATOM     17  C   UNL     1      35.201 -15.046 -22.044  0.00  0.00    -0.059 C 
BRANCH  17  18
ATOM     18  N   UNL     1      33.827 -14.546 -21.990  0.00  0.00    +0.383 N 
ATOM     19  H   UNL     1      33.195 -15.245 -22.380  0.00  0.00    -0.089 HD
ATOM     20  H   UNL     1      33.756 -13.684 -22.531  0.00  0.00    -0.089 HD
ATOM     21  H   UNL     1      33.572 -14.359 -21.020  0.00  0.00    -0.089 HD
ENDBRANCH  17  18
ENDBRANCH  13  17
ENDBRANCH   8  11
ENDBRANCH   3   5
BRANCH   2  22
ATOM     22  C   UNL     1      32.212 -23.684 -16.528  0.00  0.00    +0.083 C 
ATOM     23  C   UNL     1      30.915 -23.206 -15.879  0.00  0.00    +0.022 C 
BRANCH  22  24
ATOM     24  C   UNL     1      33.305 -24.011 -15.485  0.00  0.00    +0.121 C 
BRANCH  24  26
ATOM     25  O   UNL     1      32.832 -23.675 -13.118  0.00  0.00    -0.250 OA
ATOM     26  C   UNL     1      32.693 -24.350 -14.129  0.00  0.00    +0.319 C 
BRANCH  26  27
ATOM     27  O   UNL     1      31.980 -25.510 -14.225  0.00  0.00    -0.444 OA
ATOM     28  C   UNL     1      30.669 -25.475 -13.650  0.00  0.00    +0.256 C 
ENDBRANCH  26  27
ENDBRANCH  24  26
BRANCH  24  29
ATOM     29  C   UNL     1      34.319 -22.860 -15.330  0.00  0.00    +0.039 C 
BRANCH  29  30
ATOM     30  C   UNL     1      35.754 -23.325 -15.435  0.00  0.00    -0.021 C 
ATOM     31  C   UNL     1      36.129 -24.554 -14.894  0.00  0.00    -0.002 C 
ATOM     32  C   UNL     1      36.702 -22.524 -16.070  0.00  0.00    -0.004 C 
ATOM     33  C   UNL     1      37.453 -24.983 -14.988  0.00  0.00    +0.030 C 
ATOM     34  C   UNL     1      38.026 -22.952 -16.164  0.00  0.00    -0.000 C 
ATOM     35  C   UNL     1      38.402 -24.181 -15.624  0.00  0.00    +0.003 C 
BRANCH  33  38
ATOM     36  N   UNL     1      37.178 -26.808 -13.327  0.00  0.00    -0.343 N 
ATOM     37  N   UNL     1      38.856 -26.933 -14.948  0.00  0.00    -0.285 NA
ATOM     38  C   UNL     1      37.845 -26.264 -14.423  0.00  0.00    +0.117 C 
ATOM     39  H   UNL     1      37.461 -27.676 -12.959  0.00  0.00    +0.144 HD
ATOM     40  H   UNL     1      36.424 -26.323 -12.918  0.00  0.00    +0.144 HD
ATOM     41  H   UNL     1      39.123 -27.800 -14.566  0.00  0.00    +0.188 HD
ENDBRANCH  33  38
ENDBRANCH  29  30
ENDBRANCH  24  29
ENDBRANCH  22  24
ENDBRANCH   2  22
TORSDOF 11
ENDMDL
MODEL 5
REMARK VINA RESULT:     -10.4      3.691     10.671
REMARK  Name = 5497056
REMARK  11 active torsions:
REMARK  status: ('A' for Active; 'I' for Inactive)
REMARK    1  A    between atoms: N_2  and  C_22
REMARK    2  A    between atoms: C_3  and  C_5
REMARK    3  A    between atoms: C_8  and  C_11
REMARK    4  A    between atoms: C_13  and  C_17
REMARK    5  A    between atoms: C_17  and  N_18
REMARK    6  A    between atoms: C_22  and  C_24
REMARK    7  A    between atoms: C_24  and  C_26
REMARK    8  A    between atoms: C_24  and  C_29
REMARK    9  A    between atoms: C_26  and  O_27
REMARK   10  A    between atoms: C_29  and  C_30
REMARK   11  A    between atoms: C_33  and  C_38
REMARK                            x       y       z     vdW  Elec       q    Type
REMARK                         _______ _______ _______ _____ _____    ______ ____
ROOT
ATOM      1  O   UNL     1      37.137 -21.961 -20.158  0.00  0.00    -0.270 OA
ATOM      2  N   UNL     1      35.591 -20.284 -20.576  0.00  0.00    -0.302 N 
ATOM      3  C   UNL     1      36.058 -21.421 -19.934  0.00  0.00    +0.246 C 
ATOM      4  H   UNL     1      34.709 -19.927 -20.325  0.00  0.00    +0.150 HD
ENDROOT
BRANCH   3   5
ATOM      5  C   UNL     1      35.145 -22.016 -18.925  0.00  0.00    +0.053 C 
ATOM      6  C   UNL     1      33.783 -22.137 -19.202  0.00  0.00    +0.005 C 
ATOM      7  C   UNL     1      35.648 -22.455 -17.700  0.00  0.00    +0.005 C 
ATOM      8  C   UNL     1      33.429 -23.135 -17.030  0.00  0.00    -0.000 C 
ATOM      9  C   UNL     1      32.925 -22.695 -18.254  0.00  0.00    +0.000 C 
ATOM     10  C   UNL     1      34.790 -23.015 -16.753  0.00  0.00    +0.000 C 
BRANCH   8  11
ATOM     11  C   UNL     1      32.538 -23.716 -16.049  0.00  0.00    -0.000 C 
ATOM     12  C   UNL     1      31.168 -23.783 -16.303  0.00  0.00    -0.006 C 
ATOM     13  C   UNL     1      30.310 -24.343 -15.357  0.00  0.00    -0.044 C 
ATOM     14  C   UNL     1      33.050 -24.208 -14.849  0.00  0.00    -0.000 C 
ATOM     15  C   UNL     1      30.822 -24.835 -14.156  0.00  0.00    -0.006 C 
ATOM     16  C   UNL     1      32.192 -24.768 -13.902  0.00  0.00    -0.000 C 
BRANCH  13  17
ATOM     17  C   UNL     1      28.846 -24.416 -15.629  0.00  0.00    -0.059 C 
BRANCH  17  18
ATOM     18  N   UNL     1      28.497 -23.895 -16.952  0.00  0.00    +0.383 N 
ATOM     19  H   UNL     1      28.971 -23.005 -17.102  0.00  0.00    -0.089 HD
ATOM     20  H   UNL     1      27.488 -23.758 -17.009  0.00  0.00    -0.089 HD
ATOM     21  H   UNL     1      28.790 -24.562 -17.666  0.00  0.00    -0.089 HD
ENDBRANCH  17  18
ENDBRANCH  13  17
ENDBRANCH   8  11
ENDBRANCH   3   5
BRANCH   2  22
ATOM     22  C   UNL     1      36.352 -19.605 -21.599  0.00  0.00    +0.083 C 
ATOM     23  C   UNL     1      37.526 -18.856 -20.971  0.00  0.00    +0.022 C 
BRANCH  22  24
ATOM     24  C   UNL     1      35.475 -18.688 -22.481  0.00  0.00    +0.121 C 
BRANCH  24  26
ATOM     25  O   UNL     1      35.576 -20.369 -24.243  0.00  0.00    -0.250 OA
ATOM     26  C   UNL     1      35.002 -19.414 -23.737  0.00  0.00    +0.319 C 
BRANCH  26  27
ATOM     27  O   UNL     1      33.856 -18.834 -24.198  0.00  0.00    -0.444 OA
ATOM     28  C   UNL     1      33.900 -18.380 -25.555  0.00  0.00    +0.256 C 
ENDBRANCH  26  27
ENDBRANCH  24  26
BRANCH  24  29
ATOM     29  C   UNL     1      36.206 -17.387 -22.869  0.00  0.00    +0.039 C 
BRANCH  29  30
ATOM     30  C   UNL     1      35.349 -16.156 -22.682  0.00  0.00    -0.021 C 
ATOM     31  C   UNL     1      34.979 -15.390 -23.787  0.00  0.00    -0.002 C 
ATOM     32  C   UNL     1      34.932 -15.784 -21.405  0.00  0.00    -0.004 C 
ATOM     33  C   UNL     1      34.190 -14.252 -23.615  0.00  0.00    +0.030 C 
ATOM     34  C   UNL     1      34.144 -14.646 -21.232  0.00  0.00    -0.000 C 
ATOM     35  C   UNL     1      33.772 -13.880 -22.336  0.00  0.00    +0.003 C 
BRANCH  33  38
ATOM     36  N   UNL     1      34.127 -12.099 -24.851  0.00  0.00    -0.343 N 
ATOM     37  N   UNL     1      33.131 -14.008 -25.758  0.00  0.00    -0.285 NA
ATOM     38  C   UNL     1      33.804 -13.453 -24.766  0.00  0.00    +0.117 C 
ATOM     39  H   UNL     1      33.855 -11.576 -25.639  0.00  0.00    +0.144 HD
ATOM     40  H   UNL     1      34.626 -11.666 -24.120  0.00  0.00    +0.144 HD
ATOM     41  H   UNL     1      32.869 -13.469 -26.538  0.00  0.00    +0.188 HD
ENDBRANCH  33  38
ENDBRANCH  29  30
ENDBRANCH  24  29
ENDBRANCH  22  24
ENDBRANCH   2  22
TORSDOF 11
ENDMDL
MODEL 6
REMARK VINA RESULT:     -10.4      2.334      4.966
REMARK  Name = 5497056
REMARK  11 active torsions:
REMARK  status: ('A' for Active; 'I' for Inactive)
REMARK    1  A    between atoms: N_2  and  C_22
REMARK    2  A    between atoms: C_3  and  C_5
REMARK    3  A    between atoms: C_8  and  C_11
REMARK    4  A    between atoms: C_13  and  C_17
REMARK    5  A    between atoms: C_17  and  N_18
REMARK    6  A    between atoms: C_22  and  C_24
REMARK    7  A    between atoms: C_24  and  C_26
REMARK    8  A    between atoms: C_24  and  C_29
REMARK    9  A    between atoms: C_26  and  O_27
REMARK   10  A    between atoms: C_29  and  C_30
REMARK   11  A    between atoms: C_33  and  C_38
REMARK                            x       y       z     vdW  Elec       q    Type
REMARK                         _______ _______ _______ _____ _____    ______ ____
ROOT
ATOM      1  O   UNL     1      38.330 -20.999 -17.126  0.00  0.00    -0.270 OA
ATOM      2  N   UNL     1      36.456 -22.364 -17.110  0.00  0.00    -0.302 N 
ATOM      3  C   UNL     1      37.290 -21.394 -17.645  0.00  0.00    +0.246 C 
ATOM      4  H   UNL     1      35.640 -22.612 -17.603  0.00  0.00    +0.150 HD
ENDROOT
BRANCH   3   5
ATOM      5  C   UNL     1      36.845 -20.792 -18.928  0.00  0.00    +0.053 C 
ATOM      6  C   UNL     1      35.690 -21.261 -19.555  0.00  0.00    +0.005 C 
ATOM      7  C   UNL     1      37.581 -19.757 -19.506  0.00  0.00    +0.005 C 
ATOM      8  C   UNL     1      36.008 -19.661 -21.337  0.00  0.00    -0.000 C 
ATOM      9  C   UNL     1      35.272 -20.696 -20.760  0.00  0.00    +0.000 C 
ATOM     10  C   UNL     1      37.162 -19.192 -20.710  0.00  0.00    +0.000 C 
BRANCH   8  11
ATOM     11  C   UNL     1      35.572 -19.075 -22.587  0.00  0.00    -0.000 C 
ATOM     12  C   UNL     1      35.618 -17.693 -22.762  0.00  0.00    -0.006 C 
ATOM     13  C   UNL     1      35.197 -17.129 -23.967  0.00  0.00    -0.044 C 
ATOM     14  C   UNL     1      35.107 -19.895 -23.615  0.00  0.00    -0.000 C 
ATOM     15  C   UNL     1      34.732 -17.948 -24.995  0.00  0.00    -0.006 C 
ATOM     16  C   UNL     1      34.687 -19.331 -24.820  0.00  0.00    -0.000 C 
BRANCH  13  17
ATOM     17  C   UNL     1      35.247 -15.651 -24.156  0.00  0.00    -0.059 C 
BRANCH  17  18
ATOM     18  N   UNL     1      34.246 -15.176 -25.112  0.00  0.00    +0.383 N 
ATOM     19  H   UNL     1      34.054 -14.189 -24.943  0.00  0.00    -0.089 HD
ATOM     20  H   UNL     1      33.386 -15.714 -25.000  0.00  0.00    -0.089 HD
ATOM     21  H   UNL     1      34.600 -15.296 -26.062  0.00  0.00    -0.089 HD
ENDBRANCH  17  18
ENDBRANCH  13  17
ENDBRANCH   8  11
ENDBRANCH   3   5
BRANCH   2  22
ATOM     22  C   UNL     1      36.739 -23.024 -15.857  0.00  0.00    +0.083 C 
ATOM     23  C   UNL     1      38.060 -23.785 -15.950  0.00  0.00    +0.022 C 
BRANCH  22  24
ATOM     24  C   UNL     1      35.575 -23.923 -15.384  0.00  0.00    +0.121 C 
BRANCH  24  26
ATOM     25  O   UNL     1      35.995 -26.247 -15.985  0.00  0.00    -0.250 OA
ATOM     26  C   UNL     1      36.042 -25.356 -15.147  0.00  0.00    +0.319 C 
BRANCH  26  27
ATOM     27  O   UNL     1      36.511 -25.481 -13.872  0.00  0.00    -0.444 OA
ATOM     28  C   UNL     1      37.406 -26.577 -13.651  0.00  0.00    +0.256 C 
ENDBRANCH  26  27
ENDBRANCH  24  26
BRANCH  24  29
ATOM     29  C   UNL     1      34.395 -23.913 -16.377  0.00  0.00    +0.039 C 
BRANCH  29  30
ATOM     30  C   UNL     1      33.054 -23.779 -15.692  0.00  0.00    -0.021 C 
ATOM     31  C   UNL     1      31.892 -23.659 -16.453  0.00  0.00    -0.002 C 
ATOM     32  C   UNL     1      32.979 -23.773 -14.300  0.00  0.00    -0.004 C 
ATOM     33  C   UNL     1      30.654 -23.534 -15.822  0.00  0.00    +0.030 C 
ATOM     34  C   UNL     1      31.742 -23.647 -13.668  0.00  0.00    -0.000 C 
ATOM     35  C   UNL     1      30.579 -23.528 -14.428  0.00  0.00    +0.003 C 
BRANCH  33  38
ATOM     36  N   UNL     1      28.616 -24.505 -16.856  0.00  0.00    -0.343 N 
ATOM     37  N   UNL     1      29.108 -22.236 -17.125  0.00  0.00    -0.285 NA
ATOM     38  C   UNL     1      29.442 -23.408 -16.615  0.00  0.00    +0.117 C 
ATOM     39  H   UNL     1      27.800 -24.397 -17.397  0.00  0.00    +0.144 HD
ATOM     40  H   UNL     1      28.849 -25.388 -16.488  0.00  0.00    +0.144 HD
ATOM     41  H   UNL     1      28.288 -22.149 -17.662  0.00  0.00    +0.188 HD
ENDBRANCH  33  38
ENDBRANCH  29  30
ENDBRANCH  24  29
ENDBRANCH  22  24
ENDBRANCH   2  22
TORSDOF 11
ENDMDL
MODEL 7
REMARK VINA RESULT:     -10.2      2.058      2.572
REMARK  Name = 5497056
REMARK  11 active torsions:
REMARK  status: ('A' for Active; 'I' for Inactive)
REMARK    1  A    between atoms: N_2  and  C_22
REMARK    2  A    between atoms: C_3  and  C_5
REMARK    3  A    between atoms: C_8  and  C_11
REMARK    4  A    between atoms: C_13  and  C_17
REMARK    5  A    between atoms: C_17  and  N_18
REMARK    6  A    between atoms: C_22  and  C_24
REMARK    7  A    between atoms: C_24  and  C_26
REMARK    8  A    between atoms: C_24  and  C_29
REMARK    9  A    between atoms: C_26  and  O_27
REMARK   10  A    between atoms: C_29  and  C_30
REMARK   11  A    between atoms: C_33  and  C_38
REMARK                            x       y       z     vdW  Elec       q    Type
REMARK                         _______ _______ _______ _____ _____    ______ ____
ROOT
ATOM      1  O   UNL     1      33.974 -24.267 -18.702  0.00  0.00    -0.270 OA
ATOM      2  N   UNL     1      32.499 -22.873 -17.581  0.00  0.00    -0.302 N 
ATOM      3  C   UNL     1      33.444 -23.170 -18.551  0.00  0.00    +0.246 C 
ATOM      4  H   UNL     1      32.133 -21.960 -17.539  0.00  0.00    +0.150 HD
ENDROOT
BRANCH   3   5
ATOM      5  C   UNL     1      33.839 -22.046 -19.437  0.00  0.00    +0.053 C 
ATOM      6  C   UNL     1      35.186 -21.820 -19.720  0.00  0.00    +0.005 C 
ATOM      7  C   UNL     1      32.862 -21.214 -19.987  0.00  0.00    +0.005 C 
ATOM      8  C   UNL     1      34.580 -19.933 -21.102  0.00  0.00    -0.000 C 
ATOM      9  C   UNL     1      35.557 -20.764 -20.552  0.00  0.00    +0.000 C 
ATOM     10  C   UNL     1      33.233 -20.158 -20.819  0.00  0.00    +0.000 C 
BRANCH   8  11
ATOM     11  C   UNL     1      34.966 -18.838 -21.966  0.00  0.00    -0.000 C 
ATOM     12  C   UNL     1      34.867 -17.523 -21.513  0.00  0.00    -0.006 C 
ATOM     13  C   UNL     1      35.240 -16.469 -22.347  0.00  0.00    -0.044 C 
ATOM     14  C   UNL     1      35.438 -19.100 -23.253  0.00  0.00    -0.000 C 
ATOM     15  C   UNL     1      35.711 -16.730 -23.634  0.00  0.00    -0.006 C 
ATOM     16  C   UNL     1      35.811 -18.046 -24.087  0.00  0.00    -0.000 C 
BRANCH  13  17
ATOM     17  C   UNL     1      35.135 -15.062 -21.862  0.00  0.00    -0.059 C 
BRANCH  17  18
ATOM     18  N   UNL     1      34.115 -14.904 -20.825  0.00  0.00    +0.383 N 
ATOM     19  H   UNL     1      33.369 -15.585 -20.974  0.00  0.00    -0.089 HD
ATOM     20  H   UNL     1      33.728 -13.961 -20.868  0.00  0.00    -0.089 HD
ATOM     21  H   UNL     1      34.536 -15.057 -19.908  0.00  0.00    -0.089 HD
ENDBRANCH  17  18
ENDBRANCH  13  17
ENDBRANCH   8  11
ENDBRANCH   3   5
BRANCH   2  22
ATOM     22  C   UNL     1      32.032 -23.854 -16.628  0.00  0.00    +0.083 C 
ATOM     23  C   UNL     1      30.527 -23.702 -16.413  0.00  0.00    +0.022 C 
BRANCH  22  24
ATOM     24  C   UNL     1      32.822 -23.814 -15.300  0.00  0.00    +0.121 C 
BRANCH  24  26
ATOM     25  O   UNL     1      31.732 -21.893 -14.271  0.00  0.00    -0.250 OA
ATOM     26  C   UNL     1      32.046 -23.075 -14.215  0.00  0.00    +0.319 C 
BRANCH  26  27
ATOM     27  O   UNL     1      31.765 -23.929 -13.189  0.00  0.00    -0.444 OA
ATOM     28  C   UNL     1      31.888 -25.321 -13.495  0.00  0.00    +0.256 C 
ENDBRANCH  26  27
ENDBRANCH  24  26
BRANCH  24  29
ATOM     29  C   UNL     1      34.216 -23.179 -15.475  0.00  0.00    +0.039 C 
BRANCH  29  30
ATOM     30  C   UNL     1      35.315 -23.990 -14.827  0.00  0.00    -0.021 C 
ATOM     31  C   UNL     1      35.911 -23.540 -13.650  0.00  0.00    -0.002 C 
ATOM     32  C   UNL     1      35.734 -25.187 -15.408  0.00  0.00    -0.004 C 
ATOM     33  C   UNL     1      36.927 -24.287 -13.052  0.00  0.00    +0.030 C 
ATOM     34  C   UNL     1      36.750 -25.934 -14.811  0.00  0.00    -0.000 C 
ATOM     35  C   UNL     1      37.346 -25.484 -13.633  0.00  0.00    +0.003 C 
BRANCH  33  38
ATOM     36  N   UNL     1      36.869 -23.841 -10.610  0.00  0.00    -0.343 N 
ATOM     37  N   UNL     1      38.787 -23.353 -11.851  0.00  0.00    -0.285 NA
ATOM     38  C   UNL     1      37.550 -23.817 -11.826  0.00  0.00    +0.117 C 
ATOM     39  H   UNL     1      37.309 -23.518  -9.792  0.00  0.00    +0.144 HD
ATOM     40  H   UNL     1      35.944 -24.180 -10.570  0.00  0.00    +0.144 HD
ATOM     41  H   UNL     1      39.211 -23.035 -11.022  0.00  0.00    +0.188 HD
ENDBRANCH  33  38
ENDBRANCH  29  30
ENDBRANCH  24  29
ENDBRANCH  22  24
ENDBRANCH   2  22
TORSDOF 11
ENDMDL
MODEL 8
REMARK VINA RESULT:     -10.2      9.137     15.282
REMARK  Name = 5497056
REMARK  11 active torsions:
REMARK  status: ('A' for Active; 'I' for Inactive)
REMARK    1  A    between atoms: N_2  and  C_22
REMARK    2  A    between atoms: C_3  and  C_5
REMARK    3  A    between atoms: C_8  and  C_11
REMARK    4  A    between atoms: C_13  and  C_17
REMARK    5  A    between atoms: C_17  and  N_18
REMARK    6  A    between atoms: C_22  and  C_24
REMARK    7  A    between atoms: C_24  and  C_26
REMARK    8  A    between atoms: C_24  and  C_29
REMARK    9  A    between atoms: C_26  and  O_27
REMARK   10  A    between atoms: C_29  and  C_30
REMARK   11  A    between atoms: C_33  and  C_38
REMARK                            x       y       z     vdW  Elec       q    Type
REMARK                         _______ _______ _______ _____ _____    ______ ____
ROOT
ATOM      1  O   UNL     1      34.019 -11.249 -25.962  0.00  0.00    -0.270 OA
ATOM      2  N   UNL     1      33.653 -10.929 -23.694  0.00  0.00    -0.302 N 
ATOM      3  C   UNL     1      33.965 -11.684 -24.815  0.00  0.00    +0.246 C 
ATOM      4  H   UNL     1      33.635 -11.372 -22.815  0.00  0.00    +0.150 HD
ENDROOT
BRANCH   3   5
ATOM      5  C   UNL     1      34.222 -13.127 -24.574  0.00  0.00    +0.053 C 
ATOM      6  C   UNL     1      33.992 -14.055 -25.590  0.00  0.00    +0.005 C 
ATOM      7  C   UNL     1      34.692 -13.555 -23.332  0.00  0.00    +0.005 C 
ATOM      8  C   UNL     1      34.704 -15.838 -24.122  0.00  0.00    -0.000 C 
ATOM      9  C   UNL     1      34.233 -15.411 -25.364  0.00  0.00    +0.000 C 
ATOM     10  C   UNL     1      34.934 -14.910 -23.107  0.00  0.00    +0.000 C 
BRANCH   8  11
ATOM     11  C   UNL     1      34.955 -17.244 -23.890  0.00  0.00    -0.000 C 
ATOM     12  C   UNL     1      35.517 -17.662 -22.684  0.00  0.00    -0.006 C 
ATOM     13  C   UNL     1      35.758 -19.018 -22.461  0.00  0.00    -0.044 C 
ATOM     14  C   UNL     1      34.633 -18.180 -24.873  0.00  0.00    -0.000 C 
ATOM     15  C   UNL     1      35.437 -19.955 -23.444  0.00  0.00    -0.006 C 
ATOM     16  C   UNL     1      34.874 -19.536 -24.649  0.00  0.00    -0.000 C 
BRANCH  13  17
ATOM     17  C   UNL     1      36.358 -19.466 -21.171  0.00  0.00    -0.059 C 
BRANCH  17  18
ATOM     18  N   UNL     1      37.594 -18.750 -20.853  0.00  0.00    +0.383 N 
ATOM     19  H   UNL     1      37.996 -19.131 -19.996  0.00  0.00    -0.089 HD
ATOM     20  H   UNL     1      37.390 -17.760 -20.722  0.00  0.00    -0.089 HD
ATOM     21  H   UNL     1      38.258 -18.862 -21.619  0.00  0.00    -0.089 HD
ENDBRANCH  17  18
ENDBRANCH  13  17
ENDBRANCH   8  11
ENDBRANCH   3   5
BRANCH   2  22
ATOM     22  C   UNL     1      33.354  -9.518 -23.769  0.00  0.00    +0.083 C 
ATOM     23  C   UNL     1      34.644  -8.703 -23.702  0.00  0.00    +0.022 C 
BRANCH  22  24
ATOM     24  C   UNL     1      32.323  -9.073 -22.708  0.00  0.00    +0.121 C 
BRANCH  24  26
ATOM     25  O   UNL     1      30.937 -11.032 -22.279  0.00  0.00    -0.250 OA
ATOM     26  C   UNL     1      31.810 -10.261 -21.900  0.00  0.00    +0.319 C 
BRANCH  26  27
ATOM     27  O   UNL     1      32.469 -10.325 -20.707  0.00  0.00    -0.444 OA
ATOM     28  C   UNL     1      31.665 -10.093 -19.546  0.00  0.00    +0.256 C 
ENDBRANCH  26  27
ENDBRANCH  24  26
BRANCH  24  29
ATOM     29  C   UNL     1      31.137  -8.314 -23.336  0.00  0.00    +0.039 C 
BRANCH  29  30
ATOM     30  C   UNL     1      31.377  -6.825 -23.429  0.00  0.00    -0.021 C 
ATOM     31  C   UNL     1      32.071  -6.297 -24.516  0.00  0.00    -0.002 C 
ATOM     32  C   UNL     1      30.906  -5.979 -22.425  0.00  0.00    -0.004 C 
ATOM     33  C   UNL     1      32.295  -4.923 -24.602  0.00  0.00    +0.030 C 
ATOM     34  C   UNL     1      31.130  -4.604 -22.509  0.00  0.00    -0.000 C 
ATOM     35  C   UNL     1      31.824  -4.076 -23.597  0.00  0.00    +0.003 C 
BRANCH  33  38
ATOM     36  N   UNL     1      33.622  -5.198 -26.682  0.00  0.00    -0.343 N 
ATOM     37  N   UNL     1      33.121  -3.062 -25.878  0.00  0.00    -0.285 NA
ATOM     38  C   UNL     1      33.020  -4.371 -25.734  0.00  0.00    +0.117 C 
ATOM     39  H   UNL     1      34.109  -4.804 -27.441  0.00  0.00    +0.144 HD
ATOM     40  H   UNL     1      33.561  -6.177 -26.591  0.00  0.00    +0.144 HD
ATOM     41  H   UNL     1      33.612  -2.687 -26.644  0.00  0.00    +0.188 HD
ENDBRANCH  33  38
ENDBRANCH  29  30
ENDBRANCH  24  29
ENDBRANCH  22  24
ENDBRANCH   2  22
TORSDOF 11
ENDMDL
MODEL 9
REMARK VINA RESULT:     -10.0     10.142     16.236
REMARK  Name = 5497056
REMARK  11 active torsions:
REMARK  status: ('A' for Active; 'I' for Inactive)
REMARK    1  A    between atoms: N_2  and  C_22
REMARK    2  A    between atoms: C_3  and  C_5
REMARK    3  A    between atoms: C_8  and  C_11
REMARK    4  A    between atoms: C_13  and  C_17
REMARK    5  A    between atoms: C_17  and  N_18
REMARK    6  A    between atoms: C_22  and  C_24
REMARK    7  A    between atoms: C_24  and  C_26
REMARK    8  A    between atoms: C_24  and  C_29
REMARK    9  A    between atoms: C_26  and  O_27
REMARK   10  A    between atoms: C_29  and  C_30
REMARK   11  A    between atoms: C_33  and  C_38
REMARK                            x       y       z     vdW  Elec       q    Type
REMARK                         _______ _______ _______ _____ _____    ______ ____
ROOT
ATOM      1  O   UNL     1      34.008  -9.124 -24.052  0.00  0.00    -0.270 OA
ATOM      2  N   UNL     1      32.059  -9.705 -22.939  0.00  0.00    -0.302 N 
ATOM      3  C   UNL     1      33.251  -9.975 -23.594  0.00  0.00    +0.246 C 
ATOM      4  H   UNL     1      31.520 -10.460 -22.607  0.00  0.00    +0.150 HD
ENDROOT
BRANCH   3   5
ATOM      5  C   UNL     1      33.590 -11.412 -23.757  0.00  0.00    +0.053 C 
ATOM      6  C   UNL     1      33.242 -12.328 -22.764  0.00  0.00    +0.005 C 
ATOM      7  C   UNL     1      34.257 -11.847 -24.903  0.00  0.00    +0.005 C 
ATOM      8  C   UNL     1      34.227 -14.112 -24.062  0.00  0.00    -0.000 C 
ATOM      9  C   UNL     1      33.561 -13.677 -22.917  0.00  0.00    +0.000 C 
ATOM     10  C   UNL     1      34.575 -13.196 -25.055  0.00  0.00    +0.000 C 
BRANCH   8  11
ATOM     11  C   UNL     1      34.555 -15.512 -24.220  0.00  0.00    -0.000 C 
ATOM     12  C   UNL     1      35.253 -16.182 -23.216  0.00  0.00    -0.006 C 
ATOM     13  C   UNL     1      35.569 -17.532 -23.368  0.00  0.00    -0.044 C 
ATOM     14  C   UNL     1      34.173 -16.191 -25.377  0.00  0.00    -0.000 C 
ATOM     15  C   UNL     1      35.188 -18.211 -24.526  0.00  0.00    -0.006 C 
ATOM     16  C   UNL     1      34.489 -17.541 -25.530  0.00  0.00    -0.000 C 
BRANCH  13  17
ATOM     17  C   UNL     1      36.314 -18.249 -22.294  0.00  0.00    -0.059 C 
BRANCH  17  18
ATOM     18  N   UNL     1      37.688 -18.569 -22.686  0.00  0.00    +0.383 N 
ATOM     19  H   UNL     1      37.689 -18.984 -23.617  0.00  0.00    -0.089 HD
ATOM     20  H   UNL     1      38.088 -19.229 -22.019  0.00  0.00    -0.089 HD
ATOM     21  H   UNL     1      38.246 -17.714 -22.693  0.00  0.00    -0.089 HD
ENDBRANCH  17  18
ENDBRANCH  13  17
ENDBRANCH   8  11
ENDBRANCH   3   5
BRANCH   2  22
ATOM     22  C   UNL     1      31.580  -8.360 -22.725  0.00  0.00    +0.083 C 
ATOM     23  C   UNL     1      30.981  -7.804 -24.016  0.00  0.00    +0.022 C 
BRANCH  22  24
ATOM     24  C   UNL     1      32.663  -7.431 -22.132  0.00  0.00    +0.121 C 
BRANCH  24  26
ATOM     25  O   UNL     1      33.561  -6.991 -19.909  0.00  0.00    -0.250 OA
ATOM     26  C   UNL     1      32.789  -7.618 -20.624  0.00  0.00    +0.319 C 
BRANCH  26  27
ATOM     27  O   UNL     1      31.920  -8.584 -20.206  0.00  0.00    -0.444 OA
ATOM     28  C   UNL     1      32.506  -9.666 -19.476  0.00  0.00    +0.256 C 
ENDBRANCH  26  27
ENDBRANCH  24  26
BRANCH  24  29
ATOM     29  C   UNL     1      32.393  -5.947 -22.456  0.00  0.00    +0.039 C 
BRANCH  29  30
ATOM     30  C   UNL     1      33.068  -5.494 -23.730  0.00  0.00    -0.021 C 
ATOM     31  C   UNL     1      32.499  -4.479 -24.498  0.00  0.00    -0.002 C 
ATOM     32  C   UNL     1      34.260  -6.092 -24.139  0.00  0.00    -0.004 C 
ATOM     33  C   UNL     1      33.121  -4.061 -25.674  0.00  0.00    +0.030 C 
ATOM     34  C   UNL     1      34.882  -5.675 -25.316  0.00  0.00    -0.000 C 
ATOM     35  C   UNL     1      34.313  -4.659 -26.084  0.00  0.00    +0.003 C 
BRANCH  33  38
ATOM     36  N   UNL     1      31.483  -2.220 -25.985  0.00  0.00    -0.343 N 
ATOM     37  N   UNL     1      32.974  -2.773 -27.698  0.00  0.00    -0.285 NA
ATOM     38  C   UNL     1      32.527  -3.003 -26.476  0.00  0.00    +0.117 C 
ATOM     39  H   UNL     1      31.095  -1.510 -26.546  0.00  0.00    +0.144 HD
ATOM     40  H   UNL     1      31.133  -2.378 -25.078  0.00  0.00    +0.144 HD
ATOM     41  H   UNL     1      32.573  -2.057 -28.242  0.00  0.00    +0.188 HD
ENDBRANCH  33  38
ENDBRANCH  29  30
ENDBRANCH  24  29
ENDBRANCH  22  24
ENDBRANCH   2  22
TORSDOF 11
ENDMDL
