MODEL 1
REMARK VINA RESULT:     -12.0      0.000      0.000
REMARK  Name = 12136798
REMARK  7 active torsions:
REMARK  status: ('A' for Active; 'I' for Inactive)
REMARK    1  A    between atoms: C_1  and  C_21
REMARK    2  A    between atoms: C_2  and  C_9
REMARK    3  A    between atoms: N_8  and  C_12
REMARK    4  A    between atoms: C_13  and  N_18
REMARK    5  A    between atoms: C_21  and  N_23
REMARK    6  A    between atoms: C_24  and  C_26
REMARK    7  A    between atoms: C_27  and  C_29
REMARK                            x       y       z     vdW  Elec       q    Type
REMARK                         _______ _______ _______ _____ _____    ______ ____
ROOT
ATOM      1  C   UNL     1      35.382 -19.866 -21.088  0.00  0.00    -0.003 C 
ATOM      2  C   UNL     1      34.385 -21.892 -19.467  0.00  0.00    +0.054 C 
ATOM      3  C   UNL     1      36.260 -20.662 -20.363  0.00  0.00    -0.002 C 
ATOM      4  C   UNL     1      34.009 -20.072 -21.011  0.00  0.00    -0.002 C 
ATOM      5  C   UNL     1      35.761 -21.680 -19.550  0.00  0.00    +0.004 C 
ATOM      6  C   UNL     1      33.509 -21.089 -20.198  0.00  0.00    +0.004 C 
ENDROOT
BRANCH   2   9
ATOM      7  O   UNL     1      33.921 -24.127 -19.014  0.00  0.00    -0.270 OA
ATOM      8  N   UNL     1      33.348 -22.544 -17.380  0.00  0.00    -0.279 N 
ATOM      9  C   UNL     1      33.863 -22.952 -18.618  0.00  0.00    +0.250 C 
ATOM     10  H   UNL     1      33.369 -21.575 -17.205  0.00  0.00    +0.155 HD
BRANCH   8  12
ATOM     11  F   UNL     1      31.281 -25.677 -13.322  0.00  0.00    -0.204 F 
ATOM     12  C   UNL     1      32.800 -23.343 -16.346  0.00  0.00    +0.064 C 
ATOM     13  C   UNL     1      31.427 -23.481 -16.221  0.00  0.00    +0.057 C 
ATOM     14  C   UNL     1      33.671 -23.974 -15.472  0.00  0.00    +0.018 C 
ATOM     15  C   UNL     1      30.912 -24.273 -15.194  0.00  0.00    +0.045 C 
ATOM     16  C   UNL     1      33.155 -24.766 -14.447  0.00  0.00    +0.031 C 
ATOM     17  C   UNL     1      31.776 -24.915 -14.307  0.00  0.00    +0.141 C 
BRANCH  13  18
ATOM     18  N   UNL     1      30.534 -22.841 -17.107  0.00  0.00    -0.356 N 
ATOM     19  H   UNL     1      30.863 -22.142 -17.718  0.00  0.00    +0.142 HD
ATOM     20  H   UNL     1      29.582 -23.093 -17.116  0.00  0.00    +0.142 HD
ENDBRANCH  13  18
ENDBRANCH   8  12
ENDBRANCH   2   9
BRANCH   1  21
ATOM     21  C   UNL     1      35.919 -18.772 -21.964  0.00  0.00    +0.117 C 
BRANCH  21  23
ATOM     22  O   UNL     1      35.644 -16.439 -23.660  0.00  0.00    -0.270 OA
ATOM     23  N   UNL     1      35.396 -17.476 -21.594  0.00  0.00    -0.297 N 
ATOM     24  C   UNL     1      35.304 -16.417 -22.481  0.00  0.00    +0.246 C 
ATOM     25  H   UNL     1      35.091 -17.340 -20.668  0.00  0.00    +0.150 HD
BRANCH  24  26
ATOM     26  C   UNL     1      34.730 -15.202 -21.836  0.00  0.00    +0.058 C 
ATOM     27  C   UNL     1      33.721 -14.544 -22.425  0.00  0.00    +0.006 C 
BRANCH  27  29
ATOM     28  N   UNL     1      32.257 -11.114 -22.229  0.00  0.00    -0.242 NA
ATOM     29  C   UNL     1      33.071 -13.342 -21.873  0.00  0.00    +0.019 C 
ATOM     30  C   UNL     1      32.682 -13.308 -20.550  0.00  0.00    +0.003 C 
ATOM     31  C   UNL     1      32.848 -12.247 -22.672  0.00  0.00    +0.099 C 
ATOM     32  C   UNL     1      32.072 -12.159 -20.057  0.00  0.00    +0.021 C 
ATOM     33  C   UNL     1      31.884 -11.100 -20.929  0.00  0.00    +0.099 C 
ENDBRANCH  27  29
ENDBRANCH  24  26
ENDBRANCH  21  23
ENDBRANCH   1  21
TORSDOF 7
ENDMDL
MODEL 2
REMARK VINA RESULT:     -11.8      0.590      1.566
REMARK  Name = 12136798
REMARK  7 active torsions:
REMARK  status: ('A' for Active; 'I' for Inactive)
REMARK    1  A    between atoms: C_1  and  C_21
REMARK    2  A    between atoms: C_2  and  C_9
REMARK    3  A    between atoms: N_8  and  C_12
REMARK    4  A    between atoms: C_13  and  N_18
REMARK    5  A    between atoms: C_21  and  N_23
REMARK    6  A    between atoms: C_24  and  C_26
REMARK    7  A    between atoms: C_27  and  C_29
REMARK                            x       y       z     vdW  Elec       q    Type
REMARK                         _______ _______ _______ _____ _____    ______ ____
ROOT
ATOM      1  C   UNL     1      35.443 -19.941 -21.013  0.00  0.00    -0.003 C 
ATOM      2  C   UNL     1      34.425 -21.948 -19.381  0.00  0.00    +0.054 C 
ATOM      3  C   UNL     1      34.070 -20.150 -20.954  0.00  0.00    -0.002 C 
ATOM      4  C   UNL     1      36.312 -20.725 -20.264  0.00  0.00    -0.002 C 
ATOM      5  C   UNL     1      33.559 -21.157 -20.135  0.00  0.00    +0.004 C 
ATOM      6  C   UNL     1      35.802 -21.732 -19.445  0.00  0.00    +0.004 C 
ENDROOT
BRANCH   2   9
ATOM      7  O   UNL     1      33.890 -24.169 -18.943  0.00  0.00    -0.270 OA
ATOM      8  N   UNL     1      33.440 -22.591 -17.266  0.00  0.00    -0.279 N 
ATOM      9  C   UNL     1      33.893 -22.999 -18.527  0.00  0.00    +0.250 C 
ATOM     10  H   UNL     1      33.507 -21.627 -17.078  0.00  0.00    +0.155 HD
BRANCH   8  12
ATOM     11  F   UNL     1      31.264 -25.691 -13.240  0.00  0.00    -0.204 F 
ATOM     12  C   UNL     1      32.899 -23.384 -16.224  0.00  0.00    +0.064 C 
ATOM     13  C   UNL     1      33.666 -23.702 -15.115  0.00  0.00    +0.057 C 
ATOM     14  C   UNL     1      31.593 -23.830 -16.349  0.00  0.00    +0.018 C 
ATOM     15  C   UNL     1      33.111 -24.484 -14.102  0.00  0.00    +0.045 C 
ATOM     16  C   UNL     1      31.039 -24.612 -15.336  0.00  0.00    +0.031 C 
ATOM     17  C   UNL     1      31.797 -24.940 -14.213  0.00  0.00    +0.141 C 
BRANCH  13  18
ATOM     18  N   UNL     1      34.998 -23.251 -14.981  0.00  0.00    -0.356 N 
ATOM     19  H   UNL     1      35.264 -22.384 -15.363  0.00  0.00    +0.142 HD
ATOM     20  H   UNL     1      35.660 -23.804 -14.506  0.00  0.00    +0.142 HD
ENDBRANCH  13  18
ENDBRANCH   8  12
ENDBRANCH   2   9
BRANCH   1  21
ATOM     21  C   UNL     1      35.993 -18.857 -21.894  0.00  0.00    +0.117 C 
BRANCH  21  23
ATOM     22  O   UNL     1      35.690 -16.569 -23.645  0.00  0.00    -0.270 OA
ATOM     23  N   UNL     1      35.457 -17.558 -21.554  0.00  0.00    -0.297 N 
ATOM     24  C   UNL     1      35.352 -16.522 -22.467  0.00  0.00    +0.246 C 
ATOM     25  H   UNL     1      35.152 -17.403 -20.631  0.00  0.00    +0.150 HD
BRANCH  24  26
ATOM     26  C   UNL     1      34.766 -15.298 -21.850  0.00  0.00    +0.058 C 
ATOM     27  C   UNL     1      33.802 -14.621 -22.491  0.00  0.00    +0.006 C 
BRANCH  27  29
ATOM     28  N   UNL     1      32.337 -11.187 -22.382  0.00  0.00    -0.242 NA
ATOM     29  C   UNL     1      33.146 -13.407 -21.972  0.00  0.00    +0.019 C 
ATOM     30  C   UNL     1      32.740 -13.347 -20.655  0.00  0.00    +0.003 C 
ATOM     31  C   UNL     1      32.934 -12.329 -22.795  0.00  0.00    +0.099 C 
ATOM     32  C   UNL     1      32.123 -12.190 -20.193  0.00  0.00    +0.021 C 
ATOM     33  C   UNL     1      31.947 -11.148 -21.088  0.00  0.00    +0.099 C 
ENDBRANCH  27  29
ENDBRANCH  24  26
ENDBRANCH  21  23
ENDBRANCH   1  21
TORSDOF 7
ENDMDL
MODEL 3
REMARK VINA RESULT:     -11.5      5.045     12.356
REMARK  Name = 12136798
REMARK  7 active torsions:
REMARK  status: ('A' for Active; 'I' for Inactive)
REMARK    1  A    between atoms: C_1  and  C_21
REMARK    2  A    between atoms: C_2  and  C_9
REMARK    3  A    between atoms: N_8  and  C_12
REMARK    4  A    between atoms: C_13  and  N_18
REMARK    5  A    between atoms: C_21  and  N_23
REMARK    6  A    between atoms: C_24  and  C_26
REMARK    7  A    between atoms: C_27  and  C_29
REMARK                            x       y       z     vdW  Elec       q    Type
REMARK                         _______ _______ _______ _____ _____    ______ ____
ROOT
ATOM      1  C   UNL     1      34.519 -14.304 -23.459  0.00  0.00    -0.003 C 
ATOM      2  C   UNL     1      32.990 -12.100 -22.729  0.00  0.00    +0.054 C 
ATOM      3  C   UNL     1      34.493 -13.182 -24.280  0.00  0.00    -0.002 C 
ATOM      4  C   UNL     1      33.788 -14.336 -22.278  0.00  0.00    -0.002 C 
ATOM      5  C   UNL     1      33.726 -12.076 -23.914  0.00  0.00    +0.004 C 
ATOM      6  C   UNL     1      33.020 -13.230 -21.911  0.00  0.00    +0.004 C 
ENDROOT
BRANCH   2   9
ATOM      7  O   UNL     1      31.141 -11.127 -21.706  0.00  0.00    -0.270 OA
ATOM      8  N   UNL     1      32.697  -9.698 -22.727  0.00  0.00    -0.279 N 
ATOM      9  C   UNL     1      32.188 -10.948 -22.348  0.00  0.00    +0.250 C 
ATOM     10  H   UNL     1      33.541  -9.715 -23.233  0.00  0.00    +0.155 HD
BRANCH   8  12
ATOM     11  F   UNL     1      30.548  -4.687 -21.822  0.00  0.00    -0.204 F 
ATOM     12  C   UNL     1      32.155  -8.413 -22.477  0.00  0.00    +0.064 C 
ATOM     13  C   UNL     1      32.413  -7.764 -21.282  0.00  0.00    +0.057 C 
ATOM     14  C   UNL     1      31.364  -7.832 -23.456  0.00  0.00    +0.018 C 
ATOM     15  C   UNL     1      31.868  -6.499 -21.059  0.00  0.00    +0.045 C 
ATOM     16  C   UNL     1      30.819  -6.568 -23.234  0.00  0.00    +0.031 C 
ATOM     17  C   UNL     1      31.071  -5.901 -22.035  0.00  0.00    +0.141 C 
BRANCH  13  18
ATOM     18  N   UNL     1      33.218  -8.349 -20.280  0.00  0.00    -0.356 N 
ATOM     19  H   UNL     1      33.008  -9.251 -19.944  0.00  0.00    +0.142 HD
ATOM     20  H   UNL     1      33.990  -7.857 -19.916  0.00  0.00    +0.142 HD
ENDBRANCH  13  18
ENDBRANCH   8  12
ENDBRANCH   2   9
BRANCH   1  21
ATOM     21  C   UNL     1      35.345 -15.494 -23.853  0.00  0.00    +0.117 C 
BRANCH  21  23
ATOM     22  O   UNL     1      35.416 -18.364 -24.248  0.00  0.00    -0.270 OA
ATOM     23  N   UNL     1      35.336 -16.520 -22.834  0.00  0.00    -0.297 N 
ATOM     24  C   UNL     1      35.373 -17.874 -23.124  0.00  0.00    +0.246 C 
ATOM     25  H   UNL     1      35.303 -16.243 -21.890  0.00  0.00    +0.150 HD
BRANCH  24  26
ATOM     26  C   UNL     1      35.354 -18.705 -21.887  0.00  0.00    +0.058 C 
ATOM     27  C   UNL     1      34.659 -19.852 -21.863  0.00  0.00    +0.006 C 
BRANCH  27  29
ATOM     28  N   UNL     1      33.218 -22.058 -19.216  0.00  0.00    -0.242 NA
ATOM     29  C   UNL     1      34.578 -20.756 -20.702  0.00  0.00    +0.019 C 
ATOM     30  C   UNL     1      35.725 -21.139 -20.038  0.00  0.00    +0.003 C 
ATOM     31  C   UNL     1      33.361 -21.226 -20.273  0.00  0.00    +0.099 C 
ATOM     32  C   UNL     1      35.619 -21.993 -18.946  0.00  0.00    +0.021 C 
ATOM     33  C   UNL     1      34.354 -22.420 -18.579  0.00  0.00    +0.099 C 
ENDBRANCH  27  29
ENDBRANCH  24  26
ENDBRANCH  21  23
ENDBRANCH   1  21
TORSDOF 7
ENDMDL
MODEL 4
REMARK VINA RESULT:     -11.3      1.990      2.838
REMARK  Name = 12136798
REMARK  7 active torsions:
REMARK  status: ('A' for Active; 'I' for Inactive)
REMARK    1  A    between atoms: C_1  and  C_21
REMARK    2  A    between atoms: C_2  and  C_9
REMARK    3  A    between atoms: N_8  and  C_12
REMARK    4  A    between atoms: C_13  and  N_18
REMARK    5  A    between atoms: C_21  and  N_23
REMARK    6  A    between atoms: C_24  and  C_26
REMARK    7  A    between atoms: C_27  and  C_29
REMARK                            x       y       z     vdW  Elec       q    Type
REMARK                         _______ _______ _______ _____ _____    ______ ____
ROOT
ATOM      1  C   UNL     1      35.576 -19.366 -21.469  0.00  0.00    -0.003 C 
ATOM      2  C   UNL     1      35.327 -21.408 -19.599  0.00  0.00    +0.054 C 
ATOM      3  C   UNL     1      34.322 -19.899 -21.195  0.00  0.00    -0.002 C 
ATOM      4  C   UNL     1      36.707 -19.844 -20.818  0.00  0.00    -0.002 C 
ATOM      5  C   UNL     1      34.196 -20.923 -20.256  0.00  0.00    +0.004 C 
ATOM      6  C   UNL     1      36.582 -20.869 -19.879  0.00  0.00    +0.004 C 
ENDROOT
BRANCH   2   9
ATOM      7  O   UNL     1      34.517 -23.476 -18.908  0.00  0.00    -0.270 OA
ATOM      8  N   UNL     1      35.891 -22.293 -17.418  0.00  0.00    -0.279 N 
ATOM      9  C   UNL     1      35.197 -22.478 -18.622  0.00  0.00    +0.250 C 
ATOM     10  H   UNL     1      36.388 -21.447 -17.336  0.00  0.00    +0.155 HD
BRANCH   8  12
ATOM     11  F   UNL     1      36.123 -25.691 -13.065  0.00  0.00    -0.204 F 
ATOM     12  C   UNL     1      35.970 -23.164 -16.303  0.00  0.00    +0.064 C 
ATOM     13  C   UNL     1      37.202 -23.575 -15.822  0.00  0.00    +0.057 C 
ATOM     14  C   UNL     1      34.788 -23.588 -15.716  0.00  0.00    +0.018 C 
ATOM     15  C   UNL     1      37.254 -24.433 -14.723  0.00  0.00    +0.045 C 
ATOM     16  C   UNL     1      34.841 -24.445 -14.618  0.00  0.00    +0.031 C 
ATOM     17  C   UNL     1      36.073 -24.868 -14.121  0.00  0.00    +0.141 C 
BRANCH  13  18
ATOM     18  N   UNL     1      38.410 -23.147 -16.416  0.00  0.00    -0.356 N 
ATOM     19  H   UNL     1      38.478 -22.241 -16.793  0.00  0.00    +0.142 HD
ATOM     20  H   UNL     1      39.184 -23.754 -16.451  0.00  0.00    +0.142 HD
ENDBRANCH  13  18
ENDBRANCH   8  12
ENDBRANCH   2   9
BRANCH   1  21
ATOM     21  C   UNL     1      35.712 -18.263 -22.478  0.00  0.00    +0.117 C 
BRANCH  21  23
ATOM     22  O   UNL     1      35.660 -15.716 -23.857  0.00  0.00    -0.270 OA
ATOM     23  N   UNL     1      35.184 -17.010 -21.986  0.00  0.00    -0.297 N 
ATOM     24  C   UNL     1      35.205 -15.839 -22.725  0.00  0.00    +0.246 C 
ATOM     25  H   UNL     1      34.792 -16.989 -21.083  0.00  0.00    +0.150 HD
BRANCH  24  26
ATOM     26  C   UNL     1      34.598 -14.702 -21.976  0.00  0.00    +0.058 C 
ATOM     27  C   UNL     1      33.447 -14.160 -22.400  0.00  0.00    +0.006 C 
BRANCH  27  29
ATOM     28  N   UNL     1      31.656 -10.918 -21.919  0.00  0.00    -0.242 NA
ATOM     29  C   UNL     1      32.753 -13.043 -21.734  0.00  0.00    +0.019 C 
ATOM     30  C   UNL     1      32.555 -13.064 -20.370  0.00  0.00    +0.003 C 
ATOM     31  C   UNL     1      32.299 -11.974 -22.468  0.00  0.00    +0.099 C 
ATOM     32  C   UNL     1      31.898 -11.996 -19.768  0.00  0.00    +0.021 C 
ATOM     33  C   UNL     1      31.472 -10.957 -20.580  0.00  0.00    +0.099 C 
ENDBRANCH  27  29
ENDBRANCH  24  26
ENDBRANCH  21  23
ENDBRANCH   1  21
TORSDOF 7
ENDMDL
MODEL 5
REMARK VINA RESULT:     -11.2      2.424      3.135
REMARK  Name = 12136798
REMARK  7 active torsions:
REMARK  status: ('A' for Active; 'I' for Inactive)
REMARK    1  A    between atoms: C_1  and  C_21
REMARK    2  A    between atoms: C_2  and  C_9
REMARK    3  A    between atoms: N_8  and  C_12
REMARK    4  A    between atoms: C_13  and  N_18
REMARK    5  A    between atoms: C_21  and  N_23
REMARK    6  A    between atoms: C_24  and  C_26
REMARK    7  A    between atoms: C_27  and  C_29
REMARK                            x       y       z     vdW  Elec       q    Type
REMARK                         _______ _______ _______ _____ _____    ______ ____
ROOT
ATOM      1  C   UNL     1      35.977 -20.311 -20.574  0.00  0.00    -0.003 C 
ATOM      2  C   UNL     1      34.386 -22.128 -19.199  0.00  0.00    +0.054 C 
ATOM      3  C   UNL     1      34.603 -20.319 -20.785  0.00  0.00    -0.002 C 
ATOM      4  C   UNL     1      36.564 -21.202 -19.684  0.00  0.00    -0.002 C 
ATOM      5  C   UNL     1      33.804 -21.231 -20.094  0.00  0.00    +0.004 C 
ATOM      6  C   UNL     1      35.766 -22.114 -18.994  0.00  0.00    +0.004 C 
ENDROOT
BRANCH   2   9
ATOM      7  O   UNL     1      33.698 -24.294 -18.700  0.00  0.00    -0.270 OA
ATOM      8  N   UNL     1      32.654 -22.530 -17.557  0.00  0.00    -0.279 N 
ATOM      9  C   UNL     1      33.554 -23.081 -18.480  0.00  0.00    +0.250 C 
ATOM     10  H   UNL     1      32.654 -21.548 -17.493  0.00  0.00    +0.155 HD
BRANCH   8  12
ATOM     11  F   UNL     1      29.044 -25.126 -14.273  0.00  0.00    -0.204 F 
ATOM     12  C   UNL     1      31.744 -23.203 -16.704  0.00  0.00    +0.064 C 
ATOM     13  C   UNL     1      32.209 -23.973 -15.652  0.00  0.00    +0.057 C 
ATOM     14  C   UNL     1      30.387 -23.069 -16.956  0.00  0.00    +0.018 C 
ATOM     15  C   UNL     1      31.293 -24.625 -14.826  0.00  0.00    +0.045 C 
ATOM     16  C   UNL     1      29.472 -23.721 -16.130  0.00  0.00    +0.031 C 
ATOM     17  C   UNL     1      29.924 -24.500 -15.066  0.00  0.00    +0.141 C 
BRANCH  13  18
ATOM     18  N   UNL     1      33.589 -24.114 -15.390  0.00  0.00    -0.356 N 
ATOM     19  H   UNL     1      33.950 -23.871 -14.506  0.00  0.00    +0.142 HD
ATOM     20  H   UNL     1      34.191 -24.457 -16.090  0.00  0.00    +0.142 HD
ENDBRANCH  13  18
ENDBRANCH   8  12
ENDBRANCH   2   9
BRANCH   1  21
ATOM     21  C   UNL     1      36.837 -19.329 -21.317  0.00  0.00    +0.117 C 
BRANCH  21  23
ATOM     22  O   UNL     1      35.920 -19.997 -23.983  0.00  0.00    -0.270 OA
ATOM     23  N   UNL     1      36.062 -18.498 -22.212  0.00  0.00    -0.297 N 
ATOM     24  C   UNL     1      35.669 -18.909 -23.474  0.00  0.00    +0.246 C 
ATOM     25  H   UNL     1      35.802 -17.598 -21.908  0.00  0.00    +0.150 HD
BRANCH  24  26
ATOM     26  C   UNL     1      34.884 -17.857 -24.179  0.00  0.00    +0.058 C 
ATOM     27  C   UNL     1      35.306 -16.584 -24.164  0.00  0.00    +0.006 C 
BRANCH  27  29
ATOM     28  N   UNL     1      33.410 -14.662 -26.744  0.00  0.00    -0.242 NA
ATOM     29  C   UNL     1      34.616 -15.467 -24.834  0.00  0.00    +0.019 C 
ATOM     30  C   UNL     1      34.527 -14.236 -24.218  0.00  0.00    +0.003 C 
ATOM     31  C   UNL     1      34.056 -15.644 -26.076  0.00  0.00    +0.099 C 
ATOM     32  C   UNL     1      33.871 -13.200 -24.875  0.00  0.00    +0.021 C 
ATOM     33  C   UNL     1      33.334 -13.463 -26.124  0.00  0.00    +0.099 C 
ENDBRANCH  27  29
ENDBRANCH  24  26
ENDBRANCH  21  23
ENDBRANCH   1  21
TORSDOF 7
ENDMDL
MODEL 6
REMARK VINA RESULT:     -11.1      5.051     12.127
REMARK  Name = 12136798
REMARK  7 active torsions:
REMARK  status: ('A' for Active; 'I' for Inactive)
REMARK    1  A    between atoms: C_1  and  C_21
REMARK    2  A    between atoms: C_2  and  C_9
REMARK    3  A    between atoms: N_8  and  C_12
REMARK    4  A    between atoms: C_13  and  N_18
REMARK    5  A    between atoms: C_21  and  N_23
REMARK    6  A    between atoms: C_24  and  C_26
REMARK    7  A    between atoms: C_27  and  C_29
REMARK                            x       y       z     vdW  Elec       q    Type
REMARK                         _______ _______ _______ _____ _____    ______ ____
ROOT
ATOM      1  C   UNL     1      34.567 -15.863 -24.694  0.00  0.00    -0.003 C 
ATOM      2  C   UNL     1      33.751 -13.376 -23.759  0.00  0.00    +0.054 C 
ATOM      3  C   UNL     1      34.898 -15.471 -23.403  0.00  0.00    -0.002 C 
ATOM      4  C   UNL     1      33.833 -15.024 -25.524  0.00  0.00    -0.002 C 
ATOM      5  C   UNL     1      34.488 -14.224 -22.933  0.00  0.00    +0.004 C 
ATOM      6  C   UNL     1      33.423 -13.775 -25.055  0.00  0.00    +0.004 C 
ENDROOT
BRANCH   2   9
ATOM      7  O   UNL     1      32.634 -12.012 -22.242  0.00  0.00    -0.270 OA
ATOM      8  N   UNL     1      33.767 -10.969 -24.012  0.00  0.00    -0.279 N 
ATOM      9  C   UNL     1      33.325 -12.073 -23.271  0.00  0.00    +0.250 C 
ATOM     10  H   UNL     1      34.310 -11.176 -24.807  0.00  0.00    +0.155 HD
BRANCH   8  12
ATOM     11  F   UNL     1      32.788  -5.617 -23.036  0.00  0.00    -0.204 F 
ATOM     12  C   UNL     1      33.535  -9.593 -23.767  0.00  0.00    +0.064 C 
ATOM     13  C   UNL     1      34.541  -8.665 -23.975  0.00  0.00    +0.057 C 
ATOM     14  C   UNL     1      32.281  -9.209 -23.317  0.00  0.00    +0.018 C 
ATOM     15  C   UNL     1      34.288  -7.315 -23.727  0.00  0.00    +0.045 C 
ATOM     16  C   UNL     1      32.029  -7.860 -23.070  0.00  0.00    +0.031 C 
ATOM     17  C   UNL     1      33.032  -6.913 -23.274  0.00  0.00    +0.141 C 
BRANCH  13  18
ATOM     18  N   UNL     1      35.821  -9.049 -24.433  0.00  0.00    -0.356 N 
ATOM     19  H   UNL     1      36.437  -8.372 -24.795  0.00  0.00    +0.142 HD
ATOM     20  H   UNL     1      36.097  -9.993 -24.389  0.00  0.00    +0.142 HD
ENDBRANCH  13  18
ENDBRANCH   8  12
ENDBRANCH   2   9
BRANCH   1  21
ATOM     21  C   UNL     1      35.007 -17.206 -25.200  0.00  0.00    +0.117 C 
BRANCH  21  23
ATOM     22  O   UNL     1      36.809 -18.424 -23.286  0.00  0.00    -0.270 OA
ATOM     23  N   UNL     1      34.705 -18.264 -24.262  0.00  0.00    -0.297 N 
ATOM     24  C   UNL     1      35.640 -18.783 -23.381  0.00  0.00    +0.246 C 
ATOM     25  H   UNL     1      33.792 -18.633 -24.248  0.00  0.00    +0.150 HD
BRANCH  24  26
ATOM     26  C   UNL     1      35.061 -19.861 -22.531  0.00  0.00    +0.058 C 
ATOM     27  C   UNL     1      35.344 -19.905 -21.221  0.00  0.00    +0.006 C 
BRANCH  27  29
ATOM     28  N   UNL     1      32.922 -22.056 -19.361  0.00  0.00    -0.242 NA
ATOM     29  C   UNL     1      34.819 -20.916 -20.286  0.00  0.00    +0.019 C 
ATOM     30  C   UNL     1      35.683 -21.644 -19.494  0.00  0.00    +0.003 C 
ATOM     31  C   UNL     1      33.468 -21.143 -20.197  0.00  0.00    +0.099 C 
ATOM     32  C   UNL     1      35.160 -22.592 -18.622  0.00  0.00    +0.021 C 
ATOM     33  C   UNL     1      33.785 -22.758 -18.593  0.00  0.00    +0.099 C 
ENDBRANCH  27  29
ENDBRANCH  24  26
ENDBRANCH  21  23
ENDBRANCH   1  21
TORSDOF 7
ENDMDL
MODEL 7
REMARK VINA RESULT:     -11.0      4.304     10.981
REMARK  Name = 12136798
REMARK  7 active torsions:
REMARK  status: ('A' for Active; 'I' for Inactive)
REMARK    1  A    between atoms: C_1  and  C_21
REMARK    2  A    between atoms: C_2  and  C_9
REMARK    3  A    between atoms: N_8  and  C_12
REMARK    4  A    between atoms: C_13  and  N_18
REMARK    5  A    between atoms: C_21  and  N_23
REMARK    6  A    between atoms: C_24  and  C_26
REMARK    7  A    between atoms: C_27  and  C_29
REMARK                            x       y       z     vdW  Elec       q    Type
REMARK                         _______ _______ _______ _____ _____    ______ ____
ROOT
ATOM      1  C   UNL     1      36.363 -20.417 -20.495  0.00  0.00    -0.003 C 
ATOM      2  C   UNL     1      35.482 -18.835 -22.603  0.00  0.00    +0.054 C 
ATOM      3  C   UNL     1      37.220 -19.478 -21.055  0.00  0.00    -0.002 C 
ATOM      4  C   UNL     1      35.070 -20.574 -20.978  0.00  0.00    -0.002 C 
ATOM      5  C   UNL     1      36.779 -18.683 -22.112  0.00  0.00    +0.004 C 
ATOM      6  C   UNL     1      34.627 -19.780 -22.036  0.00  0.00    +0.004 C 
ENDROOT
BRANCH   2   9
ATOM      7  O   UNL     1      34.666 -18.555 -24.763  0.00  0.00    -0.270 OA
ATOM      8  N   UNL     1      34.995 -16.627 -23.468  0.00  0.00    -0.279 N 
ATOM      9  C   UNL     1      35.022 -18.007 -23.708  0.00  0.00    +0.250 C 
ATOM     10  H   UNL     1      35.309 -16.341 -22.579  0.00  0.00    +0.155 HD
BRANCH   8  12
ATOM     11  F   UNL     1      33.358 -12.627 -26.912  0.00  0.00    -0.204 F 
ATOM     12  C   UNL     1      34.577 -15.588 -24.336  0.00  0.00    +0.064 C 
ATOM     13  C   UNL     1      34.451 -14.292 -23.867  0.00  0.00    +0.057 C 
ATOM     14  C   UNL     1      34.298 -15.908 -25.656  0.00  0.00    +0.018 C 
ATOM     15  C   UNL     1      34.038 -13.286 -24.741  0.00  0.00    +0.045 C 
ATOM     16  C   UNL     1      33.886 -14.903 -26.529  0.00  0.00    +0.031 C 
ATOM     17  C   UNL     1      33.754 -13.592 -26.072  0.00  0.00    +0.141 C 
BRANCH  13  18
ATOM     18  N   UNL     1      34.733 -13.959 -22.524  0.00  0.00    -0.356 N 
ATOM     19  H   UNL     1      35.661 -13.782 -22.245  0.00  0.00    +0.142 HD
ATOM     20  H   UNL     1      34.002 -13.902 -21.866  0.00  0.00    +0.142 HD
ENDBRANCH  13  18
ENDBRANCH   8  12
ENDBRANCH   2   9
BRANCH   1  21
ATOM     21  C   UNL     1      36.838 -21.272 -19.355  0.00  0.00    +0.117 C 
BRANCH  21  23
ATOM     22  O   UNL     1      36.779 -22.341 -16.663  0.00  0.00    -0.270 OA
ATOM     23  N   UNL     1      35.748 -21.975 -18.714  0.00  0.00    -0.297 N 
ATOM     24  C   UNL     1      35.816 -22.450 -17.416  0.00  0.00    +0.246 C 
ATOM     25  H   UNL     1      34.920 -22.121 -19.226  0.00  0.00    +0.150 HD
BRANCH  24  26
ATOM     26  C   UNL     1      34.555 -23.133 -17.010  0.00  0.00    +0.058 C 
ATOM     27  C   UNL     1      34.196 -23.163 -15.718  0.00  0.00    +0.006 C 
BRANCH  27  29
ATOM     28  N   UNL     1      31.896 -25.079 -13.485  0.00  0.00    -0.242 NA
ATOM     29  C   UNL     1      32.968 -23.799 -15.207  0.00  0.00    +0.019 C 
ATOM     30  C   UNL     1      31.794 -23.719 -15.925  0.00  0.00    +0.003 C 
ATOM     31  C   UNL     1      32.986 -24.474 -14.011  0.00  0.00    +0.099 C 
ATOM     32  C   UNL     1      30.652 -24.329 -15.417  0.00  0.00    +0.021 C 
ATOM     33  C   UNL     1      30.754 -24.990 -14.204  0.00  0.00    +0.099 C 
ENDBRANCH  27  29
ENDBRANCH  24  26
ENDBRANCH  21  23
ENDBRANCH   1  21
TORSDOF 7
ENDMDL
MODEL 8
REMARK VINA RESULT:     -10.7      4.118     10.485
REMARK  Name = 12136798
REMARK  7 active torsions:
REMARK  status: ('A' for Active; 'I' for Inactive)
REMARK    1  A    between atoms: C_1  and  C_21
REMARK    2  A    between atoms: C_2  and  C_9
REMARK    3  A    between atoms: N_8  and  C_12
REMARK    4  A    between atoms: C_13  and  N_18
REMARK    5  A    between atoms: C_21  and  N_23
REMARK    6  A    between atoms: C_24  and  C_26
REMARK    7  A    between atoms: C_27  and  C_29
REMARK                            x       y       z     vdW  Elec       q    Type
REMARK                         _______ _______ _______ _____ _____    ______ ____
ROOT
ATOM      1  C   UNL     1      36.385 -20.779 -20.036  0.00  0.00    -0.003 C 
ATOM      2  C   UNL     1      35.478 -19.194 -22.131  0.00  0.00    +0.054 C 
ATOM      3  C   UNL     1      37.247 -19.865 -20.630  0.00  0.00    -0.002 C 
ATOM      4  C   UNL     1      35.075 -20.910 -20.479  0.00  0.00    -0.002 C 
ATOM      5  C   UNL     1      36.792 -19.069 -21.680  0.00  0.00    +0.004 C 
ATOM      6  C   UNL     1      34.619 -20.114 -21.530  0.00  0.00    +0.004 C 
ENDROOT
BRANCH   2   9
ATOM      7  O   UNL     1      34.510 -18.912 -24.227  0.00  0.00    -0.270 OA
ATOM      8  N   UNL     1      35.125 -16.981 -23.045  0.00  0.00    -0.279 N 
ATOM      9  C   UNL     1      35.003 -18.365 -23.228  0.00  0.00    +0.250 C 
ATOM     10  H   UNL     1      35.538 -16.696 -22.198  0.00  0.00    +0.155 HD
BRANCH   8  12
ATOM     11  F   UNL     1      33.592 -12.961 -26.515  0.00  0.00    -0.204 F 
ATOM     12  C   UNL     1      34.733 -15.938 -23.920  0.00  0.00    +0.064 C 
ATOM     13  C   UNL     1      34.542 -14.654 -23.437  0.00  0.00    +0.057 C 
ATOM     14  C   UNL     1      34.545 -16.240 -25.259  0.00  0.00    +0.018 C 
ATOM     15  C   UNL     1      34.155 -13.643 -24.318  0.00  0.00    +0.045 C 
ATOM     16  C   UNL     1      34.159 -15.229 -26.139  0.00  0.00    +0.031 C 
ATOM     17  C   UNL     1      33.963 -13.931 -25.669  0.00  0.00    +0.141 C 
BRANCH  13  18
ATOM     18  N   UNL     1      34.730 -14.339 -22.073  0.00  0.00    -0.356 N 
ATOM     19  H   UNL     1      34.387 -13.489 -21.713  0.00  0.00    +0.142 HD
ATOM     20  H   UNL     1      35.203 -14.969 -21.482  0.00  0.00    +0.142 HD
ENDBRANCH  13  18
ENDBRANCH   8  12
ENDBRANCH   2   9
BRANCH   1  21
ATOM     21  C   UNL     1      36.874 -21.636 -18.904  0.00  0.00    +0.117 C 
BRANCH  21  23
ATOM     22  O   UNL     1      37.087 -23.168 -16.454  0.00  0.00    -0.270 OA
ATOM     23  N   UNL     1      35.799 -22.039 -18.025  0.00  0.00    -0.297 N 
ATOM     24  C   UNL     1      36.002 -22.774 -16.870  0.00  0.00    +0.246 C 
ATOM     25  H   UNL     1      34.879 -21.778 -18.260  0.00  0.00    +0.150 HD
BRANCH  24  26
ATOM     26  C   UNL     1      34.723 -23.050 -16.157  0.00  0.00    +0.058 C 
ATOM     27  C   UNL     1      33.581 -23.161 -16.851  0.00  0.00    +0.006 C 
BRANCH  27  29
ATOM     28  N   UNL     1      29.880 -23.184 -16.344  0.00  0.00    -0.242 NA
ATOM     29  C   UNL     1      32.263 -23.442 -16.252  0.00  0.00    +0.019 C 
ATOM     30  C   UNL     1      32.170 -24.191 -15.098  0.00  0.00    +0.003 C 
ATOM     31  C   UNL     1      31.119 -22.962 -16.841  0.00  0.00    +0.099 C 
ATOM     32  C   UNL     1      30.914 -24.440 -14.556  0.00  0.00    +0.021 C 
ATOM     33  C   UNL     1      29.811 -23.919 -15.211  0.00  0.00    +0.099 C 
ENDBRANCH  27  29
ENDBRANCH  24  26
ENDBRANCH  21  23
ENDBRANCH   1  21
TORSDOF 7
ENDMDL
MODEL 9
REMARK VINA RESULT:     -10.5      3.747     10.592
REMARK  Name = 12136798
REMARK  7 active torsions:
REMARK  status: ('A' for Active; 'I' for Inactive)
REMARK    1  A    between atoms: C_1  and  C_21
REMARK    2  A    between atoms: C_2  and  C_9
REMARK    3  A    between atoms: N_8  and  C_12
REMARK    4  A    between atoms: C_13  and  N_18
REMARK    5  A    between atoms: C_21  and  N_23
REMARK    6  A    between atoms: C_24  and  C_26
REMARK    7  A    between atoms: C_27  and  C_29
REMARK                            x       y       z     vdW  Elec       q    Type
REMARK                         _______ _______ _______ _____ _____    ______ ____
ROOT
ATOM      1  C   UNL     1      36.040 -20.557 -20.509  0.00  0.00    -0.003 C 
ATOM      2  C   UNL     1      35.595 -18.239 -21.976  0.00  0.00    +0.054 C 
ATOM      3  C   UNL     1      37.101 -19.704 -20.784  0.00  0.00    -0.002 C 
ATOM      4  C   UNL     1      34.759 -20.265 -20.960  0.00  0.00    -0.002 C 
ATOM      5  C   UNL     1      36.878 -18.540 -21.520  0.00  0.00    +0.004 C 
ATOM      6  C   UNL     1      34.535 -19.101 -21.696  0.00  0.00    +0.004 C 
ENDROOT
BRANCH   2   9
ATOM      7  O   UNL     1      35.726 -16.986 -23.932  0.00  0.00    -0.270 OA
ATOM      8  N   UNL     1      34.706 -15.990 -22.068  0.00  0.00    -0.279 N 
ATOM      9  C   UNL     1      35.362 -17.026 -22.746  0.00  0.00    +0.250 C 
ATOM     10  H   UNL     1      34.479 -16.170 -21.127  0.00  0.00    +0.155 HD
BRANCH   8  12
ATOM     11  F   UNL     1      33.272 -11.032 -24.047  0.00  0.00    -0.204 F 
ATOM     12  C   UNL     1      34.327 -14.716 -22.560  0.00  0.00    +0.064 C 
ATOM     13  C   UNL     1      33.423 -13.936 -21.859  0.00  0.00    +0.057 C 
ATOM     14  C   UNL     1      34.882 -14.281 -23.753  0.00  0.00    +0.018 C 
ATOM     15  C   UNL     1      33.065 -12.685 -22.364  0.00  0.00    +0.045 C 
ATOM     16  C   UNL     1      34.525 -13.031 -24.257  0.00  0.00    +0.031 C 
ATOM     17  C   UNL     1      33.615 -12.233 -23.563  0.00  0.00    +0.141 C 
BRANCH  13  18
ATOM     18  N   UNL     1      32.852 -14.373 -20.643  0.00  0.00    -0.356 N 
ATOM     19  H   UNL     1      32.443 -15.267 -20.586  0.00  0.00    +0.142 HD
ATOM     20  H   UNL     1      32.865 -13.786 -19.853  0.00  0.00    +0.142 HD
ENDBRANCH  13  18
ENDBRANCH   8  12
ENDBRANCH   2   9
BRANCH   1  21
ATOM     21  C   UNL     1      36.279 -21.810 -19.716  0.00  0.00    +0.117 C 
BRANCH  21  23
ATOM     22  O   UNL     1      34.177 -23.782 -20.009  0.00  0.00    -0.270 OA
ATOM     23  N   UNL     1      35.198 -22.083 -18.795  0.00  0.00    -0.297 N 
ATOM     24  C   UNL     1      34.237 -23.052 -19.025  0.00  0.00    +0.246 C 
ATOM     25  H   UNL     1      35.144 -21.555 -17.966  0.00  0.00    +0.150 HD
BRANCH  24  26
ATOM     26  C   UNL     1      33.243 -23.121 -17.916  0.00  0.00    +0.058 C 
ATOM     27  C   UNL     1      33.571 -23.718 -16.760  0.00  0.00    +0.006 C 
BRANCH  27  29
ATOM     28  N   UNL     1      32.427 -24.004 -13.216  0.00  0.00    -0.242 NA
ATOM     29  C   UNL     1      32.674 -23.833 -15.596  0.00  0.00    +0.019 C 
ATOM     30  C   UNL     1      31.307 -23.876 -15.773  0.00  0.00    +0.003 C 
ATOM     31  C   UNL     1      33.194 -23.898 -14.326  0.00  0.00    +0.099 C 
ATOM     32  C   UNL     1      30.486 -23.986 -14.657  0.00  0.00    +0.021 C 
ATOM     33  C   UNL     1      31.090 -24.045 -13.412  0.00  0.00    +0.099 C 
ENDBRANCH  27  29
ENDBRANCH  24  26
ENDBRANCH  21  23
ENDBRANCH   1  21
TORSDOF 7
ENDMDL
