MODEL 1
REMARK VINA RESULT:     -11.9      0.000      0.000
REMARK  Name = 49866474
REMARK  7 active torsions:
REMARK  status: ('A' for Active; 'I' for Inactive)
REMARK    1  A    between atoms: O_1  and  C_3
REMARK    2  A    between atoms: O_1  and  C_18
REMARK    3  A    between atoms: C_4  and  C_10
REMARK    4  A    between atoms: C_18  and  C_19
REMARK    5  A    between atoms: C_19  and  N_20
REMARK    6  A    between atoms: C_19  and  C_24
REMARK    7  A    between atoms: C_24  and  C_26
REMARK                            x       y       z     vdW  Elec       q    Type
REMARK                         _______ _______ _______ _____ _____    ______ ____
ROOT
ATOM      1  O   UNL     1      36.043 -17.250 -23.366  0.00  0.00    -0.476 OA
ENDROOT
BRANCH   1   3
ATOM      2  N   UNL     1      34.071 -16.009 -26.187  0.00  0.00    -0.239 NA
ATOM      3  C   UNL     1      35.271 -16.411 -24.126  0.00  0.00    +0.158 C 
ATOM      4  C   UNL     1      34.113 -14.327 -24.450  0.00  0.00    +0.022 C 
ATOM      5  C   UNL     1      34.899 -15.156 -23.657  0.00  0.00    +0.040 C 
ATOM      6  C   UNL     1      34.835 -16.786 -25.387  0.00  0.00    +0.136 C 
ATOM      7  C   UNL     1      33.729 -14.796 -25.696  0.00  0.00    +0.099 C 
BRANCH   4  10
ATOM      8  N   UNL     1      32.416  -9.439 -22.476  0.00  0.00    -0.236 N 
ATOM      9  N   UNL     1      31.657  -9.762 -21.416  0.00  0.00    -0.180 NA
ATOM     10  C   UNL     1      33.710 -13.019 -23.990  0.00  0.00    +0.002 C 
ATOM     11  C   UNL     1      32.500 -11.629 -22.435  0.00  0.00    +0.035 C 
ATOM     12  C   UNL     1      32.881 -12.910 -22.865  0.00  0.00    +0.003 C 
ATOM     13  C   UNL     1      32.952 -10.514 -23.132  0.00  0.00    +0.067 C 
ATOM     14  C   UNL     1      34.149 -11.883 -24.670  0.00  0.00    +0.001 C 
ATOM     15  C   UNL     1      33.778 -10.600 -24.254  0.00  0.00    +0.016 C 
ATOM     16  C   UNL     1      31.711 -11.095 -21.394  0.00  0.00    +0.119 C 
ATOM     17  H   UNL     1      32.574  -8.508 -22.756  0.00  0.00    +0.174 HD
ENDBRANCH   4  10
ENDBRANCH   1   3
BRANCH   1  18
ATOM     18  C   UNL     1      35.922 -18.642 -23.622  0.00  0.00    +0.184 C 
BRANCH  18  19
ATOM     19  C   UNL     1      36.197 -19.448 -22.347  0.00  0.00    -0.017 C 
BRANCH  19  20
ATOM     20  N   UNL     1      37.486 -19.013 -21.799  0.00  0.00    +0.384 N 
ATOM     21  H   UNL     1      37.544 -19.279 -20.816  0.00  0.00    -0.089 HD
ATOM     22  H   UNL     1      37.567 -18.001 -21.884  0.00  0.00    -0.089 HD
ATOM     23  H   UNL     1      38.243 -19.459 -22.317  0.00  0.00    -0.089 HD
ENDBRANCH  19  20
BRANCH  19  24
ATOM     24  C   UNL     1      35.103 -19.271 -21.267  0.00  0.00    +0.006 C 
BRANCH  24  26
ATOM     25  N   UNL     1      32.982 -21.983 -19.763  0.00  0.00    -0.234 NA
ATOM     26  C   UNL     1      34.664 -20.524 -20.625  0.00  0.00    -0.024 C 
ATOM     27  C   UNL     1      35.266 -21.418 -19.840  0.00  0.00    +0.065 C 
ATOM     28  C   UNL     1      34.317 -22.494 -19.393  0.00  0.00    +0.122 C 
ATOM     29  C   UNL     1      33.263 -20.948 -20.501  0.00  0.00    +0.072 C 
ATOM     30  C   UNL     1      36.586 -21.395 -19.264  0.00  0.00    -0.020 C 
ATOM     31  C   UNL     1      34.484 -22.810 -17.933  0.00  0.00    -0.004 C 
ATOM     32  C   UNL     1      36.772 -21.971 -18.062  0.00  0.00    -0.004 C 
ATOM     33  C   UNL     1      35.664 -22.572 -17.331  0.00  0.00    -0.003 C 
ENDBRANCH  24  26
ENDBRANCH  19  24
ENDBRANCH  18  19
ENDBRANCH   1  18
TORSDOF 7
ENDMDL
MODEL 2
REMARK VINA RESULT:     -11.6      1.592      9.449
REMARK  Name = 49866474
REMARK  7 active torsions:
REMARK  status: ('A' for Active; 'I' for Inactive)
REMARK    1  A    between atoms: O_1  and  C_3
REMARK    2  A    between atoms: O_1  and  C_18
REMARK    3  A    between atoms: C_4  and  C_10
REMARK    4  A    between atoms: C_18  and  C_19
REMARK    5  A    between atoms: C_19  and  N_20
REMARK    6  A    between atoms: C_19  and  C_24
REMARK    7  A    between atoms: C_24  and  C_26
REMARK                            x       y       z     vdW  Elec       q    Type
REMARK                         _______ _______ _______ _____ _____    ______ ____
ROOT
ATOM      1  O   UNL     1      35.654 -15.425 -23.559  0.00  0.00    -0.476 OA
ENDROOT
BRANCH   1   3
ATOM      2  N   UNL     1      34.592 -18.632 -24.965  0.00  0.00    -0.239 NA
ATOM      3  C   UNL     1      35.362 -16.762 -23.639  0.00  0.00    +0.158 C 
ATOM      4  C   UNL     1      35.223 -18.951 -22.652  0.00  0.00    +0.022 C 
ATOM      5  C   UNL     1      35.525 -17.598 -22.541  0.00  0.00    +0.040 C 
ATOM      6  C   UNL     1      34.896 -17.323 -24.818  0.00  0.00    +0.136 C 
ATOM      7  C   UNL     1      34.764 -19.414 -23.875  0.00  0.00    +0.099 C 
BRANCH   4  10
ATOM      8  N   UNL     1      35.551 -22.432 -18.356  0.00  0.00    -0.236 N 
ATOM      9  N   UNL     1      34.289 -22.864 -18.191  0.00  0.00    -0.180 NA
ATOM     10  C   UNL     1      35.382 -19.845 -21.530  0.00  0.00    +0.002 C 
ATOM     11  C   UNL     1      34.441 -21.387 -19.933  0.00  0.00    +0.035 C 
ATOM     12  C   UNL     1      34.264 -20.524 -21.026  0.00  0.00    +0.003 C 
ATOM     13  C   UNL     1      35.709 -21.543 -19.385  0.00  0.00    +0.067 C 
ATOM     14  C   UNL     1      36.644 -20.020 -20.961  0.00  0.00    +0.001 C 
ATOM     15  C   UNL     1      36.835 -20.876 -19.871  0.00  0.00    +0.016 C 
ATOM     16  C   UNL     1      33.618 -22.227 -19.152  0.00  0.00    +0.119 C 
ATOM     17  H   UNL     1      36.296 -22.729 -17.787  0.00  0.00    +0.174 HD
ENDBRANCH   4  10
ENDBRANCH   1   3
BRANCH   1  18
ATOM     18  C   UNL     1      34.899 -14.658 -22.630  0.00  0.00    +0.184 C 
BRANCH  18  19
ATOM     19  C   UNL     1      34.177 -13.510 -23.345  0.00  0.00    -0.017 C 
BRANCH  19  20
ATOM     20  N   UNL     1      34.170 -13.796 -24.783  0.00  0.00    +0.384 N 
ATOM     21  H   UNL     1      34.640 -14.686 -24.955  0.00  0.00    -0.089 HD
ATOM     22  H   UNL     1      34.658 -13.052 -25.280  0.00  0.00    -0.089 HD
ATOM     23  H   UNL     1      33.207 -13.852 -25.114  0.00  0.00    -0.089 HD
ENDBRANCH  19  20
BRANCH  19  24
ATOM     24  C   UNL     1      32.719 -13.314 -22.863  0.00  0.00    +0.006 C 
BRANCH  24  26
ATOM     25  N   UNL     1      32.647  -9.568 -22.598  0.00  0.00    -0.234 NA
ATOM     26  C   UNL     1      32.385 -11.936 -22.457  0.00  0.00    -0.024 C 
ATOM     27  C   UNL     1      31.848 -11.403 -21.359  0.00  0.00    +0.065 C 
ATOM     28  C   UNL     1      31.798  -9.903 -21.436  0.00  0.00    +0.122 C 
ATOM     29  C   UNL     1      32.859 -10.729 -23.146  0.00  0.00    +0.072 C 
ATOM     30  C   UNL     1      31.486 -12.031 -20.114  0.00  0.00    -0.020 C 
ATOM     31  C   UNL     1      32.227  -9.266 -20.144  0.00  0.00    -0.004 C 
ATOM     32  C   UNL     1      31.592 -11.314 -18.980  0.00  0.00    -0.004 C 
ATOM     33  C   UNL     1      32.099  -9.949 -18.991  0.00  0.00    -0.003 C 
ENDBRANCH  24  26
ENDBRANCH  19  24
ENDBRANCH  18  19
ENDBRANCH   1  18
TORSDOF 7
ENDMDL
MODEL 3
REMARK VINA RESULT:     -11.4      4.251      7.480
REMARK  Name = 49866474
REMARK  7 active torsions:
REMARK  status: ('A' for Active; 'I' for Inactive)
REMARK    1  A    between atoms: O_1  and  C_3
REMARK    2  A    between atoms: O_1  and  C_18
REMARK    3  A    between atoms: C_4  and  C_10
REMARK    4  A    between atoms: C_18  and  C_19
REMARK    5  A    between atoms: C_19  and  N_20
REMARK    6  A    between atoms: C_19  and  C_24
REMARK    7  A    between atoms: C_24  and  C_26
REMARK                            x       y       z     vdW  Elec       q    Type
REMARK                         _______ _______ _______ _____ _____    ______ ____
ROOT
ATOM      1  O   UNL     1      36.701 -22.366 -18.529  0.00  0.00    -0.476 OA
ENDROOT
BRANCH   1   3
ATOM      2  N   UNL     1      33.317 -21.847 -19.820  0.00  0.00    -0.239 NA
ATOM      3  C   UNL     1      35.673 -21.848 -19.272  0.00  0.00    +0.158 C 
ATOM      4  C   UNL     1      34.832 -20.331 -20.939  0.00  0.00    +0.022 C 
ATOM      5  C   UNL     1      35.896 -20.838 -20.200  0.00  0.00    +0.040 C 
ATOM      6  C   UNL     1      34.376 -22.314 -19.121  0.00  0.00    +0.136 C 
ATOM      7  C   UNL     1      33.574 -20.865 -20.713  0.00  0.00    +0.099 C 
BRANCH   4  10
ATOM      8  N   UNL     1      35.470 -16.470 -24.859  0.00  0.00    -0.236 N 
ATOM      9  N   UNL     1      34.884 -17.007 -25.942  0.00  0.00    -0.180 NA
ATOM     10  C   UNL     1      35.033 -19.281 -21.910  0.00  0.00    +0.002 C 
ATOM     11  C   UNL     1      34.761 -18.418 -24.145  0.00  0.00    +0.035 C 
ATOM     12  C   UNL     1      34.554 -19.451 -23.216  0.00  0.00    +0.003 C 
ATOM     13  C   UNL     1      35.431 -17.266 -23.747  0.00  0.00    +0.067 C 
ATOM     14  C   UNL     1      35.701 -18.114 -21.537  0.00  0.00    +0.001 C 
ATOM     15  C   UNL     1      35.916 -17.078 -22.451  0.00  0.00    +0.016 C 
ATOM     16  C   UNL     1      34.454 -18.192 -25.504  0.00  0.00    +0.119 C 
ATOM     17  H   UNL     1      35.890 -15.580 -24.864  0.00  0.00    +0.174 HD
ENDBRANCH   4  10
ENDBRANCH   1   3
BRANCH   1  18
ATOM     18  C   UNL     1      37.180 -21.570 -17.454  0.00  0.00    +0.184 C 
BRANCH  18  19
ATOM     19  C   UNL     1      37.116 -22.352 -16.137  0.00  0.00    -0.017 C 
BRANCH  19  20
ATOM     20  N   UNL     1      35.810 -23.012 -16.058  0.00  0.00    +0.384 N 
ATOM     21  H   UNL     1      35.941 -24.023 -16.007  0.00  0.00    -0.089 HD
ATOM     22  H   UNL     1      35.262 -22.782 -16.887  0.00  0.00    -0.089 HD
ATOM     23  H   UNL     1      35.317 -22.691 -15.225  0.00  0.00    -0.089 HD
ENDBRANCH  19  20
BRANCH  19  24
ATOM     24  C   UNL     1      38.230 -23.420 -16.009  0.00  0.00    +0.006 C 
BRANCH  24  26
ATOM     25  N   UNL     1      37.286 -26.508 -14.090  0.00  0.00    -0.234 NA
ATOM     26  C   UNL     1      38.024 -24.397 -14.923  0.00  0.00    -0.024 C 
ATOM     27  C   UNL     1      37.911 -24.293 -13.599  0.00  0.00    +0.065 C 
ATOM     28  C   UNL     1      37.627 -25.622 -12.958  0.00  0.00    +0.122 C 
ATOM     29  C   UNL     1      37.605 -25.790 -15.127  0.00  0.00    +0.072 C 
ATOM     30  C   UNL     1      37.862 -23.116 -12.770  0.00  0.00    -0.020 C 
ATOM     31  C   UNL     1      36.562 -25.514 -11.904  0.00  0.00    -0.004 C 
ATOM     32  C   UNL     1      37.126 -23.155 -11.644  0.00  0.00    -0.004 C 
ATOM     33  C   UNL     1      36.358 -24.339 -11.281  0.00  0.00    -0.003 C 
ENDBRANCH  24  26
ENDBRANCH  19  24
ENDBRANCH  18  19
ENDBRANCH   1  18
TORSDOF 7
ENDMDL
MODEL 4
REMARK VINA RESULT:     -11.3      4.305      7.213
REMARK  Name = 49866474
REMARK  7 active torsions:
REMARK  status: ('A' for Active; 'I' for Inactive)
REMARK    1  A    between atoms: O_1  and  C_3
REMARK    2  A    between atoms: O_1  and  C_18
REMARK    3  A    between atoms: C_4  and  C_10
REMARK    4  A    between atoms: C_18  and  C_19
REMARK    5  A    between atoms: C_19  and  N_20
REMARK    6  A    between atoms: C_19  and  C_24
REMARK    7  A    between atoms: C_24  and  C_26
REMARK                            x       y       z     vdW  Elec       q    Type
REMARK                         _______ _______ _______ _____ _____    ______ ____
ROOT
ATOM      1  O   UNL     1      36.370 -22.431 -18.399  0.00  0.00    -0.476 OA
ENDROOT
BRANCH   1   3
ATOM      2  N   UNL     1      33.077 -21.864 -19.890  0.00  0.00    -0.239 NA
ATOM      3  C   UNL     1      35.396 -21.901 -19.204  0.00  0.00    +0.158 C 
ATOM      4  C   UNL     1      34.681 -20.380 -20.925  0.00  0.00    +0.022 C 
ATOM      5  C   UNL     1      35.690 -20.899 -20.122  0.00  0.00    +0.040 C 
ATOM      6  C   UNL     1      34.085 -22.345 -19.128  0.00  0.00    +0.136 C 
ATOM      7  C   UNL     1      33.402 -20.891 -20.771  0.00  0.00    +0.099 C 
BRANCH   4  10
ATOM      8  N   UNL     1      35.588 -16.542 -24.814  0.00  0.00    -0.236 N 
ATOM      9  N   UNL     1      34.949 -17.018 -25.896  0.00  0.00    -0.180 NA
ATOM     10  C   UNL     1      34.956 -19.339 -21.888  0.00  0.00    +0.002 C 
ATOM     11  C   UNL     1      34.731 -18.434 -24.111  0.00  0.00    +0.035 C 
ATOM     12  C   UNL     1      34.451 -19.456 -23.190  0.00  0.00    +0.003 C 
ATOM     13  C   UNL     1      35.496 -17.344 -23.709  0.00  0.00    +0.067 C 
ATOM     14  C   UNL     1      35.720 -18.235 -21.511  0.00  0.00    +0.001 C 
ATOM     15  C   UNL     1      36.009 -17.209 -22.417  0.00  0.00    +0.016 C 
ATOM     16  C   UNL     1      34.429 -18.168 -25.464  0.00  0.00    +0.119 C 
ATOM     17  H   UNL     1      36.079 -15.689 -24.815  0.00  0.00    +0.174 HD
ENDBRANCH   4  10
ENDBRANCH   1   3
BRANCH   1  18
ATOM     18  C   UNL     1      36.344 -22.055 -17.028  0.00  0.00    +0.184 C 
BRANCH  18  19
ATOM     19  C   UNL     1      36.515 -23.287 -16.132  0.00  0.00    -0.017 C 
BRANCH  19  20
ATOM     20  N   UNL     1      36.719 -22.828 -14.754  0.00  0.00    +0.384 N 
ATOM     21  H   UNL     1      35.822 -22.561 -14.348  0.00  0.00    -0.089 HD
ATOM     22  H   UNL     1      37.345 -22.024 -14.753  0.00  0.00    -0.089 HD
ATOM     23  H   UNL     1      37.131 -23.581 -14.203  0.00  0.00    -0.089 HD
ENDBRANCH  19  20
BRANCH  19  24
ATOM     24  C   UNL     1      35.297 -24.242 -16.171  0.00  0.00    +0.006 C 
BRANCH  24  26
ATOM     25  N   UNL     1      33.204 -24.308 -13.051  0.00  0.00    -0.234 NA
ATOM     26  C   UNL     1      34.258 -23.954 -15.164  0.00  0.00    -0.024 C 
ATOM     27  C   UNL     1      33.038 -23.419 -15.225  0.00  0.00    +0.065 C 
ATOM     28  C   UNL     1      32.359 -23.428 -13.884  0.00  0.00    +0.122 C 
ATOM     29  C   UNL     1      34.257 -24.486 -13.794  0.00  0.00    +0.072 C 
ATOM     30  C   UNL     1      32.269 -23.011 -16.372  0.00  0.00    -0.020 C 
ATOM     31  C   UNL     1      30.923 -23.858 -13.992  0.00  0.00    -0.004 C 
ATOM     32  C   UNL     1      30.929 -23.125 -16.319  0.00  0.00    -0.004 C 
ATOM     33  C   UNL     1      30.261 -23.684 -15.151  0.00  0.00    -0.003 C 
ENDBRANCH  24  26
ENDBRANCH  19  24
ENDBRANCH  18  19
ENDBRANCH   1  18
TORSDOF 7
ENDMDL
MODEL 5
REMARK VINA RESULT:     -11.3      5.780     11.034
REMARK  Name = 49866474
REMARK  7 active torsions:
REMARK  status: ('A' for Active; 'I' for Inactive)
REMARK    1  A    between atoms: O_1  and  C_3
REMARK    2  A    between atoms: O_1  and  C_18
REMARK    3  A    between atoms: C_4  and  C_10
REMARK    4  A    between atoms: C_18  and  C_19
REMARK    5  A    between atoms: C_19  and  N_20
REMARK    6  A    between atoms: C_19  and  C_24
REMARK    7  A    between atoms: C_24  and  C_26
REMARK                            x       y       z     vdW  Elec       q    Type
REMARK                         _______ _______ _______ _____ _____    ______ ____
ROOT
ATOM      1  O   UNL     1      37.101 -23.228 -16.675  0.00  0.00    -0.476 OA
ENDROOT
BRANCH   1   3
ATOM      2  N   UNL     1      35.985 -24.196 -13.328  0.00  0.00    -0.239 NA
ATOM      3  C   UNL     1      36.262 -23.580 -15.650  0.00  0.00    +0.158 C 
ATOM      4  C   UNL     1      34.064 -24.039 -14.789  0.00  0.00    +0.022 C 
ATOM      5  C   UNL     1      34.890 -23.682 -15.849  0.00  0.00    +0.040 C 
ATOM      6  C   UNL     1      36.755 -23.845 -14.382  0.00  0.00    +0.136 C 
ATOM      7  C   UNL     1      34.655 -24.283 -13.560  0.00  0.00    +0.099 C 
BRANCH   4  10
ATOM      8  N   UNL     1      28.598 -24.261 -15.655  0.00  0.00    -0.236 N 
ATOM      9  N   UNL     1      28.380 -23.327 -16.596  0.00  0.00    -0.180 NA
ATOM     10  C   UNL     1      32.635 -24.153 -14.964  0.00  0.00    +0.002 C 
ATOM     11  C   UNL     1      30.597 -23.448 -16.042  0.00  0.00    +0.035 C 
ATOM     12  C   UNL     1      31.987 -23.323 -15.889  0.00  0.00    +0.003 C 
ATOM     13  C   UNL     1      29.908 -24.384 -15.279  0.00  0.00    +0.067 C 
ATOM     14  C   UNL     1      31.919 -25.083 -14.210  0.00  0.00    +0.001 C 
ATOM     15  C   UNL     1      30.534 -25.219 -14.352  0.00  0.00    +0.016 C 
ATOM     16  C   UNL     1      29.598 -22.835 -16.829  0.00  0.00    +0.119 C 
ATOM     17  H   UNL     1      27.877 -24.811 -15.270  0.00  0.00    +0.174 HD
ENDBRANCH   4  10
ENDBRANCH   1   3
BRANCH   1  18
ATOM     18  C   UNL     1      37.746 -21.966 -16.572  0.00  0.00    +0.184 C 
BRANCH  18  19
ATOM     19  C   UNL     1      37.168 -20.983 -17.597  0.00  0.00    -0.017 C 
BRANCH  19  20
ATOM     20  N   UNL     1      38.102 -19.861 -17.735  0.00  0.00    +0.384 N 
ATOM     21  H   UNL     1      37.578 -19.000 -17.893  0.00  0.00    -0.089 HD
ATOM     22  H   UNL     1      38.723 -20.031 -18.524  0.00  0.00    -0.089 HD
ATOM     23  H   UNL     1      38.653 -19.771 -16.881  0.00  0.00    -0.089 HD
ENDBRANCH  19  20
BRANCH  19  24
ATOM     24  C   UNL     1      36.936 -21.621 -18.989  0.00  0.00    +0.006 C 
BRANCH  24  26
ATOM     25  N   UNL     1      33.879 -20.753 -20.991  0.00  0.00    -0.234 NA
ATOM     26  C   UNL     1      35.963 -20.909 -19.837  0.00  0.00    -0.024 C 
ATOM     27  C   UNL     1      36.063 -19.918 -20.723  0.00  0.00    +0.065 C 
ATOM     28  C   UNL     1      34.743 -19.618 -21.375  0.00  0.00    +0.122 C 
ATOM     29  C   UNL     1      34.589 -21.366 -20.090  0.00  0.00    +0.072 C 
ATOM     30  C   UNL     1      37.236 -19.250 -21.227  0.00  0.00    -0.020 C 
ATOM     31  C   UNL     1      34.889 -19.416 -22.857  0.00  0.00    -0.004 C 
ATOM     32  C   UNL     1      37.221 -18.796 -22.494  0.00  0.00    -0.004 C 
ATOM     33  C   UNL     1      36.068 -19.006 -23.360  0.00  0.00    -0.003 C 
ENDBRANCH  24  26
ENDBRANCH  19  24
ENDBRANCH  18  19
ENDBRANCH   1  18
TORSDOF 7
ENDMDL
MODEL 6
REMARK VINA RESULT:     -11.2      4.170      7.326
REMARK  Name = 49866474
REMARK  7 active torsions:
REMARK  status: ('A' for Active; 'I' for Inactive)
REMARK    1  A    between atoms: O_1  and  C_3
REMARK    2  A    between atoms: O_1  and  C_18
REMARK    3  A    between atoms: C_4  and  C_10
REMARK    4  A    between atoms: C_18  and  C_19
REMARK    5  A    between atoms: C_19  and  N_20
REMARK    6  A    between atoms: C_19  and  C_24
REMARK    7  A    between atoms: C_24  and  C_26
REMARK                            x       y       z     vdW  Elec       q    Type
REMARK                         _______ _______ _______ _____ _____    ______ ____
ROOT
ATOM      1  O   UNL     1      33.207 -22.350 -18.975  0.00  0.00    -0.476 OA
ENDROOT
BRANCH   1   3
ATOM      2  N   UNL     1      36.735 -21.561 -19.534  0.00  0.00    -0.239 NA
ATOM      3  C   UNL     1      34.325 -21.750 -19.492  0.00  0.00    +0.158 C 
ATOM      4  C   UNL     1      35.376 -20.168 -20.969  0.00  0.00    +0.022 C 
ATOM      5  C   UNL     1      34.223 -20.758 -20.462  0.00  0.00    +0.040 C 
ATOM      6  C   UNL     1      35.593 -22.111 -19.066  0.00  0.00    +0.136 C 
ATOM      7  C   UNL     1      36.596 -20.601 -20.477  0.00  0.00    +0.099 C 
BRANCH   4  10
ATOM      8  N   UNL     1      34.994 -16.409 -25.020  0.00  0.00    -0.236 N 
ATOM      9  N   UNL     1      34.504 -17.103 -26.061  0.00  0.00    -0.180 NA
ATOM     10  C   UNL     1      35.302 -19.136 -21.977  0.00  0.00    +0.002 C 
ATOM     11  C   UNL     1      34.764 -18.438 -24.221  0.00  0.00    +0.035 C 
ATOM     12  C   UNL     1      34.826 -19.456 -23.255  0.00  0.00    +0.003 C 
ATOM     13  C   UNL     1      35.174 -17.153 -23.885  0.00  0.00    +0.067 C 
ATOM     14  C   UNL     1      35.707 -17.838 -21.666  0.00  0.00    +0.001 C 
ATOM     15  C   UNL     1      35.652 -16.814 -22.618  0.00  0.00    +0.016 C 
ATOM     16  C   UNL     1      34.365 -18.336 -25.571  0.00  0.00    +0.119 C 
ATOM     17  H   UNL     1      35.205 -15.449 -25.068  0.00  0.00    +0.174 HD
ENDBRANCH   4  10
ENDBRANCH   1   3
BRANCH   1  18
ATOM     18  C   UNL     1      33.409 -23.522 -18.197  0.00  0.00    +0.184 C 
BRANCH  18  19
ATOM     19  C   UNL     1      33.433 -23.175 -16.703  0.00  0.00    -0.017 C 
BRANCH  19  20
ATOM     20  N   UNL     1      32.048 -23.034 -16.243  0.00  0.00    +0.384 N 
ATOM     21  H   UNL     1      31.975 -22.223 -15.628  0.00  0.00    -0.089 HD
ATOM     22  H   UNL     1      31.771 -23.873 -15.735  0.00  0.00    -0.089 HD
ATOM     23  H   UNL     1      31.434 -22.905 -17.048  0.00  0.00    -0.089 HD
ENDBRANCH  19  20
BRANCH  19  24
ATOM     24  C   UNL     1      34.144 -24.247 -15.841  0.00  0.00    +0.006 C 
BRANCH  24  26
ATOM     25  N   UNL     1      37.668 -23.181 -15.095  0.00  0.00    -0.234 NA
ATOM     26  C   UNL     1      35.356 -23.772 -15.148  0.00  0.00    -0.024 C 
ATOM     27  C   UNL     1      35.741 -23.757 -13.872  0.00  0.00    +0.065 C 
ATOM     28  C   UNL     1      37.136 -23.218 -13.717  0.00  0.00    +0.122 C 
ATOM     29  C   UNL     1      36.614 -23.418 -15.819  0.00  0.00    +0.072 C 
ATOM     30  C   UNL     1      35.097 -24.314 -12.709  0.00  0.00    -0.020 C 
ATOM     31  C   UNL     1      37.946 -24.040 -12.755  0.00  0.00    -0.004 C 
ATOM     32  C   UNL     1      35.868 -24.773 -11.706  0.00  0.00    -0.004 C 
ATOM     33  C   UNL     1      37.322 -24.752 -11.798  0.00  0.00    -0.003 C 
ENDBRANCH  24  26
ENDBRANCH  19  24
ENDBRANCH  18  19
ENDBRANCH   1  18
TORSDOF 7
ENDMDL
MODEL 7
REMARK VINA RESULT:     -11.2      3.893      7.269
REMARK  Name = 49866474
REMARK  7 active torsions:
REMARK  status: ('A' for Active; 'I' for Inactive)
REMARK    1  A    between atoms: O_1  and  C_3
REMARK    2  A    between atoms: O_1  and  C_18
REMARK    3  A    between atoms: C_4  and  C_10
REMARK    4  A    between atoms: C_18  and  C_19
REMARK    5  A    between atoms: C_19  and  N_20
REMARK    6  A    between atoms: C_19  and  C_24
REMARK    7  A    between atoms: C_24  and  C_26
REMARK                            x       y       z     vdW  Elec       q    Type
REMARK                         _______ _______ _______ _____ _____    ______ ____
ROOT
ATOM      1  O   UNL     1      31.732 -11.744 -22.352  0.00  0.00    -0.476 OA
ENDROOT
BRANCH   1   3
ATOM      2  N   UNL     1      32.276  -9.263 -19.719  0.00  0.00    -0.239 NA
ATOM      3  C   UNL     1      31.902 -10.527 -21.747  0.00  0.00    +0.158 C 
ATOM      4  C   UNL     1      32.060  -8.128 -21.844  0.00  0.00    +0.022 C 
ATOM      5  C   UNL     1      31.883  -9.349 -22.486  0.00  0.00    +0.040 C 
ATOM      6  C   UNL     1      32.100 -10.430 -20.378  0.00  0.00    +0.136 C 
ATOM      7  C   UNL     1      32.251  -8.139 -20.472  0.00  0.00    +0.099 C 
BRANCH   4  10
ATOM      8  N   UNL     1      32.217  -3.478 -24.848  0.00  0.00    -0.236 N 
ATOM      9  N   UNL     1      33.181  -3.710 -25.756  0.00  0.00    -0.180 NA
ATOM     10  C   UNL     1      32.045  -6.889 -22.585  0.00  0.00    +0.002 C 
ATOM     11  C   UNL     1      32.902  -5.503 -24.362  0.00  0.00    +0.035 C 
ATOM     12  C   UNL     1      32.932  -6.717 -23.656  0.00  0.00    +0.003 C 
ATOM     13  C   UNL     1      32.001  -4.515 -23.981  0.00  0.00    +0.067 C 
ATOM     14  C   UNL     1      31.151  -5.880 -22.224  0.00  0.00    +0.001 C 
ATOM     15  C   UNL     1      31.110  -4.666 -22.917  0.00  0.00    +0.016 C 
ATOM     16  C   UNL     1      33.594  -4.943 -25.457  0.00  0.00    +0.119 C 
ATOM     17  H   UNL     1      31.711  -2.635 -24.810  0.00  0.00    +0.174 HD
ENDBRANCH   4  10
ENDBRANCH   1   3
BRANCH   1  18
ATOM     18  C   UNL     1      32.745 -12.717 -22.134  0.00  0.00    +0.184 C 
BRANCH  18  19
ATOM     19  C   UNL     1      33.431 -13.082 -23.456  0.00  0.00    -0.017 C 
BRANCH  19  20
ATOM     20  N   UNL     1      33.928 -11.848 -24.071  0.00  0.00    +0.384 N 
ATOM     21  H   UNL     1      33.455 -11.697 -24.962  0.00  0.00    -0.089 HD
ATOM     22  H   UNL     1      34.932 -11.928 -24.228  0.00  0.00    -0.089 HD
ATOM     23  H   UNL     1      33.742 -11.060 -23.450  0.00  0.00    -0.089 HD
ENDBRANCH  19  20
BRANCH  19  24
ATOM     24  C   UNL     1      34.610 -14.069 -23.277  0.00  0.00    +0.006 C 
BRANCH  24  26
ATOM     25  N   UNL     1      33.863 -16.275 -26.224  0.00  0.00    -0.234 NA
ATOM     26  C   UNL     1      34.650 -15.165 -24.263  0.00  0.00    -0.024 C 
ATOM     27  C   UNL     1      35.111 -16.415 -24.233  0.00  0.00    +0.065 C 
ATOM     28  C   UNL     1      34.823 -17.146 -25.515  0.00  0.00    +0.122 C 
ATOM     29  C   UNL     1      33.885 -15.183 -25.517  0.00  0.00    +0.072 C 
ATOM     30  C   UNL     1      35.667 -17.165 -23.136  0.00  0.00    -0.020 C 
ATOM     31  C   UNL     1      34.331 -18.542 -25.260  0.00  0.00    -0.004 C 
ATOM     32  C   UNL     1      35.464 -18.495 -23.099  0.00  0.00    -0.004 C 
ATOM     33  C   UNL     1      34.666 -19.168 -24.116  0.00  0.00    -0.003 C 
ENDBRANCH  24  26
ENDBRANCH  19  24
ENDBRANCH  18  19
ENDBRANCH   1  18
TORSDOF 7
ENDMDL
MODEL 8
REMARK VINA RESULT:     -11.2      2.290     10.384
REMARK  Name = 49866474
REMARK  7 active torsions:
REMARK  status: ('A' for Active; 'I' for Inactive)
REMARK    1  A    between atoms: O_1  and  C_3
REMARK    2  A    between atoms: O_1  and  C_18
REMARK    3  A    between atoms: C_4  and  C_10
REMARK    4  A    between atoms: C_18  and  C_19
REMARK    5  A    between atoms: C_19  and  N_20
REMARK    6  A    between atoms: C_19  and  C_24
REMARK    7  A    between atoms: C_24  and  C_26
REMARK                            x       y       z     vdW  Elec       q    Type
REMARK                         _______ _______ _______ _____ _____    ______ ____
ROOT
ATOM      1  O   UNL     1      34.999 -13.888 -23.653  0.00  0.00    -0.476 OA
ENDROOT
BRANCH   1   3
ATOM      2  N   UNL     1      34.644 -16.982 -25.574  0.00  0.00    -0.239 NA
ATOM      3  C   UNL     1      34.995 -15.227 -23.948  0.00  0.00    +0.158 C 
ATOM      4  C   UNL     1      35.308 -17.526 -23.314  0.00  0.00    +0.022 C 
ATOM      5  C   UNL     1      35.320 -16.174 -22.985  0.00  0.00    +0.040 C 
ATOM      6  C   UNL     1      34.666 -15.678 -25.217  0.00  0.00    +0.136 C 
ATOM      7  C   UNL     1      34.966 -17.874 -24.610  0.00  0.00    +0.099 C 
BRANCH   4  10
ATOM      8  N   UNL     1      36.310 -21.467 -19.554  0.00  0.00    -0.236 N 
ATOM      9  N   UNL     1      35.108 -22.031 -19.346  0.00  0.00    -0.180 NA
ATOM     10  C   UNL     1      35.642 -18.533 -22.335  0.00  0.00    +0.002 C 
ATOM     11  C   UNL     1      34.979 -20.342 -20.884  0.00  0.00    +0.035 C 
ATOM     12  C   UNL     1      34.634 -19.370 -21.837  0.00  0.00    +0.003 C 
ATOM     13  C   UNL     1      36.301 -20.447 -20.466  0.00  0.00    +0.067 C 
ATOM     14  C   UNL     1      36.961 -18.661 -21.897  0.00  0.00    +0.001 C 
ATOM     15  C   UNL     1      37.320 -19.624 -20.949  0.00  0.00    +0.016 C 
ATOM     16  C   UNL     1      34.301 -21.344 -20.157  0.00  0.00    +0.119 C 
ATOM     17  H   UNL     1      37.126 -21.763 -19.090  0.00  0.00    +0.174 HD
ENDBRANCH   4  10
ENDBRANCH   1   3
BRANCH   1  18
ATOM     18  C   UNL     1      33.922 -13.115 -24.164  0.00  0.00    +0.184 C 
BRANCH  18  19
ATOM     19  C   UNL     1      34.248 -11.619 -24.080  0.00  0.00    -0.017 C 
BRANCH  19  20
ATOM     20  N   UNL     1      35.052 -11.258 -25.252  0.00  0.00    +0.384 N 
ATOM     21  H   UNL     1      35.074 -10.243 -25.349  0.00  0.00    -0.089 HD
ATOM     22  H   UNL     1      34.640 -11.671 -26.087  0.00  0.00    -0.089 HD
ATOM     23  H   UNL     1      36.002 -11.609 -25.133  0.00  0.00    -0.089 HD
ENDBRANCH  19  20
BRANCH  19  24
ATOM     24  C   UNL     1      32.986 -10.723 -24.037  0.00  0.00    +0.006 C 
BRANCH  24  26
ATOM     25  N   UNL     1      32.042  -8.907 -20.887  0.00  0.00    -0.234 NA
ATOM     26  C   UNL     1      32.955  -9.759 -22.921  0.00  0.00    -0.024 C 
ATOM     27  C   UNL     1      33.400  -8.511 -22.768  0.00  0.00    +0.065 C 
ATOM     28  C   UNL     1      33.029  -7.949 -21.425  0.00  0.00    +0.122 C 
ATOM     29  C   UNL     1      32.120  -9.903 -21.722  0.00  0.00    +0.072 C 
ATOM     30  C   UNL     1      34.008  -7.627 -23.729  0.00  0.00    -0.020 C 
ATOM     31  C   UNL     1      32.533  -6.534 -21.532  0.00  0.00    -0.004 C 
ATOM     32  C   UNL     1      33.788  -6.304 -23.612  0.00  0.00    -0.004 C 
ATOM     33  C   UNL     1      32.925  -5.768 -22.568  0.00  0.00    -0.003 C 
ENDBRANCH  24  26
ENDBRANCH  19  24
ENDBRANCH  18  19
ENDBRANCH   1  18
TORSDOF 7
ENDMDL
MODEL 9
REMARK VINA RESULT:     -11.2      3.130     11.046
REMARK  Name = 49866474
REMARK  7 active torsions:
REMARK  status: ('A' for Active; 'I' for Inactive)
REMARK    1  A    between atoms: O_1  and  C_3
REMARK    2  A    between atoms: O_1  and  C_18
REMARK    3  A    between atoms: C_4  and  C_10
REMARK    4  A    between atoms: C_18  and  C_19
REMARK    5  A    between atoms: C_19  and  N_20
REMARK    6  A    between atoms: C_19  and  C_24
REMARK    7  A    between atoms: C_24  and  C_26
REMARK                            x       y       z     vdW  Elec       q    Type
REMARK                         _______ _______ _______ _____ _____    ______ ____
ROOT
ATOM      1  O   UNL     1      35.818 -20.946 -20.553  0.00  0.00    -0.476 OA
ENDROOT
BRANCH   1   3
ATOM      2  N   UNL     1      33.061 -22.663 -18.868  0.00  0.00    -0.239 NA
ATOM      3  C   UNL     1      35.130 -21.643 -19.595  0.00  0.00    +0.158 C 
ATOM      4  C   UNL     1      35.025 -22.747 -17.460  0.00  0.00    +0.022 C 
ATOM      5  C   UNL     1      35.748 -22.039 -18.414  0.00  0.00    +0.040 C 
ATOM      6  C   UNL     1      33.796 -21.977 -19.771  0.00  0.00    +0.136 C 
ATOM      7  C   UNL     1      33.697 -23.032 -17.732  0.00  0.00    +0.099 C 
BRANCH   4  10
ATOM      8  N   UNL     1      37.118 -24.424 -12.613  0.00  0.00    -0.236 N 
ATOM      9  N   UNL     1      36.035 -24.738 -11.883  0.00  0.00    -0.180 NA
ATOM     10  C   UNL     1      35.640 -23.172 -16.224  0.00  0.00    +0.002 C 
ATOM     11  C   UNL     1      35.447 -24.004 -13.969  0.00  0.00    +0.035 C 
ATOM     12  C   UNL     1      34.829 -23.596 -15.162  0.00  0.00    +0.003 C 
ATOM     13  C   UNL     1      36.834 -23.976 -13.875  0.00  0.00    +0.067 C 
ATOM     14  C   UNL     1      37.030 -23.155 -16.103  0.00  0.00    +0.001 C 
ATOM     15  C   UNL     1      37.659 -23.557 -14.921  0.00  0.00    +0.016 C 
ATOM     16  C   UNL     1      35.021 -24.482 -12.711  0.00  0.00    +0.119 C 
ATOM     17  H   UNL     1      38.037 -24.508 -12.271  0.00  0.00    +0.174 HD
ENDBRANCH   4  10
ENDBRANCH   1   3
BRANCH   1  18
ATOM     18  C   UNL     1      35.059 -20.073 -21.380  0.00  0.00    +0.184 C 
BRANCH  18  19
ATOM     19  C   UNL     1      35.757 -18.714 -21.507  0.00  0.00    -0.017 C 
BRANCH  19  20
ATOM     20  N   UNL     1      37.139 -18.863 -21.039  0.00  0.00    +0.384 N 
ATOM     21  H   UNL     1      37.418 -18.024 -20.530  0.00  0.00    -0.089 HD
ATOM     22  H   UNL     1      37.756 -18.996 -21.840  0.00  0.00    -0.089 HD
ATOM     23  H   UNL     1      37.204 -19.672 -20.422  0.00  0.00    -0.089 HD
ENDBRANCH  19  20
BRANCH  19  24
ATOM     24  C   UNL     1      35.770 -18.170 -22.956  0.00  0.00    +0.006 C 
BRANCH  24  26
ATOM     25  N   UNL     1      34.678 -14.659 -22.189  0.00  0.00    -0.234 NA
ATOM     26  C   UNL     1      35.449 -16.736 -23.077  0.00  0.00    -0.024 C 
ATOM     27  C   UNL     1      35.148 -15.942 -24.105  0.00  0.00    +0.065 C 
ATOM     28  C   UNL     1      34.825 -14.545 -23.654  0.00  0.00    +0.122 C 
ATOM     29  C   UNL     1      35.114 -15.861 -21.946  0.00  0.00    +0.072 C 
ATOM     30  C   UNL     1      34.940 -16.272 -25.492  0.00  0.00    -0.020 C 
ATOM     31  C   UNL     1      33.619 -13.997 -24.364  0.00  0.00    -0.004 C 
ATOM     32  C   UNL     1      34.055 -15.545 -26.199  0.00  0.00    -0.004 C 
ATOM     33  C   UNL     1      33.287 -14.473 -25.579  0.00  0.00    -0.003 C 
ENDBRANCH  24  26
ENDBRANCH  19  24
ENDBRANCH  18  19
ENDBRANCH   1  18
TORSDOF 7
ENDMDL
