MODEL 1
REMARK VINA RESULT:     -12.5      0.000      0.000
REMARK  Name = 115237
REMARK  5 active torsions:
REMARK  status: ('A' for Active; 'I' for Inactive)
REMARK    1  A    between atoms: N_1  and  C_18
REMARK    2  A    between atoms: C_2  and  C_11
REMARK    3  A    between atoms: C_18  and  C_19
REMARK    4  A    between atoms: C_19  and  C_23
REMARK    5  A    between atoms: C_25  and  O_32
REMARK                            x       y       z     vdW  Elec       q    Type
REMARK                         _______ _______ _______ _____ _____    ______ ____
ROOT
ATOM      1  N   UNL     1      35.983 -19.656 -20.772  0.00  0.00    +0.387 N 
ATOM      2  C   UNL     1      35.559 -18.619 -23.483  0.00  0.00    +0.039 C 
ATOM      3  C   UNL     1      34.467 -19.374 -22.708  0.00  0.00    -0.017 C 
ATOM      4  C   UNL     1      36.547 -17.974 -22.498  0.00  0.00    -0.017 C 
ATOM      5  C   UNL     1      35.076 -20.349 -21.698  0.00  0.00    -0.077 C 
ATOM      6  C   UNL     1      37.081 -19.000 -21.496  0.00  0.00    -0.077 C 
ATOM      7  H   UNL     1      35.448 -18.933 -20.290  0.00  0.00    -0.080 HD
ENDROOT
BRANCH   2  11
ATOM      8  F   UNL     1      33.731 -12.324 -24.986  0.00  0.00    -0.204 F 
ATOM      9  O   UNL     1      34.167 -16.919 -26.339  0.00  0.00    -0.354 OA
ATOM     10  N   UNL     1      34.636 -18.053 -25.687  0.00  0.00    -0.081 NA
ATOM     11  C   UNL     1      34.993 -17.629 -24.476  0.00  0.00    +0.100 A 
ATOM     12  C   UNL     1      34.781 -16.255 -24.290  0.00  0.00    +0.054 A 
ATOM     13  C   UNL     1      34.254 -15.848 -25.503  0.00  0.00    +0.179 A 
ATOM     14  C   UNL     1      34.961 -15.306 -23.272  0.00  0.00    +0.007 C 
ATOM     15  C   UNL     1      33.883 -14.539 -25.797  0.00  0.00    +0.070 C 
ATOM     16  C   UNL     1      34.596 -13.978 -23.534  0.00  0.00    +0.030 C 
ATOM     17  C   UNL     1      34.067 -13.605 -24.774  0.00  0.00    +0.143 C 
ENDBRANCH   2  11
BRANCH   1  18
ATOM     18  C   UNL     1      36.511 -20.591 -19.779  0.00  0.00    -0.076 C 
BRANCH  18  19
ATOM     19  C   UNL     1      35.808 -21.935 -19.908  0.00  0.00    -0.007 C 
BRANCH  19  23
ATOM     20  O   UNL     1      33.082 -22.322 -19.501  0.00  0.00    -0.274 OA
ATOM     21  N   UNL     1      33.299 -23.093 -17.313  0.00  0.00    -0.235 N 
ATOM     22  N   UNL     1      35.431 -23.068 -16.285  0.00  0.00    -0.397 NA
ATOM     23  C   UNL     1      35.261 -22.382 -18.583  0.00  0.00    +0.123 C 
ATOM     24  C   UNL     1      31.850 -23.278 -17.204  0.00  0.00    +0.100 C 
ATOM     25  C   UNL     1      33.582 -23.833 -14.935  0.00  0.00    +0.177 C 
ATOM     26  C   UNL     1      31.416 -24.191 -16.074  0.00  0.00    +0.025 C 
ATOM     27  C   UNL     1      32.077 -23.723 -14.795  0.00  0.00    +0.040 C 
ATOM     28  C   UNL     1      34.152 -23.280 -16.237  0.00  0.00    +0.192 C 
ATOM     29  C   UNL     1      33.782 -22.596 -18.526  0.00  0.00    +0.237 C 
ATOM     30  C   UNL     1      35.973 -22.620 -17.464  0.00  0.00    +0.097 C 
ATOM     31  C   UNL     1      37.460 -22.399 -17.376  0.00  0.00    +0.062 C 
BRANCH  25  32
ATOM     32  O   UNL     1      34.194 -23.145 -13.853  0.00  0.00    -0.376 OA
ATOM     33  H   UNL     1      34.957 -22.644 -14.178  0.00  0.00    +0.211 HD
ENDBRANCH  25  32
ENDBRANCH  19  23
ENDBRANCH  18  19
ENDBRANCH   1  18
TORSDOF 5
ENDMDL
MODEL 2
REMARK VINA RESULT:     -12.5      3.438     10.464
REMARK  Name = 115237
REMARK  5 active torsions:
REMARK  status: ('A' for Active; 'I' for Inactive)
REMARK    1  A    between atoms: N_1  and  C_18
REMARK    2  A    between atoms: C_2  and  C_11
REMARK    3  A    between atoms: C_18  and  C_19
REMARK    4  A    between atoms: C_19  and  C_23
REMARK    5  A    between atoms: C_25  and  O_32
REMARK                            x       y       z     vdW  Elec       q    Type
REMARK                         _______ _______ _______ _____ _____    ______ ____
ROOT
ATOM      1  N   UNL     1      34.812 -20.735 -20.405  0.00  0.00    +0.387 N 
ATOM      2  C   UNL     1      34.595 -22.806 -18.339  0.00  0.00    +0.039 C 
ATOM      3  C   UNL     1      35.901 -22.041 -18.607  0.00  0.00    -0.017 C 
ATOM      4  C   UNL     1      33.392 -21.960 -18.790  0.00  0.00    -0.017 C 
ATOM      5  C   UNL     1      35.976 -21.562 -20.058  0.00  0.00    -0.077 C 
ATOM      6  C   UNL     1      33.559 -21.484 -20.234  0.00  0.00    -0.077 C 
ATOM      7  H   UNL     1      34.791 -19.938 -19.768  0.00  0.00    -0.080 HD
ENDROOT
BRANCH   2  11
ATOM      8  F   UNL     1      30.762 -24.097 -12.966  0.00  0.00    -0.204 F 
ATOM      9  O   UNL     1      35.126 -24.020 -14.989  0.00  0.00    -0.354 OA
ATOM     10  N   UNL     1      35.572 -23.653 -16.252  0.00  0.00    -0.081 NA
ATOM     11  C   UNL     1      34.475 -23.276 -16.907  0.00  0.00    +0.100 A 
ATOM     12  C   UNL     1      33.311 -23.375 -16.132  0.00  0.00    +0.054 A 
ATOM     13  C   UNL     1      33.776 -23.854 -14.919  0.00  0.00    +0.179 A 
ATOM     14  C   UNL     1      31.938 -23.129 -16.286  0.00  0.00    +0.007 C 
ATOM     15  C   UNL     1      32.967 -24.116 -13.818  0.00  0.00    +0.070 C 
ATOM     16  C   UNL     1      31.094 -23.382 -15.195  0.00  0.00    +0.030 C 
ATOM     17  C   UNL     1      31.602 -23.867 -13.986  0.00  0.00    +0.143 C 
ENDBRANCH   2  11
BRANCH   1  18
ATOM     18  C   UNL     1      34.928 -20.239 -21.776  0.00  0.00    -0.076 C 
BRANCH  18  19
ATOM     19  C   UNL     1      35.859 -19.035 -21.814  0.00  0.00    -0.007 C 
BRANCH  19  23
ATOM     20  O   UNL     1      35.307 -16.416 -21.050  0.00  0.00    -0.274 OA
ATOM     21  N   UNL     1      34.790 -15.671 -23.196  0.00  0.00    -0.235 N 
ATOM     22  N   UNL     1      34.715 -17.231 -24.974  0.00  0.00    -0.397 NA
ATOM     23  C   UNL     1      35.370 -18.010 -22.796  0.00  0.00    +0.123 C 
ATOM     24  C   UNL     1      34.538 -14.317 -22.696  0.00  0.00    +0.100 C 
ATOM     25  C   UNL     1      34.160 -14.945 -25.511  0.00  0.00    +0.177 C 
ATOM     26  C   UNL     1      34.557 -13.240 -23.763  0.00  0.00    +0.025 C 
ATOM     27  C   UNL     1      33.640 -13.662 -24.892  0.00  0.00    +0.040 C 
ATOM     28  C   UNL     1      34.557 -16.029 -24.514  0.00  0.00    +0.192 C 
ATOM     29  C   UNL     1      35.163 -16.632 -22.253  0.00  0.00    +0.237 C 
ATOM     30  C   UNL     1      35.122 -18.213 -24.105  0.00  0.00    +0.097 C 
ATOM     31  C   UNL     1      35.247 -19.561 -24.763  0.00  0.00    +0.062 C 
BRANCH  25  32
ATOM     32  O   UNL     1      33.163 -15.474 -26.372  0.00  0.00    -0.376 OA
ATOM     33  H   UNL     1      32.671 -14.746 -26.783  0.00  0.00    +0.211 HD
ENDBRANCH  25  32
ENDBRANCH  19  23
ENDBRANCH  18  19
ENDBRANCH   1  18
TORSDOF 5
ENDMDL
MODEL 3
REMARK VINA RESULT:     -12.2      3.427     10.398
REMARK  Name = 115237
REMARK  5 active torsions:
REMARK  status: ('A' for Active; 'I' for Inactive)
REMARK    1  A    between atoms: N_1  and  C_18
REMARK    2  A    between atoms: C_2  and  C_11
REMARK    3  A    between atoms: C_18  and  C_19
REMARK    4  A    between atoms: C_19  and  C_23
REMARK    5  A    between atoms: C_25  and  O_32
REMARK                            x       y       z     vdW  Elec       q    Type
REMARK                         _______ _______ _______ _____ _____    ______ ____
ROOT
ATOM      1  N   UNL     1      35.845 -19.124 -21.438  0.00  0.00    +0.387 N 
ATOM      2  C   UNL     1      35.022 -21.571 -20.045  0.00  0.00    +0.039 C 
ATOM      3  C   UNL     1      36.372 -20.885 -19.781  0.00  0.00    -0.017 C 
ATOM      4  C   UNL     1      34.009 -20.543 -20.576  0.00  0.00    -0.017 C 
ATOM      5  C   UNL     1      36.850 -20.107 -21.009  0.00  0.00    -0.077 C 
ATOM      6  C   UNL     1      34.573 -19.777 -21.775  0.00  0.00    -0.077 C 
ATOM      7  H   UNL     1      35.675 -18.488 -20.658  0.00  0.00    -0.080 HD
ENDROOT
BRANCH   2  11
ATOM      8  F   UNL     1      36.066 -24.081 -13.894  0.00  0.00    -0.204 F 
ATOM      9  O   UNL     1      33.104 -23.431 -17.628  0.00  0.00    -0.354 OA
ATOM     10  N   UNL     1      33.259 -22.794 -18.853  0.00  0.00    -0.081 NA
ATOM     11  C   UNL     1      34.508 -22.332 -18.844  0.00  0.00    +0.100 A 
ATOM     12  C   UNL     1      35.197 -22.633 -17.661  0.00  0.00    +0.054 A 
ATOM     13  C   UNL     1      34.262 -23.333 -16.918  0.00  0.00    +0.179 A 
ATOM     14  C   UNL     1      36.471 -22.412 -17.118  0.00  0.00    +0.007 C 
ATOM     15  C   UNL     1      34.495 -23.844 -15.645  0.00  0.00    +0.070 C 
ATOM     16  C   UNL     1      36.741 -22.914 -15.837  0.00  0.00    +0.030 C 
ATOM     17  C   UNL     1      35.769 -23.617 -15.116  0.00  0.00    +0.143 C 
ENDBRANCH   2  11
BRANCH   1  18
ATOM     18  C   UNL     1      36.340 -18.350 -22.576  0.00  0.00    -0.076 C 
BRANCH  18  19
ATOM     19  C   UNL     1      35.247 -18.217 -23.627  0.00  0.00    -0.007 C 
BRANCH  19  23
ATOM     20  O   UNL     1      34.773 -17.284 -26.206  0.00  0.00    -0.274 OA
ATOM     21  N   UNL     1      34.297 -15.097 -25.560  0.00  0.00    -0.235 N 
ATOM     22  N   UNL     1      34.563 -14.479 -23.291  0.00  0.00    -0.397 NA
ATOM     23  C   UNL     1      34.944 -16.773 -23.903  0.00  0.00    +0.123 C 
ATOM     24  C   UNL     1      34.053 -14.709 -26.951  0.00  0.00    +0.100 C 
ATOM     25  C   UNL     1      33.881 -12.740 -24.818  0.00  0.00    +0.177 C 
ATOM     26  C   UNL     1      33.269 -13.421 -27.115  0.00  0.00    +0.025 C 
ATOM     27  C   UNL     1      33.929 -12.345 -26.281  0.00  0.00    +0.040 C 
ATOM     28  C   UNL     1      34.294 -14.178 -24.523  0.00  0.00    +0.192 C 
ATOM     29  C   UNL     1      34.662 -16.427 -25.331  0.00  0.00    +0.237 C 
ATOM     30  C   UNL     1      34.887 -15.780 -22.994  0.00  0.00    +0.097 C 
ATOM     31  C   UNL     1      35.194 -15.987 -21.535  0.00  0.00    +0.062 C 
BRANCH  25  32
ATOM     32  O   UNL     1      34.731 -11.872 -24.082  0.00  0.00    -0.376 OA
ATOM     33  H   UNL     1      34.208 -11.145 -23.711  0.00  0.00    +0.211 HD
ENDBRANCH  25  32
ENDBRANCH  19  23
ENDBRANCH  18  19
ENDBRANCH   1  18
TORSDOF 5
ENDMDL
MODEL 4
REMARK VINA RESULT:     -12.1      2.390      4.055
REMARK  Name = 115237
REMARK  5 active torsions:
REMARK  status: ('A' for Active; 'I' for Inactive)
REMARK    1  A    between atoms: N_1  and  C_18
REMARK    2  A    between atoms: C_2  and  C_11
REMARK    3  A    between atoms: C_18  and  C_19
REMARK    4  A    between atoms: C_19  and  C_23
REMARK    5  A    between atoms: C_25  and  O_32
REMARK                            x       y       z     vdW  Elec       q    Type
REMARK                         _______ _______ _______ _____ _____    ______ ____
ROOT
ATOM      1  N   UNL     1      34.536 -22.059 -18.980  0.00  0.00    +0.387 N 
ATOM      2  C   UNL     1      35.083 -20.281 -21.248  0.00  0.00    +0.039 C 
ATOM      3  C   UNL     1      33.694 -20.386 -20.598  0.00  0.00    -0.017 C 
ATOM      4  C   UNL     1      36.166 -20.680 -20.232  0.00  0.00    -0.017 C 
ATOM      5  C   UNL     1      33.482 -21.761 -19.960  0.00  0.00    -0.077 C 
ATOM      6  C   UNL     1      35.865 -22.044 -19.607  0.00  0.00    -0.077 C 
ATOM      7  H   UNL     1      34.517 -21.329 -18.267  0.00  0.00    -0.080 HD
ENDROOT
BRANCH   2  11
ATOM      8  F   UNL     1      34.610 -16.152 -26.535  0.00  0.00    -0.204 F 
ATOM      9  O   UNL     1      36.014 -16.881 -21.992  0.00  0.00    -0.354 OA
ATOM     10  N   UNL     1      35.934 -17.980 -21.147  0.00  0.00    -0.081 NA
ATOM     11  C   UNL     1      35.336 -18.926 -21.869  0.00  0.00    +0.100 A 
ATOM     12  C   UNL     1      35.012 -18.504 -23.167  0.00  0.00    +0.054 A 
ATOM     13  C   UNL     1      35.463 -17.195 -23.197  0.00  0.00    +0.179 A 
ATOM     14  C   UNL     1      34.404 -19.042 -24.311  0.00  0.00    +0.007 C 
ATOM     15  C   UNL     1      35.356 -16.354 -24.301  0.00  0.00    +0.070 C 
ATOM     16  C   UNL     1      34.280 -18.222 -25.442  0.00  0.00    +0.030 C 
ATOM     17  C   UNL     1      34.748 -16.904 -25.433  0.00  0.00    +0.143 C 
ENDBRANCH   2  11
BRANCH   1  18
ATOM     18  C   UNL     1      34.287 -23.350 -18.338  0.00  0.00    -0.076 C 
BRANCH  18  19
ATOM     19  C   UNL     1      33.238 -23.192 -17.247  0.00  0.00    -0.007 C 
BRANCH  19  23
ATOM     20  O   UNL     1      35.963 -22.981 -16.721  0.00  0.00    -0.274 OA
ATOM     21  N   UNL     1      35.792 -23.549 -14.468  0.00  0.00    -0.235 N 
ATOM     22  N   UNL     1      33.695 -24.221 -13.602  0.00  0.00    -0.397 NA
ATOM     23  C   UNL     1      33.813 -23.525 -15.900  0.00  0.00    +0.123 C 
ATOM     24  C   UNL     1      37.238 -23.396 -14.291  0.00  0.00    +0.100 C 
ATOM     25  C   UNL     1      35.562 -24.251 -12.073  0.00  0.00    +0.177 C 
ATOM     26  C   UNL     1      37.680 -23.238 -12.849  0.00  0.00    +0.025 C 
ATOM     27  C   UNL     1      37.074 -24.358 -12.032  0.00  0.00    +0.040 C 
ATOM     28  C   UNL     1      34.968 -24.020 -13.459  0.00  0.00    +0.192 C 
ATOM     29  C   UNL     1      35.286 -23.317 -15.750  0.00  0.00    +0.237 C 
ATOM     30  C   UNL     1      33.129 -23.970 -14.827  0.00  0.00    +0.097 C 
ATOM     31  C   UNL     1      31.653 -24.263 -14.861  0.00  0.00    +0.062 C 
BRANCH  25  32
ATOM     32  O   UNL     1      35.004 -25.444 -11.542  0.00  0.00    -0.376 OA
ATOM     33  H   UNL     1      35.095 -26.160 -12.189  0.00  0.00    +0.211 HD
ENDBRANCH  25  32
ENDBRANCH  19  23
ENDBRANCH  18  19
ENDBRANCH   1  18
TORSDOF 5
ENDMDL
MODEL 5
REMARK VINA RESULT:     -12.0      5.165     11.000
REMARK  Name = 115237
REMARK  5 active torsions:
REMARK  status: ('A' for Active; 'I' for Inactive)
REMARK    1  A    between atoms: N_1  and  C_18
REMARK    2  A    between atoms: C_2  and  C_11
REMARK    3  A    between atoms: C_18  and  C_19
REMARK    4  A    between atoms: C_19  and  C_23
REMARK    5  A    between atoms: C_25  and  O_32
REMARK                            x       y       z     vdW  Elec       q    Type
REMARK                         _______ _______ _______ _____ _____    ______ ____
ROOT
ATOM      1  N   UNL     1      35.071 -14.612 -23.179  0.00  0.00    +0.387 N 
ATOM      2  C   UNL     1      34.996 -17.357 -22.147  0.00  0.00    +0.039 C 
ATOM      3  C   UNL     1      35.613 -17.004 -23.510  0.00  0.00    -0.017 C 
ATOM      4  C   UNL     1      35.034 -16.128 -21.223  0.00  0.00    -0.017 C 
ATOM      5  C   UNL     1      34.968 -15.750 -24.103  0.00  0.00    -0.077 C 
ATOM      6  C   UNL     1      34.410 -14.906 -21.899  0.00  0.00    -0.077 C 
ATOM      7  H   UNL     1      36.061 -14.448 -22.991  0.00  0.00    -0.080 HD
ENDROOT
BRANCH   2  11
ATOM      8  F   UNL     1      34.308 -23.367 -19.210  0.00  0.00    -0.204 F 
ATOM      9  O   UNL     1      37.201 -19.878 -20.820  0.00  0.00    -0.354 OA
ATOM     10  N   UNL     1      36.952 -18.656 -21.432  0.00  0.00    -0.081 NA
ATOM     11  C   UNL     1      35.626 -18.580 -21.519  0.00  0.00    +0.100 A 
ATOM     12  C   UNL     1      34.975 -19.703 -20.989  0.00  0.00    +0.054 A 
ATOM     13  C   UNL     1      36.019 -20.501 -20.557  0.00  0.00    +0.179 A 
ATOM     14  C   UNL     1      33.657 -20.152 -20.817  0.00  0.00    +0.007 C 
ATOM     15  C   UNL     1      35.858 -21.744 -19.951  0.00  0.00    +0.070 C 
ATOM     16  C   UNL     1      33.458 -21.400 -20.209  0.00  0.00    +0.030 C 
ATOM     17  C   UNL     1      34.540 -22.179 -19.786  0.00  0.00    +0.143 C 
ENDBRANCH   2  11
BRANCH   1  18
ATOM     18  C   UNL     1      34.502 -13.408 -23.784  0.00  0.00    -0.076 C 
BRANCH  18  19
ATOM     19  C   UNL     1      33.051 -13.246 -23.350  0.00  0.00    -0.007 C 
BRANCH  19  23
ATOM     20  O   UNL     1      33.826 -10.883 -24.600  0.00  0.00    -0.274 OA
ATOM     21  N   UNL     1      32.962  -9.477 -22.955  0.00  0.00    -0.235 N 
ATOM     22  N   UNL     1      32.059 -10.425 -20.983  0.00  0.00    -0.397 NA
ATOM     23  C   UNL     1      32.830 -11.905 -22.713  0.00  0.00    +0.123 C 
ATOM     24  C   UNL     1      33.397  -8.293 -23.699  0.00  0.00    +0.100 C 
ATOM     25  C   UNL     1      32.092  -8.015 -21.114  0.00  0.00    +0.177 C 
ATOM     26  C   UNL     1      32.711  -7.005 -23.285  0.00  0.00    +0.025 C 
ATOM     27  C   UNL     1      32.817  -6.863 -21.782  0.00  0.00    +0.040 C 
ATOM     28  C   UNL     1      32.400  -9.393 -21.691  0.00  0.00    +0.192 C 
ATOM     29  C   UNL     1      33.252 -10.720 -23.523  0.00  0.00    +0.237 C 
ATOM     30  C   UNL     1      32.279 -11.675 -21.505  0.00  0.00    +0.097 C 
ATOM     31  C   UNL     1      31.854 -12.780 -20.575  0.00  0.00    +0.062 C 
BRANCH  25  32
ATOM     32  O   UNL     1      32.425  -8.026 -19.733  0.00  0.00    -0.376 OA
ATOM     33  H   UNL     1      33.210  -7.477 -19.585  0.00  0.00    +0.211 HD
ENDBRANCH  25  32
ENDBRANCH  19  23
ENDBRANCH  18  19
ENDBRANCH   1  18
TORSDOF 5
ENDMDL
MODEL 6
REMARK VINA RESULT:     -12.0      4.630     10.711
REMARK  Name = 115237
REMARK  5 active torsions:
REMARK  status: ('A' for Active; 'I' for Inactive)
REMARK    1  A    between atoms: N_1  and  C_18
REMARK    2  A    between atoms: C_2  and  C_11
REMARK    3  A    between atoms: C_18  and  C_19
REMARK    4  A    between atoms: C_19  and  C_23
REMARK    5  A    between atoms: C_25  and  O_32
REMARK                            x       y       z     vdW  Elec       q    Type
REMARK                         _______ _______ _______ _____ _____    ______ ____
ROOT
ATOM      1  N   UNL     1      35.379 -15.511 -23.693  0.00  0.00    +0.387 N 
ATOM      2  C   UNL     1      35.074 -18.008 -22.185  0.00  0.00    +0.039 C 
ATOM      3  C   UNL     1      35.637 -17.971 -23.615  0.00  0.00    -0.017 C 
ATOM      4  C   UNL     1      35.303 -16.651 -21.498  0.00  0.00    -0.017 C 
ATOM      5  C   UNL     1      35.095 -16.771 -24.394  0.00  0.00    -0.077 C 
ATOM      6  C   UNL     1      34.773 -15.499 -22.355  0.00  0.00    -0.077 C 
ATOM      7  H   UNL     1      36.390 -15.435 -23.582  0.00  0.00    -0.080 HD
ENDROOT
BRANCH   2  11
ATOM      8  F   UNL     1      33.927 -23.573 -18.588  0.00  0.00    -0.204 F 
ATOM      9  O   UNL     1      37.074 -20.438 -20.432  0.00  0.00    -0.354 OA
ATOM     10  N   UNL     1      36.921 -19.292 -21.202  0.00  0.00    -0.081 NA
ATOM     11  C   UNL     1      35.606 -19.170 -21.377  0.00  0.00    +0.100 A 
ATOM     12  C   UNL     1      34.872 -20.189 -20.754  0.00  0.00    +0.054 A 
ATOM     13  C   UNL     1      35.850 -20.972 -20.166  0.00  0.00    +0.179 A 
ATOM     14  C   UNL     1      33.526 -20.557 -20.609  0.00  0.00    +0.007 C 
ATOM     15  C   UNL     1      35.594 -22.122 -19.426  0.00  0.00    +0.070 C 
ATOM     16  C   UNL     1      33.232 -21.710 -19.867  0.00  0.00    +0.030 C 
ATOM     17  C   UNL     1      34.249 -22.476 -19.289  0.00  0.00    +0.143 C 
ENDBRANCH   2  11
BRANCH   1  18
ATOM     18  C   UNL     1      34.906 -14.372 -24.479  0.00  0.00    -0.076 C 
BRANCH  18  19
ATOM     19  C   UNL     1      33.469 -14.041 -24.099  0.00  0.00    -0.007 C 
BRANCH  19  23
ATOM     20  O   UNL     1      32.125 -13.205 -21.810  0.00  0.00    -0.274 OA
ATOM     21  N   UNL     1      32.578 -10.939 -22.110  0.00  0.00    -0.235 N 
ATOM     22  N   UNL     1      33.671 -10.232 -24.086  0.00  0.00    -0.397 NA
ATOM     23  C   UNL     1      33.329 -12.588 -23.750  0.00  0.00    +0.123 C 
ATOM     24  C   UNL     1      31.860 -10.604 -20.878  0.00  0.00    +0.100 C 
ATOM     25  C   UNL     1      33.018  -8.508 -22.529  0.00  0.00    +0.177 C 
ATOM     26  C   UNL     1      32.185  -9.233 -20.316  0.00  0.00    +0.025 C 
ATOM     27  C   UNL     1      32.028  -8.209 -21.419  0.00  0.00    +0.040 C 
ATOM     28  C   UNL     1      33.083  -9.970 -22.960  0.00  0.00    +0.192 C 
ATOM     29  C   UNL     1      32.625 -12.291 -22.464  0.00  0.00    +0.237 C 
ATOM     30  C   UNL     1      33.788 -11.545 -24.470  0.00  0.00    +0.097 C 
ATOM     31  C   UNL     1      34.472 -11.706 -25.801  0.00  0.00    +0.062 C 
BRANCH  25  32
ATOM     32  O   UNL     1      32.683  -7.722 -23.664  0.00  0.00    -0.376 OA
ATOM     33  H   UNL     1      32.881  -6.791 -23.482  0.00  0.00    +0.211 HD
ENDBRANCH  25  32
ENDBRANCH  19  23
ENDBRANCH  18  19
ENDBRANCH   1  18
TORSDOF 5
ENDMDL
MODEL 7
REMARK VINA RESULT:     -11.9      3.727     10.577
REMARK  Name = 115237
REMARK  5 active torsions:
REMARK  status: ('A' for Active; 'I' for Inactive)
REMARK    1  A    between atoms: N_1  and  C_18
REMARK    2  A    between atoms: C_2  and  C_11
REMARK    3  A    between atoms: C_18  and  C_19
REMARK    4  A    between atoms: C_19  and  C_23
REMARK    5  A    between atoms: C_25  and  O_32
REMARK                            x       y       z     vdW  Elec       q    Type
REMARK                         _______ _______ _______ _____ _____    ______ ____
ROOT
ATOM      1  N   UNL     1      34.825 -20.839 -20.280  0.00  0.00    +0.387 N 
ATOM      2  C   UNL     1      34.697 -22.838 -18.137  0.00  0.00    +0.039 C 
ATOM      3  C   UNL     1      35.957 -22.001 -18.410  0.00  0.00    -0.017 C 
ATOM      4  C   UNL     1      33.453 -22.089 -18.643  0.00  0.00    -0.017 C 
ATOM      5  C   UNL     1      36.032 -21.575 -19.878  0.00  0.00    -0.077 C 
ATOM      6  C   UNL     1      33.619 -21.660 -20.103  0.00  0.00    -0.077 C 
ATOM      7  H   UNL     1      34.740 -20.021 -19.676  0.00  0.00    -0.080 HD
ENDROOT
BRANCH   2  11
ATOM      8  F   UNL     1      37.641 -24.537 -12.334  0.00  0.00    -0.204 F 
ATOM      9  O   UNL     1      33.603 -23.788 -14.838  0.00  0.00    -0.354 OA
ATOM     10  N   UNL     1      33.367 -23.406 -16.153  0.00  0.00    -0.081 NA
ATOM     11  C   UNL     1      34.577 -23.258 -16.689  0.00  0.00    +0.100 A 
ATOM     12  C   UNL     1      35.615 -23.527 -15.786  0.00  0.00    +0.054 A 
ATOM     13  C   UNL     1      34.945 -23.860 -14.622  0.00  0.00    +0.179 A 
ATOM     14  C   UNL     1      37.018 -23.534 -15.790  0.00  0.00    +0.007 C 
ATOM     15  C   UNL     1      35.571 -24.208 -13.428  0.00  0.00    +0.070 C 
ATOM     16  C   UNL     1      37.682 -23.881 -14.605  0.00  0.00    +0.030 C 
ATOM     17  C   UNL     1      36.969 -24.211 -13.448  0.00  0.00    +0.143 C 
ENDBRANCH   2  11
BRANCH   1  18
ATOM     18  C   UNL     1      34.938 -20.390 -21.667  0.00  0.00    -0.076 C 
BRANCH  18  19
ATOM     19  C   UNL     1      35.897 -19.210 -21.753  0.00  0.00    -0.007 C 
BRANCH  19  23
ATOM     20  O   UNL     1      35.355 -16.584 -21.008  0.00  0.00    -0.274 OA
ATOM     21  N   UNL     1      34.831 -15.855 -23.158  0.00  0.00    -0.235 N 
ATOM     22  N   UNL     1      34.743 -17.429 -24.922  0.00  0.00    -0.397 NA
ATOM     23  C   UNL     1      35.406 -18.193 -22.741  0.00  0.00    +0.123 C 
ATOM     24  C   UNL     1      34.584 -14.497 -22.667  0.00  0.00    +0.100 C 
ATOM     25  C   UNL     1      34.193 -15.146 -25.475  0.00  0.00    +0.177 C 
ATOM     26  C   UNL     1      34.601 -13.428 -23.744  0.00  0.00    +0.025 C 
ATOM     27  C   UNL     1      33.679 -13.857 -24.864  0.00  0.00    +0.040 C 
ATOM     28  C   UNL     1      34.591 -16.223 -24.472  0.00  0.00    +0.192 C 
ATOM     29  C   UNL     1      35.205 -16.809 -22.208  0.00  0.00    +0.237 C 
ATOM     30  C   UNL     1      35.151 -18.405 -24.047  0.00  0.00    +0.097 C 
ATOM     31  C   UNL     1      35.271 -19.759 -24.695  0.00  0.00    +0.062 C 
BRANCH  25  32
ATOM     32  O   UNL     1      33.190 -15.679 -26.328  0.00  0.00    -0.376 OA
ATOM     33  H   UNL     1      32.419 -15.090 -26.329  0.00  0.00    +0.211 HD
ENDBRANCH  25  32
ENDBRANCH  19  23
ENDBRANCH  18  19
ENDBRANCH   1  18
TORSDOF 5
ENDMDL
MODEL 8
REMARK VINA RESULT:     -11.8      1.866      2.728
REMARK  Name = 115237
REMARK  5 active torsions:
REMARK  status: ('A' for Active; 'I' for Inactive)
REMARK    1  A    between atoms: N_1  and  C_18
REMARK    2  A    between atoms: C_2  and  C_11
REMARK    3  A    between atoms: C_18  and  C_19
REMARK    4  A    between atoms: C_19  and  C_23
REMARK    5  A    between atoms: C_25  and  O_32
REMARK                            x       y       z     vdW  Elec       q    Type
REMARK                         _______ _______ _______ _____ _____    ______ ____
ROOT
ATOM      1  N   UNL     1      34.966 -22.127 -19.994  0.00  0.00    +0.387 N 
ATOM      2  C   UNL     1      35.173 -19.419 -21.101  0.00  0.00    +0.039 C 
ATOM      3  C   UNL     1      36.385 -20.356 -20.982  0.00  0.00    -0.017 C 
ATOM      4  C   UNL     1      33.878 -20.246 -21.179  0.00  0.00    -0.017 C 
ATOM      5  C   UNL     1      36.205 -21.353 -19.835  0.00  0.00    -0.077 C 
ATOM      6  C   UNL     1      33.790 -21.247 -20.025  0.00  0.00    -0.077 C 
ATOM      7  H   UNL     1      35.014 -22.618 -20.888  0.00  0.00    -0.080 HD
ENDROOT
BRANCH   2  11
ATOM      8  F   UNL     1      34.859 -13.090 -23.355  0.00  0.00    -0.204 F 
ATOM      9  O   UNL     1      35.681 -17.744 -24.251  0.00  0.00    -0.354 OA
ATOM     10  N   UNL     1      35.645 -18.878 -23.449  0.00  0.00    -0.081 NA
ATOM     11  C   UNL     1      35.305 -18.434 -22.241  0.00  0.00    +0.100 A 
ATOM     12  C   UNL     1      35.112 -17.045 -22.200  0.00  0.00    +0.054 A 
ATOM     13  C   UNL     1      35.362 -16.652 -23.503  0.00  0.00    +0.179 A 
ATOM     14  C   UNL     1      34.763 -16.074 -21.250  0.00  0.00    +0.007 C 
ATOM     15  C   UNL     1      35.294 -15.336 -23.952  0.00  0.00    +0.070 C 
ATOM     16  C   UNL     1      34.684 -14.738 -21.668  0.00  0.00    +0.030 C 
ATOM     17  C   UNL     1      34.945 -14.379 -22.994  0.00  0.00    +0.143 C 
ENDBRANCH   2  11
BRANCH   1  18
ATOM     18  C   UNL     1      34.839 -23.114 -18.922  0.00  0.00    -0.076 C 
BRANCH  18  19
ATOM     19  C   UNL     1      34.686 -22.407 -17.583  0.00  0.00    -0.007 C 
BRANCH  19  23
ATOM     20  O   UNL     1      31.933 -22.275 -17.973  0.00  0.00    -0.274 OA
ATOM     21  N   UNL     1      31.403 -23.778 -16.273  0.00  0.00    -0.235 N 
ATOM     22  N   UNL     1      33.128 -24.597 -14.875  0.00  0.00    -0.397 NA
ATOM     23  C   UNL     1      33.725 -23.143 -16.695  0.00  0.00    +0.123 C 
ATOM     24  C   UNL     1      29.974 -23.652 -16.568  0.00  0.00    +0.100 C 
ATOM     25  C   UNL     1      30.885 -25.333 -14.377  0.00  0.00    +0.177 C 
ATOM     26  C   UNL     1      29.117 -24.772 -16.012  0.00  0.00    +0.025 C 
ATOM     27  C   UNL     1      29.431 -24.936 -14.541  0.00  0.00    +0.040 C 
ATOM     28  C   UNL     1      31.875 -24.513 -15.197  0.00  0.00    +0.192 C 
ATOM     29  C   UNL     1      32.278 -23.019 -17.055  0.00  0.00    +0.237 C 
ATOM     30  C   UNL     1      34.043 -23.908 -15.632  0.00  0.00    +0.097 C 
ATOM     31  C   UNL     1      35.456 -24.077 -15.139  0.00  0.00    +0.062 C 
BRANCH  25  32
ATOM     32  O   UNL     1      31.239 -25.218 -13.006  0.00  0.00    -0.376 OA
ATOM     33  H   UNL     1      30.641 -25.763 -12.471  0.00  0.00    +0.211 HD
ENDBRANCH  25  32
ENDBRANCH  19  23
ENDBRANCH  18  19
ENDBRANCH   1  18
TORSDOF 5
ENDMDL
MODEL 9
REMARK VINA RESULT:     -11.8      2.475      3.481
REMARK  Name = 115237
REMARK  5 active torsions:
REMARK  status: ('A' for Active; 'I' for Inactive)
REMARK    1  A    between atoms: N_1  and  C_18
REMARK    2  A    between atoms: C_2  and  C_11
REMARK    3  A    between atoms: C_18  and  C_19
REMARK    4  A    between atoms: C_19  and  C_23
REMARK    5  A    between atoms: C_25  and  O_32
REMARK                            x       y       z     vdW  Elec       q    Type
REMARK                         _______ _______ _______ _____ _____    ______ ____
ROOT
ATOM      1  N   UNL     1      36.324 -20.438 -19.940  0.00  0.00    +0.387 N 
ATOM      2  C   UNL     1      35.887 -18.939 -22.423  0.00  0.00    +0.039 C 
ATOM      3  C   UNL     1      34.729 -19.515 -21.592  0.00  0.00    -0.017 C 
ATOM      4  C   UNL     1      37.110 -18.705 -21.521  0.00  0.00    -0.017 C 
ATOM      5  C   UNL     1      35.173 -20.747 -20.800  0.00  0.00    -0.077 C 
ATOM      6  C   UNL     1      37.468 -19.966 -20.732  0.00  0.00    -0.077 C 
ATOM      7  H   UNL     1      36.050 -19.688 -19.305  0.00  0.00    -0.080 HD
ENDROOT
BRANCH   2  11
ATOM      8  F   UNL     1      33.905 -12.513 -22.483  0.00  0.00    -0.204 F 
ATOM      9  O   UNL     1      35.080 -16.483 -24.932  0.00  0.00    -0.354 OA
ATOM     10  N   UNL     1      35.480 -17.752 -24.533  0.00  0.00    -0.081 NA
ATOM     11  C   UNL     1      35.490 -17.706 -23.202  0.00  0.00    +0.100 A 
ATOM     12  C   UNL     1      35.114 -16.455 -22.693  0.00  0.00    +0.054 A 
ATOM     13  C   UNL     1      34.863 -15.710 -23.832  0.00  0.00    +0.179 A 
ATOM     14  C   UNL     1      34.953 -15.852 -21.436  0.00  0.00    +0.007 C 
ATOM     15  C   UNL     1      34.454 -14.380 -23.826  0.00  0.00    +0.070 C 
ATOM     16  C   UNL     1      34.541 -14.513 -21.393  0.00  0.00    +0.030 C 
ATOM     17  C   UNL     1      34.297 -13.793 -22.567  0.00  0.00    +0.143 C 
ENDBRANCH   2  11
BRANCH   1  18
ATOM     18  C   UNL     1      36.699 -21.610 -19.148  0.00  0.00    -0.076 C 
BRANCH  18  19
ATOM     19  C   UNL     1      36.476 -21.328 -17.669  0.00  0.00    -0.007 C 
BRANCH  19  23
ATOM     20  O   UNL     1      38.826 -22.297 -16.537  0.00  0.00    -0.274 OA
ATOM     21  N   UNL     1      37.821 -24.110 -15.473  0.00  0.00    -0.235 N 
ATOM     22  N   UNL     1      35.527 -24.547 -15.856  0.00  0.00    -0.397 NA
ATOM     23  C   UNL     1      36.505 -22.600 -16.871  0.00  0.00    +0.123 C 
ATOM     24  C   UNL     1      39.107 -24.529 -14.911  0.00  0.00    +0.100 C 
ATOM     25  C   UNL     1      36.703 -26.092 -14.422  0.00  0.00    +0.177 C 
ATOM     26  C   UNL     1      38.998 -25.478 -13.733  0.00  0.00    +0.025 C 
ATOM     27  C   UNL     1      38.090 -26.626 -14.120  0.00  0.00    +0.040 C 
ATOM     28  C   UNL     1      36.667 -24.861 -15.322  0.00  0.00    +0.192 C 
ATOM     29  C   UNL     1      37.829 -22.971 -16.283  0.00  0.00    +0.237 C 
ATOM     30  C   UNL     1      35.459 -23.414 -16.628  0.00  0.00    +0.097 C 
ATOM     31  C   UNL     1      34.086 -23.178 -17.199  0.00  0.00    +0.062 C 
BRANCH  25  32
ATOM     32  O   UNL     1      35.942 -27.119 -15.040  0.00  0.00    -0.376 OA
ATOM     33  H   UNL     1      35.243 -27.413 -14.435  0.00  0.00    +0.211 HD
ENDBRANCH  25  32
ENDBRANCH  19  23
ENDBRANCH  18  19
ENDBRANCH   1  18
TORSDOF 5
ENDMDL
