MODEL 1
REMARK VINA RESULT:     -11.3      0.000      0.000
REMARK  Name = 9804992
REMARK  10 active torsions:
REMARK  status: ('A' for Active; 'I' for Inactive)
REMARK    1  A    between atoms: C_1  and  C_9
REMARK    2  A    between atoms: C_1  and  O_19
REMARK    3  A    between atoms: C_2  and  C_12
REMARK    4  A    between atoms: C_12  and  N_13
REMARK    5  A    between atoms: N_13  and  C_15
REMARK    6  A    between atoms: N_13  and  C_17
REMARK    7  A    between atoms: O_19  and  C_22
REMARK    8  A    between atoms: N_21  and  C_24
REMARK    9  A    between atoms: C_27  and  C_32
REMARK   10  A    between atoms: N_31  and  O_34
REMARK                            x       y       z     vdW  Elec       q    Type
REMARK                         _______ _______ _______ _____ _____    ______ ____
ROOT
ATOM      1  C   UNL     1      35.816 -20.786 -20.750  0.00  0.00    +0.237 C 
ENDROOT
BRANCH   1   9
ATOM      2  C   UNL     1      36.164 -23.745 -14.953  0.00  0.00    -0.043 C 
ATOM      3  C   UNL     1      35.276 -22.954 -17.075  0.00  0.00    -0.000 C 
ATOM      4  C   UNL     1      36.516 -22.330 -17.353  0.00  0.00    -0.000 C 
ATOM      5  C   UNL     1      35.116 -23.657 -15.870  0.00  0.00    -0.006 C 
ATOM      6  C   UNL     1      37.383 -23.132 -15.227  0.00  0.00    -0.006 C 
ATOM      7  C   UNL     1      37.559 -22.429 -16.418  0.00  0.00    -0.000 C 
ATOM      8  C   UNL     1      36.676 -21.626 -18.558  0.00  0.00    -0.001 C 
ATOM      9  C   UNL     1      35.628 -21.538 -19.475  0.00  0.00    +0.021 C 
ATOM     10  C   UNL     1      34.233 -22.854 -18.010  0.00  0.00    -0.000 C 
ATOM     11  C   UNL     1      34.409 -22.151 -19.202  0.00  0.00    -0.001 C 
BRANCH   2  12
ATOM     12  C   UNL     1      35.976 -24.496 -13.678  0.00  0.00    -0.050 C 
BRANCH  12  13
ATOM     13  N   UNL     1      37.249 -24.859 -13.053  0.00  0.00    +0.390 N 
ATOM     14  H   UNL     1      38.007 -24.461 -13.606  0.00  0.00    -0.079 HD
BRANCH  13  15
ATOM     15  C   UNL     1      37.326 -24.310 -11.700  0.00  0.00    -0.077 C 
ATOM     16  C   UNL     1      35.983 -24.394 -10.995  0.00  0.00    -0.025 C 
ENDBRANCH  13  15
BRANCH  13  17
ATOM     17  C   UNL     1      37.408 -26.312 -13.027  0.00  0.00    -0.077 C 
ATOM     18  C   UNL     1      37.688 -26.859 -14.416  0.00  0.00    -0.025 C 
ENDBRANCH  13  17
ENDBRANCH  12  13
ENDBRANCH   2  12
ENDBRANCH   1   9
BRANCH   1  19
ATOM     19  O   UNL     1      36.874 -19.850 -20.594  0.00  0.00    -0.429 OA
BRANCH  19  22
ATOM     20  O   UNL     1      37.877 -18.632 -22.250  0.00  0.00    -0.226 OA
ATOM     21  N   UNL     1      35.753 -18.093 -21.427  0.00  0.00    -0.250 N 
ATOM     22  C   UNL     1      36.922 -18.823 -21.506  0.00  0.00    +0.406 C 
ATOM     23  H   UNL     1      35.095 -18.403 -20.763  0.00  0.00    +0.158 HD
BRANCH  21  24
ATOM     24  C   UNL     1      35.383 -16.957 -22.182  0.00  0.00    +0.053 C 
ATOM     25  C   UNL     1      34.968 -15.794 -21.533  0.00  0.00    +0.015 C 
ATOM     26  C   UNL     1      35.432 -16.999 -23.575  0.00  0.00    +0.015 C 
ATOM     27  C   UNL     1      34.651 -14.715 -23.672  0.00  0.00    +0.055 C 
ATOM     28  C   UNL     1      34.601 -14.673 -22.278  0.00  0.00    +0.006 C 
ATOM     29  C   UNL     1      35.066 -15.877 -24.320  0.00  0.00    +0.006 C 
BRANCH  27  32
ATOM     30  O   UNL     1      33.642 -13.668 -25.516  0.00  0.00    -0.268 OA
ATOM     31  N   UNL     1      34.643 -12.306 -23.950  0.00  0.00    -0.193 N 
ATOM     32  C   UNL     1      34.268 -13.546 -24.447  0.00  0.00    +0.268 C 
ATOM     33  H   UNL     1      35.138 -12.218 -23.103  0.00  0.00    +0.183 HD
BRANCH  31  34
ATOM     34  O   UNL     1      34.282 -11.183 -24.709  0.00  0.00    -0.295 OA
ATOM     35  H   UNL     1      35.082 -10.724 -25.009  0.00  0.00    +0.241 HD
ENDBRANCH  31  34
ENDBRANCH  27  32
ENDBRANCH  21  24
ENDBRANCH  19  22
ENDBRANCH   1  19
TORSDOF 10
ENDMDL
MODEL 2
REMARK VINA RESULT:     -11.3      2.700      3.660
REMARK  Name = 9804992
REMARK  10 active torsions:
REMARK  status: ('A' for Active; 'I' for Inactive)
REMARK    1  A    between atoms: C_1  and  C_9
REMARK    2  A    between atoms: C_1  and  O_19
REMARK    3  A    between atoms: C_2  and  C_12
REMARK    4  A    between atoms: C_12  and  N_13
REMARK    5  A    between atoms: N_13  and  C_15
REMARK    6  A    between atoms: N_13  and  C_17
REMARK    7  A    between atoms: O_19  and  C_22
REMARK    8  A    between atoms: N_21  and  C_24
REMARK    9  A    between atoms: C_27  and  C_32
REMARK   10  A    between atoms: N_31  and  O_34
REMARK                            x       y       z     vdW  Elec       q    Type
REMARK                         _______ _______ _______ _____ _____    ______ ____
ROOT
ATOM      1  C   UNL     1      37.100 -20.779 -20.662  0.00  0.00    +0.237 C 
ENDROOT
BRANCH   1   9
ATOM      2  C   UNL     1      32.734 -23.513 -16.668  0.00  0.00    -0.043 C 
ATOM      3  C   UNL     1      33.673 -22.319 -18.567  0.00  0.00    -0.000 C 
ATOM      4  C   UNL     1      34.971 -22.508 -18.036  0.00  0.00    -0.000 C 
ATOM      5  C   UNL     1      32.565 -22.827 -17.871  0.00  0.00    -0.006 C 
ATOM      6  C   UNL     1      34.010 -23.700 -16.146  0.00  0.00    -0.006 C 
ATOM      7  C   UNL     1      35.122 -23.201 -16.824  0.00  0.00    -0.000 C 
ATOM      8  C   UNL     1      36.080 -22.000 -18.732  0.00  0.00    -0.001 C 
ATOM      9  C   UNL     1      35.911 -21.313 -19.936  0.00  0.00    +0.021 C 
ATOM     10  C   UNL     1      33.522 -21.626 -19.780  0.00  0.00    -0.000 C 
ATOM     11  C   UNL     1      34.635 -21.127 -20.459  0.00  0.00    -0.001 C 
BRANCH   2  12
ATOM     12  C   UNL     1      31.545 -24.046 -15.941  0.00  0.00    -0.050 C 
BRANCH  12  13
ATOM     13  N   UNL     1      31.051 -23.118 -14.924  0.00  0.00    +0.390 N 
ATOM     14  H   UNL     1      31.642 -22.287 -14.928  0.00  0.00    -0.079 HD
BRANCH  13  15
ATOM     15  C   UNL     1      29.681 -22.710 -15.229  0.00  0.00    -0.077 C 
ATOM     16  C   UNL     1      29.029 -23.667 -16.213  0.00  0.00    -0.025 C 
ENDBRANCH  13  15
BRANCH  13  17
ATOM     17  C   UNL     1      31.121 -23.729 -13.599  0.00  0.00    -0.077 C 
ATOM     18  C   UNL     1      31.333 -25.230 -13.696  0.00  0.00    -0.025 C 
ENDBRANCH  13  17
ENDBRANCH  12  13
ENDBRANCH   2  12
ENDBRANCH   1   9
BRANCH   1  19
ATOM     19  O   UNL     1      37.139 -19.364 -20.528  0.00  0.00    -0.429 OA
BRANCH  19  22
ATOM     20  O   UNL     1      38.115 -18.476 -22.396  0.00  0.00    -0.226 OA
ATOM     21  N   UNL     1      35.846 -18.160 -21.913  0.00  0.00    -0.250 N 
ATOM     22  C   UNL     1      37.123 -18.639 -21.695  0.00  0.00    +0.406 C 
ATOM     23  H   UNL     1      35.174 -18.399 -21.233  0.00  0.00    +0.158 HD
BRANCH  21  24
ATOM     24  C   UNL     1      35.384 -17.371 -22.990  0.00  0.00    +0.053 C 
ATOM     25  C   UNL     1      35.289 -15.986 -22.849  0.00  0.00    +0.015 C 
ATOM     26  C   UNL     1      35.022 -17.976 -24.193  0.00  0.00    +0.015 C 
ATOM     27  C   UNL     1      34.470 -15.812 -25.115  0.00  0.00    +0.055 C 
ATOM     28  C   UNL     1      34.832 -15.207 -23.911  0.00  0.00    +0.006 C 
ATOM     29  C   UNL     1      34.565 -17.197 -25.256  0.00  0.00    +0.006 C 
BRANCH  27  32
ATOM     30  O   UNL     1      33.784 -15.506 -27.341  0.00  0.00    -0.268 OA
ATOM     31  N   UNL     1      33.797 -13.648 -25.978  0.00  0.00    -0.193 N 
ATOM     32  C   UNL     1      33.993 -15.000 -26.223  0.00  0.00    +0.268 C 
ATOM     33  H   UNL     1      33.964 -13.256 -25.089  0.00  0.00    +0.183 HD
BRANCH  31  34
ATOM     34  O   UNL     1      33.349 -12.867 -27.053  0.00  0.00    -0.295 OA
ATOM     35  H   UNL     1      33.217 -11.953 -26.756  0.00  0.00    +0.241 HD
ENDBRANCH  31  34
ENDBRANCH  27  32
ENDBRANCH  21  24
ENDBRANCH  19  22
ENDBRANCH   1  19
TORSDOF 10
ENDMDL
MODEL 3
REMARK VINA RESULT:     -11.1      3.771     12.021
REMARK  Name = 9804992
REMARK  10 active torsions:
REMARK  status: ('A' for Active; 'I' for Inactive)
REMARK    1  A    between atoms: C_1  and  C_9
REMARK    2  A    between atoms: C_1  and  O_19
REMARK    3  A    between atoms: C_2  and  C_12
REMARK    4  A    between atoms: C_12  and  N_13
REMARK    5  A    between atoms: N_13  and  C_15
REMARK    6  A    between atoms: N_13  and  C_17
REMARK    7  A    between atoms: O_19  and  C_22
REMARK    8  A    between atoms: N_21  and  C_24
REMARK    9  A    between atoms: C_27  and  C_32
REMARK   10  A    between atoms: N_31  and  O_34
REMARK                            x       y       z     vdW  Elec       q    Type
REMARK                         _______ _______ _______ _____ _____    ______ ____
ROOT
ATOM      1  C   UNL     1      35.965 -16.851 -23.101  0.00  0.00    +0.237 C 
ENDROOT
BRANCH   1   9
ATOM      2  C   UNL     1      32.165 -11.774 -21.594  0.00  0.00    -0.043 C 
ATOM      3  C   UNL     1      33.559 -13.292 -22.885  0.00  0.00    -0.000 C 
ATOM      4  C   UNL     1      33.735 -14.098 -21.735  0.00  0.00    -0.000 C 
ATOM      5  C   UNL     1      32.771 -12.134 -22.798  0.00  0.00    -0.006 C 
ATOM      6  C   UNL     1      32.338 -12.567 -20.463  0.00  0.00    -0.006 C 
ATOM      7  C   UNL     1      33.117 -13.721 -20.532  0.00  0.00    -0.000 C 
ATOM      8  C   UNL     1      34.524 -15.257 -21.823  0.00  0.00    -0.001 C 
ATOM      9  C   UNL     1      35.131 -15.616 -23.027  0.00  0.00    +0.021 C 
ATOM     10  C   UNL     1      34.177 -13.669 -24.089  0.00  0.00    -0.000 C 
ATOM     11  C   UNL     1      34.957 -14.825 -24.158  0.00  0.00    -0.001 C 
BRANCH   2  12
ATOM     12  C   UNL     1      31.331 -10.539 -21.519  0.00  0.00    -0.050 C 
BRANCH  12  13
ATOM     13  N   UNL     1      32.125  -9.320 -21.674  0.00  0.00    +0.390 N 
ATOM     14  H   UNL     1      33.061  -9.580 -21.986  0.00  0.00    -0.079 HD
BRANCH  13  15
ATOM     15  C   UNL     1      31.527  -8.447 -22.683  0.00  0.00    -0.077 C 
ATOM     16  C   UNL     1      32.360  -8.425 -23.953  0.00  0.00    -0.025 C 
ENDBRANCH  13  15
BRANCH  13  17
ATOM     17  C   UNL     1      32.242  -8.622 -20.396  0.00  0.00    -0.077 C 
ATOM     18  C   UNL     1      33.084  -7.364 -20.531  0.00  0.00    -0.025 C 
ENDBRANCH  13  17
ENDBRANCH  12  13
ENDBRANCH   2  12
ENDBRANCH   1   9
BRANCH   1  19
ATOM     19  O   UNL     1      35.338 -17.794 -23.960  0.00  0.00    -0.429 OA
BRANCH  19  22
ATOM     20  O   UNL     1      34.973 -20.045 -24.137  0.00  0.00    -0.226 OA
ATOM     21  N   UNL     1      35.120 -18.971 -22.062  0.00  0.00    -0.250 N 
ATOM     22  C   UNL     1      35.125 -19.048 -23.441  0.00  0.00    +0.406 C 
ATOM     23  H   UNL     1      35.262 -18.075 -21.679  0.00  0.00    +0.158 HD
BRANCH  21  24
ATOM     24  C   UNL     1      34.937 -20.020 -21.132  0.00  0.00    +0.053 C 
ATOM     25  C   UNL     1      33.648 -20.412 -20.769  0.00  0.00    +0.015 C 
ATOM     26  C   UNL     1      36.044 -20.662 -20.577  0.00  0.00    +0.015 C 
ATOM     27  C   UNL     1      34.574 -22.088 -19.296  0.00  0.00    +0.055 C 
ATOM     28  C   UNL     1      33.466 -21.446 -19.851  0.00  0.00    +0.006 C 
ATOM     29  C   UNL     1      35.862 -21.696 -19.659  0.00  0.00    +0.006 C 
BRANCH  27  32
ATOM     30  O   UNL     1      33.682 -24.154 -18.622  0.00  0.00    -0.268 OA
ATOM     31  N   UNL     1      35.007 -23.034 -17.105  0.00  0.00    -0.193 N 
ATOM     32  C   UNL     1      34.385 -23.166 -18.338  0.00  0.00    +0.268 C 
ATOM     33  H   UNL     1      35.562 -22.249 -16.889  0.00  0.00    +0.183 HD
BRANCH  31  34
ATOM     34  O   UNL     1      34.810 -24.071 -16.182  0.00  0.00    -0.295 OA
ATOM     35  H   UNL     1      35.087 -24.913 -16.575  0.00  0.00    +0.241 HD
ENDBRANCH  31  34
ENDBRANCH  27  32
ENDBRANCH  21  24
ENDBRANCH  19  22
ENDBRANCH   1  19
TORSDOF 10
ENDMDL
MODEL 4
REMARK VINA RESULT:     -11.0      3.954     11.341
REMARK  Name = 9804992
REMARK  10 active torsions:
REMARK  status: ('A' for Active; 'I' for Inactive)
REMARK    1  A    between atoms: C_1  and  C_9
REMARK    2  A    between atoms: C_1  and  O_19
REMARK    3  A    between atoms: C_2  and  C_12
REMARK    4  A    between atoms: C_12  and  N_13
REMARK    5  A    between atoms: N_13  and  C_15
REMARK    6  A    between atoms: N_13  and  C_17
REMARK    7  A    between atoms: O_19  and  C_22
REMARK    8  A    between atoms: N_21  and  C_24
REMARK    9  A    between atoms: C_27  and  C_32
REMARK   10  A    between atoms: N_31  and  O_34
REMARK                            x       y       z     vdW  Elec       q    Type
REMARK                         _______ _______ _______ _____ _____    ______ ____
ROOT
ATOM      1  C   UNL     1      36.160 -18.262 -23.732  0.00  0.00    +0.237 C 
ENDROOT
BRANCH   1   9
ATOM      2  C   UNL     1      32.977 -12.704 -22.523  0.00  0.00    -0.043 C 
ATOM      3  C   UNL     1      33.962 -14.565 -23.740  0.00  0.00    -0.000 C 
ATOM      4  C   UNL     1      34.411 -15.118 -22.517  0.00  0.00    -0.000 C 
ATOM      5  C   UNL     1      33.246 -13.357 -23.726  0.00  0.00    -0.006 C 
ATOM      6  C   UNL     1      33.418 -13.248 -21.321  0.00  0.00    -0.006 C 
ATOM      7  C   UNL     1      34.131 -14.447 -21.316  0.00  0.00    -0.000 C 
ATOM      8  C   UNL     1      35.127 -16.326 -22.532  0.00  0.00    -0.001 C 
ATOM      9  C   UNL     1      35.397 -16.980 -23.735  0.00  0.00    +0.021 C 
ATOM     10  C   UNL     1      34.242 -15.236 -24.942  0.00  0.00    -0.000 C 
ATOM     11  C   UNL     1      34.955 -16.436 -24.938  0.00  0.00    -0.001 C 
BRANCH   2  12
ATOM     12  C   UNL     1      32.215 -11.421 -22.526  0.00  0.00    -0.050 C 
BRANCH  12  13
ATOM     13  N   UNL     1      32.199 -10.780 -21.211  0.00  0.00    +0.390 N 
ATOM     14  H   UNL     1      33.030 -11.071 -20.697  0.00  0.00    -0.079 HD
BRANCH  13  15
ATOM     15  C   UNL     1      32.230  -9.325 -21.353  0.00  0.00    -0.077 C 
ATOM     16  C   UNL     1      32.437  -8.919 -22.802  0.00  0.00    -0.025 C 
ENDBRANCH  13  15
BRANCH  13  17
ATOM     17  C   UNL     1      31.019 -11.195 -20.455  0.00  0.00    -0.077 C 
ATOM     18  C   UNL     1      31.257 -11.082 -18.959  0.00  0.00    -0.025 C 
ENDBRANCH  13  17
ENDBRANCH  12  13
ENDBRANCH   2  12
ENDBRANCH   1   9
BRANCH   1  19
ATOM     19  O   UNL     1      37.176 -18.204 -22.739  0.00  0.00    -0.429 OA
BRANCH  19  22
ATOM     20  O   UNL     1      37.615 -18.756 -20.563  0.00  0.00    -0.226 OA
ATOM     21  N   UNL     1      35.813 -19.680 -21.737  0.00  0.00    -0.250 N 
ATOM     22  C   UNL     1      36.927 -18.881 -21.569  0.00  0.00    +0.406 C 
ATOM     23  H   UNL     1      35.388 -19.646 -22.625  0.00  0.00    +0.158 HD
BRANCH  21  24
ATOM     24  C   UNL     1      35.208 -20.541 -20.793  0.00  0.00    +0.053 C 
ATOM     25  C   UNL     1      33.829 -20.491 -20.588  0.00  0.00    +0.015 C 
ATOM     26  C   UNL     1      35.989 -21.438 -20.066  0.00  0.00    +0.015 C 
ATOM     27  C   UNL     1      34.014 -22.237 -18.928  0.00  0.00    +0.055 C 
ATOM     28  C   UNL     1      33.231 -21.339 -19.656  0.00  0.00    +0.006 C 
ATOM     29  C   UNL     1      35.392 -22.286 -19.133  0.00  0.00    +0.006 C 
BRANCH  27  32
ATOM     30  O   UNL     1      33.994 -24.120 -17.525  0.00  0.00    -0.268 OA
ATOM     31  N   UNL     1      32.103 -22.805 -17.548  0.00  0.00    -0.193 N 
ATOM     32  C   UNL     1      33.390 -23.120 -17.956  0.00  0.00    +0.268 C 
ATOM     33  H   UNL     1      31.632 -22.011 -17.894  0.00  0.00    +0.183 HD
BRANCH  31  34
ATOM     34  O   UNL     1      31.502 -23.668 -16.620  0.00  0.00    -0.295 OA
ATOM     35  H   UNL     1      31.267 -23.172 -15.820  0.00  0.00    +0.241 HD
ENDBRANCH  31  34
ENDBRANCH  27  32
ENDBRANCH  21  24
ENDBRANCH  19  22
ENDBRANCH   1  19
TORSDOF 10
ENDMDL
MODEL 5
REMARK VINA RESULT:     -11.0      1.145      1.840
REMARK  Name = 9804992
REMARK  10 active torsions:
REMARK  status: ('A' for Active; 'I' for Inactive)
REMARK    1  A    between atoms: C_1  and  C_9
REMARK    2  A    between atoms: C_1  and  O_19
REMARK    3  A    between atoms: C_2  and  C_12
REMARK    4  A    between atoms: C_12  and  N_13
REMARK    5  A    between atoms: N_13  and  C_15
REMARK    6  A    between atoms: N_13  and  C_17
REMARK    7  A    between atoms: O_19  and  C_22
REMARK    8  A    between atoms: N_21  and  C_24
REMARK    9  A    between atoms: C_27  and  C_32
REMARK   10  A    between atoms: N_31  and  O_34
REMARK                            x       y       z     vdW  Elec       q    Type
REMARK                         _______ _______ _______ _____ _____    ______ ____
ROOT
ATOM      1  C   UNL     1      36.073 -20.605 -20.543  0.00  0.00    +0.237 C 
ENDROOT
BRANCH   1   9
ATOM      2  C   UNL     1      35.299 -23.999 -15.033  0.00  0.00    -0.043 C 
ATOM      3  C   UNL     1      36.307 -22.573 -16.726  0.00  0.00    -0.000 C 
ATOM      4  C   UNL     1      35.147 -22.713 -17.525  0.00  0.00    -0.000 C 
ATOM      5  C   UNL     1      36.367 -23.222 -15.483  0.00  0.00    -0.006 C 
ATOM      6  C   UNL     1      34.159 -24.136 -15.818  0.00  0.00    -0.006 C 
ATOM      7  C   UNL     1      34.081 -23.498 -17.055  0.00  0.00    -0.000 C 
ATOM      8  C   UNL     1      35.086 -22.064 -18.768  0.00  0.00    -0.001 C 
ATOM      9  C   UNL     1      36.155 -21.287 -19.219  0.00  0.00    +0.021 C 
ATOM     10  C   UNL     1      37.372 -21.787 -17.195  0.00  0.00    -0.000 C 
ATOM     11  C   UNL     1      37.295 -21.148 -18.434  0.00  0.00    -0.001 C 
BRANCH   2  12
ATOM     12  C   UNL     1      35.381 -24.682 -13.709  0.00  0.00    -0.050 C 
BRANCH  12  13
ATOM     13  N   UNL     1      36.759 -24.815 -13.234  0.00  0.00    +0.390 N 
ATOM     14  H   UNL     1      37.356 -24.211 -13.798  0.00  0.00    -0.079 HD
BRANCH  13  15
ATOM     15  C   UNL     1      36.860 -24.391 -11.838  0.00  0.00    -0.077 C 
ATOM     16  C   UNL     1      37.403 -22.977 -11.732  0.00  0.00    -0.025 C 
ENDBRANCH  13  15
BRANCH  13  17
ATOM     17  C   UNL     1      37.219 -26.193 -13.386  0.00  0.00    -0.077 C 
ATOM     18  C   UNL     1      38.479 -26.262 -14.233  0.00  0.00    -0.025 C 
ENDBRANCH  13  17
ENDBRANCH  12  13
ENDBRANCH   2  12
ENDBRANCH   1   9
BRANCH   1  19
ATOM     19  O   UNL     1      37.183 -19.729 -20.693  0.00  0.00    -0.429 OA
BRANCH  19  22
ATOM     20  O   UNL     1      38.176 -18.626 -22.432  0.00  0.00    -0.226 OA
ATOM     21  N   UNL     1      35.875 -18.483 -22.024  0.00  0.00    -0.250 N 
ATOM     22  C   UNL     1      37.169 -18.906 -21.792  0.00  0.00    +0.406 C 
ATOM     23  H   UNL     1      35.193 -18.818 -21.398  0.00  0.00    +0.158 HD
BRANCH  21  24
ATOM     24  C   UNL     1      35.408 -17.629 -23.049  0.00  0.00    +0.053 C 
ATOM     25  C   UNL     1      35.368 -16.249 -22.843  0.00  0.00    +0.015 C 
ATOM     26  C   UNL     1      34.987 -18.165 -24.266  0.00  0.00    +0.015 C 
ATOM     27  C   UNL     1      34.485 -15.943 -25.072  0.00  0.00    +0.055 C 
ATOM     28  C   UNL     1      34.907 -15.407 -23.854  0.00  0.00    +0.006 C 
ATOM     29  C   UNL     1      34.526 -17.322 -25.277  0.00  0.00    +0.006 C 
BRANCH  27  32
ATOM     30  O   UNL     1      33.700 -15.518 -27.244  0.00  0.00    -0.268 OA
ATOM     31  N   UNL     1      33.914 -13.712 -25.829  0.00  0.00    -0.193 N 
ATOM     32  C   UNL     1      34.004 -15.064 -26.125  0.00  0.00    +0.268 C 
ATOM     33  H   UNL     1      34.157 -13.361 -24.941  0.00  0.00    +0.183 HD
BRANCH  31  34
ATOM     34  O   UNL     1      33.462 -12.867 -26.853  0.00  0.00    -0.295 OA
ATOM     35  H   UNL     1      34.126 -12.830 -27.559  0.00  0.00    +0.241 HD
ENDBRANCH  31  34
ENDBRANCH  27  32
ENDBRANCH  21  24
ENDBRANCH  19  22
ENDBRANCH   1  19
TORSDOF 10
ENDMDL
MODEL 6
REMARK VINA RESULT:     -10.9      0.896      1.537
REMARK  Name = 9804992
REMARK  10 active torsions:
REMARK  status: ('A' for Active; 'I' for Inactive)
REMARK    1  A    between atoms: C_1  and  C_9
REMARK    2  A    between atoms: C_1  and  O_19
REMARK    3  A    between atoms: C_2  and  C_12
REMARK    4  A    between atoms: C_12  and  N_13
REMARK    5  A    between atoms: N_13  and  C_15
REMARK    6  A    between atoms: N_13  and  C_17
REMARK    7  A    between atoms: O_19  and  C_22
REMARK    8  A    between atoms: N_21  and  C_24
REMARK    9  A    between atoms: C_27  and  C_32
REMARK   10  A    between atoms: N_31  and  O_34
REMARK                            x       y       z     vdW  Elec       q    Type
REMARK                         _______ _______ _______ _____ _____    ______ ____
ROOT
ATOM      1  C   UNL     1      35.155 -21.143 -20.466  0.00  0.00    +0.237 C 
ENDROOT
BRANCH   1   9
ATOM      2  C   UNL     1      35.650 -23.956 -14.607  0.00  0.00    -0.043 C 
ATOM      3  C   UNL     1      36.245 -22.723 -16.617  0.00  0.00    -0.000 C 
ATOM      4  C   UNL     1      34.937 -22.923 -17.119  0.00  0.00    -0.000 C 
ATOM      5  C   UNL     1      36.586 -23.246 -15.359  0.00  0.00    -0.006 C 
ATOM      6  C   UNL     1      34.363 -24.152 -15.100  0.00  0.00    -0.006 C 
ATOM      7  C   UNL     1      34.008 -23.640 -16.348  0.00  0.00    -0.000 C 
ATOM      8  C   UNL     1      34.597 -22.401 -18.377  0.00  0.00    -0.001 C 
ATOM      9  C   UNL     1      35.534 -21.691 -19.131  0.00  0.00    +0.021 C 
ATOM     10  C   UNL     1      37.175 -22.007 -17.389  0.00  0.00    -0.000 C 
ATOM     11  C   UNL     1      36.820 -21.494 -18.637  0.00  0.00    -0.001 C 
BRANCH   2  12
ATOM     12  C   UNL     1      36.028 -24.505 -13.272  0.00  0.00    -0.050 C 
BRANCH  12  13
ATOM     13  N   UNL     1      37.421 -24.952 -13.229  0.00  0.00    +0.390 N 
ATOM     14  H   UNL     1      37.891 -24.632 -14.074  0.00  0.00    -0.079 HD
BRANCH  13  15
ATOM     15  C   UNL     1      38.105 -24.375 -12.073  0.00  0.00    -0.077 C 
ATOM     16  C   UNL     1      37.564 -22.994 -11.747  0.00  0.00    -0.025 C 
ENDBRANCH  13  15
BRANCH  13  17
ATOM     17  C   UNL     1      37.486 -26.412 -13.187  0.00  0.00    -0.077 C 
ATOM     18  C   UNL     1      37.597 -26.997 -14.584  0.00  0.00    -0.025 C 
ENDBRANCH  13  17
ENDBRANCH  12  13
ENDBRANCH   2  12
ENDBRANCH   1   9
BRANCH   1  19
ATOM     19  O   UNL     1      35.937 -19.988 -20.742  0.00  0.00    -0.429 OA
BRANCH  19  22
ATOM     20  O   UNL     1      35.054 -19.611 -22.817  0.00  0.00    -0.226 OA
ATOM     21  N   UNL     1      35.628 -17.858 -21.376  0.00  0.00    -0.250 N 
ATOM     22  C   UNL     1      35.493 -19.178 -21.758  0.00  0.00    +0.406 C 
ATOM     23  H   UNL     1      36.004 -17.705 -20.478  0.00  0.00    +0.158 HD
BRANCH  21  24
ATOM     24  C   UNL     1      35.294 -16.699 -22.113  0.00  0.00    +0.053 C 
ATOM     25  C   UNL     1      34.827 -15.563 -21.451  0.00  0.00    +0.015 C 
ATOM     26  C   UNL     1      35.431 -16.692 -23.501  0.00  0.00    +0.015 C 
ATOM     27  C   UNL     1      34.633 -14.412 -23.568  0.00  0.00    +0.055 C 
ATOM     28  C   UNL     1      34.496 -14.419 -22.179  0.00  0.00    +0.006 C 
ATOM     29  C   UNL     1      35.100 -15.548 -24.228  0.00  0.00    +0.006 C 
BRANCH  27  32
ATOM     30  O   UNL     1      33.807 -13.310 -25.470  0.00  0.00    -0.268 OA
ATOM     31  N   UNL     1      34.529 -11.994 -23.722  0.00  0.00    -0.193 N 
ATOM     32  C   UNL     1      34.288 -13.220 -24.325  0.00  0.00    +0.268 C 
ATOM     33  H   UNL     1      34.910 -11.932 -22.815  0.00  0.00    +0.183 HD
BRANCH  31  34
ATOM     34  O   UNL     1      34.206 -10.849 -24.463  0.00  0.00    -0.295 OA
ATOM     35  H   UNL     1      34.874 -10.709 -25.152  0.00  0.00    +0.241 HD
ENDBRANCH  31  34
ENDBRANCH  27  32
ENDBRANCH  21  24
ENDBRANCH  19  22
ENDBRANCH   1  19
TORSDOF 10
ENDMDL
MODEL 7
REMARK VINA RESULT:     -10.9      4.737      9.120
REMARK  Name = 9804992
REMARK  10 active torsions:
REMARK  status: ('A' for Active; 'I' for Inactive)
REMARK    1  A    between atoms: C_1  and  C_9
REMARK    2  A    between atoms: C_1  and  O_19
REMARK    3  A    between atoms: C_2  and  C_12
REMARK    4  A    between atoms: C_12  and  N_13
REMARK    5  A    between atoms: N_13  and  C_15
REMARK    6  A    between atoms: N_13  and  C_17
REMARK    7  A    between atoms: O_19  and  C_22
REMARK    8  A    between atoms: N_21  and  C_24
REMARK    9  A    between atoms: C_27  and  C_32
REMARK   10  A    between atoms: N_31  and  O_34
REMARK                            x       y       z     vdW  Elec       q    Type
REMARK                         _______ _______ _______ _____ _____    ______ ____
ROOT
ATOM      1  C   UNL     1      33.990 -12.863 -24.224  0.00  0.00    +0.237 C 
ENDROOT
BRANCH   1   9
ATOM      2  C   UNL     1      36.029 -18.644 -22.010  0.00  0.00    -0.043 C 
ATOM      3  C   UNL     1      35.212 -16.354 -22.028  0.00  0.00    -0.000 C 
ATOM      4  C   UNL     1      35.230 -16.366 -23.443  0.00  0.00    -0.000 C 
ATOM      5  C   UNL     1      35.614 -17.501 -21.326  0.00  0.00    -0.006 C 
ATOM      6  C   UNL     1      36.046 -18.657 -23.401  0.00  0.00    -0.006 C 
ATOM      7  C   UNL     1      35.650 -17.526 -24.115  0.00  0.00    -0.000 C 
ATOM      8  C   UNL     1      34.828 -15.218 -24.145  0.00  0.00    -0.001 C 
ATOM      9  C   UNL     1      34.414 -14.074 -23.462  0.00  0.00    +0.021 C 
ATOM     10  C   UNL     1      34.792 -15.194 -21.357  0.00  0.00    -0.000 C 
ATOM     11  C   UNL     1      34.395 -14.062 -22.071  0.00  0.00    -0.001 C 
BRANCH   2  12
ATOM     12  C   UNL     1      36.453 -19.855 -21.248  0.00  0.00    -0.050 C 
BRANCH  12  13
ATOM     13  N   UNL     1      35.401 -20.352 -20.360  0.00  0.00    +0.390 N 
ATOM     14  H   UNL     1      35.311 -19.711 -19.572  0.00  0.00    -0.079 HD
BRANCH  13  15
ATOM     15  C   UNL     1      34.121 -20.400 -21.065  0.00  0.00    -0.077 C 
ATOM     16  C   UNL     1      32.992 -20.788 -20.127  0.00  0.00    -0.025 C 
ENDBRANCH  13  15
BRANCH  13  17
ATOM     17  C   UNL     1      35.752 -21.674 -19.844  0.00  0.00    -0.077 C 
ATOM     18  C   UNL     1      36.711 -21.568 -18.670  0.00  0.00    -0.025 C 
ENDBRANCH  13  17
ENDBRANCH  12  13
ENDBRANCH   2  12
ENDBRANCH   1   9
BRANCH   1  19
ATOM     19  O   UNL     1      33.368 -11.941 -23.339  0.00  0.00    -0.429 OA
BRANCH  19  22
ATOM     20  O   UNL     1      34.369 -10.179 -24.398  0.00  0.00    -0.226 OA
ATOM     21  N   UNL     1      32.513  -9.894 -23.000  0.00  0.00    -0.250 N 
ATOM     22  C   UNL     1      33.498 -10.610 -23.651  0.00  0.00    +0.406 C 
ATOM     23  H   UNL     1      31.897 -10.419 -22.439  0.00  0.00    +0.158 HD
BRANCH  21  24
ATOM     24  C   UNL     1      32.279  -8.501 -23.041  0.00  0.00    +0.053 C 
ATOM     25  C   UNL     1      31.523  -7.951 -24.077  0.00  0.00    +0.015 C 
ATOM     26  C   UNL     1      32.803  -7.676 -22.046  0.00  0.00    +0.015 C 
ATOM     27  C   UNL     1      31.817  -5.750 -23.122  0.00  0.00    +0.055 C 
ATOM     28  C   UNL     1      31.292  -6.576 -24.117  0.00  0.00    +0.006 C 
ATOM     29  C   UNL     1      32.572  -6.301 -22.086  0.00  0.00    +0.006 C 
BRANCH  27  32
ATOM     30  O   UNL     1      32.287  -3.573 -23.865  0.00  0.00    -0.268 OA
ATOM     31  N   UNL     1      30.538  -3.826 -22.388  0.00  0.00    -0.193 N 
ATOM     32  C   UNL     1      31.577  -4.317 -23.165  0.00  0.00    +0.268 C 
ATOM     33  H   UNL     1      29.979  -4.422 -21.837  0.00  0.00    +0.183 HD
BRANCH  31  34
ATOM     34  O   UNL     1      30.319  -2.441 -22.424  0.00  0.00    -0.295 OA
ATOM     35  H   UNL     1      31.052  -1.986 -21.981  0.00  0.00    +0.241 HD
ENDBRANCH  31  34
ENDBRANCH  27  32
ENDBRANCH  21  24
ENDBRANCH  19  22
ENDBRANCH   1  19
TORSDOF 10
ENDMDL
MODEL 8
REMARK VINA RESULT:     -10.9      4.263     13.215
REMARK  Name = 9804992
REMARK  10 active torsions:
REMARK  status: ('A' for Active; 'I' for Inactive)
REMARK    1  A    between atoms: C_1  and  C_9
REMARK    2  A    between atoms: C_1  and  O_19
REMARK    3  A    between atoms: C_2  and  C_12
REMARK    4  A    between atoms: C_12  and  N_13
REMARK    5  A    between atoms: N_13  and  C_15
REMARK    6  A    between atoms: N_13  and  C_17
REMARK    7  A    between atoms: O_19  and  C_22
REMARK    8  A    between atoms: N_21  and  C_24
REMARK    9  A    between atoms: C_27  and  C_32
REMARK   10  A    between atoms: N_31  and  O_34
REMARK                            x       y       z     vdW  Elec       q    Type
REMARK                         _______ _______ _______ _____ _____    ______ ____
ROOT
ATOM      1  C   UNL     1      34.341 -15.206 -24.361  0.00  0.00    +0.237 C 
ENDROOT
BRANCH   1   9
ATOM      2  C   UNL     1      32.245  -9.410 -22.239  0.00  0.00    -0.043 C 
ATOM      3  C   UNL     1      33.366 -11.087 -23.599  0.00  0.00    -0.000 C 
ATOM      4  C   UNL     1      32.881 -12.100 -22.737  0.00  0.00    -0.000 C 
ATOM      5  C   UNL     1      33.039  -9.747 -23.336  0.00  0.00    -0.006 C 
ATOM      6  C   UNL     1      31.767 -10.406 -21.393  0.00  0.00    -0.006 C 
ATOM      7  C   UNL     1      32.082 -11.742 -21.639  0.00  0.00    -0.000 C 
ATOM      8  C   UNL     1      33.208 -13.440 -23.000  0.00  0.00    -0.001 C 
ATOM      9  C   UNL     1      34.003 -13.777 -24.097  0.00  0.00    +0.021 C 
ATOM     10  C   UNL     1      34.165 -11.444 -24.697  0.00  0.00    -0.000 C 
ATOM     11  C   UNL     1      34.480 -12.781 -24.944  0.00  0.00    -0.001 C 
BRANCH   2  12
ATOM     12  C   UNL     1      31.907  -7.981 -21.975  0.00  0.00    -0.050 C 
BRANCH  12  13
ATOM     13  N   UNL     1      32.221  -7.115 -23.111  0.00  0.00    +0.390 N 
ATOM     14  H   UNL     1      32.329  -7.696 -23.943  0.00  0.00    -0.079 HD
BRANCH  13  15
ATOM     15  C   UNL     1      31.131  -6.169 -23.347  0.00  0.00    -0.077 C 
ATOM     16  C   UNL     1      30.775  -5.415 -22.078  0.00  0.00    -0.025 C 
ENDBRANCH  13  15
BRANCH  13  17
ATOM     17  C   UNL     1      33.476  -6.403 -22.879  0.00  0.00    -0.077 C 
ATOM     18  C   UNL     1      34.305  -6.322 -24.149  0.00  0.00    -0.025 C 
ENDBRANCH  13  17
ENDBRANCH  12  13
ENDBRANCH   2  12
ENDBRANCH   1   9
BRANCH   1  19
ATOM     19  O   UNL     1      35.517 -15.553 -23.642  0.00  0.00    -0.429 OA
BRANCH  19  22
ATOM     20  O   UNL     1      35.096 -15.843 -21.413  0.00  0.00    -0.226 OA
ATOM     21  N   UNL     1      35.486 -17.652 -22.847  0.00  0.00    -0.250 N 
ATOM     22  C   UNL     1      35.342 -16.319 -22.515  0.00  0.00    +0.406 C 
ATOM     23  H   UNL     1      35.683 -17.842 -23.793  0.00  0.00    +0.158 HD
BRANCH  21  24
ATOM     24  C   UNL     1      35.385 -18.777 -21.997  0.00  0.00    +0.053 C 
ATOM     25  C   UNL     1      36.522 -19.268 -21.354  0.00  0.00    +0.015 C 
ATOM     26  C   UNL     1      34.151 -19.395 -21.801  0.00  0.00    +0.015 C 
ATOM     27  C   UNL     1      35.188 -20.998 -20.321  0.00  0.00    +0.055 C 
ATOM     28  C   UNL     1      36.423 -20.379 -20.516  0.00  0.00    +0.006 C 
ATOM     29  C   UNL     1      34.052 -20.506 -20.963  0.00  0.00    +0.006 C 
BRANCH  27  32
ATOM     30  O   UNL     1      35.971 -22.400 -18.606  0.00  0.00    -0.268 OA
ATOM     31  N   UNL     1      33.974 -22.971 -19.604  0.00  0.00    -0.193 N 
ATOM     32  C   UNL     1      35.086 -22.156 -19.447  0.00  0.00    +0.268 C 
ATOM     33  H   UNL     1      33.278 -22.771 -20.271  0.00  0.00    +0.183 HD
BRANCH  31  34
ATOM     34  O   UNL     1      33.888 -24.093 -18.767  0.00  0.00    -0.295 OA
ATOM     35  H   UNL     1      34.570 -24.038 -18.080  0.00  0.00    +0.241 HD
ENDBRANCH  31  34
ENDBRANCH  27  32
ENDBRANCH  21  24
ENDBRANCH  19  22
ENDBRANCH   1  19
TORSDOF 10
ENDMDL
MODEL 9
REMARK VINA RESULT:     -10.9      2.704      4.559
REMARK  Name = 9804992
REMARK  10 active torsions:
REMARK  status: ('A' for Active; 'I' for Inactive)
REMARK    1  A    between atoms: C_1  and  C_9
REMARK    2  A    between atoms: C_1  and  O_19
REMARK    3  A    between atoms: C_2  and  C_12
REMARK    4  A    between atoms: C_12  and  N_13
REMARK    5  A    between atoms: N_13  and  C_15
REMARK    6  A    between atoms: N_13  and  C_17
REMARK    7  A    between atoms: O_19  and  C_22
REMARK    8  A    between atoms: N_21  and  C_24
REMARK    9  A    between atoms: C_27  and  C_32
REMARK   10  A    between atoms: N_31  and  O_34
REMARK                            x       y       z     vdW  Elec       q    Type
REMARK                         _______ _______ _______ _____ _____    ______ ____
ROOT
ATOM      1  C   UNL     1      36.467 -17.553 -22.795  0.00  0.00    +0.237 C 
ENDROOT
BRANCH   1   9
ATOM      2  C   UNL     1      34.042 -22.369 -19.133  0.00  0.00    -0.043 C 
ATOM      3  C   UNL     1      35.644 -20.876 -20.191  0.00  0.00    -0.000 C 
ATOM      4  C   UNL     1      34.579 -20.199 -20.832  0.00  0.00    -0.000 C 
ATOM      5  C   UNL     1      35.358 -21.960 -19.345  0.00  0.00    -0.006 C 
ATOM      6  C   UNL     1      32.995 -21.702 -19.762  0.00  0.00    -0.006 C 
ATOM      7  C   UNL     1      33.260 -20.624 -20.606  0.00  0.00    -0.000 C 
ATOM      8  C   UNL     1      34.865 -19.116 -21.678  0.00  0.00    -0.001 C 
ATOM      9  C   UNL     1      36.182 -18.706 -21.892  0.00  0.00    +0.021 C 
ATOM     10  C   UNL     1      36.963 -20.451 -20.417  0.00  0.00    -0.000 C 
ATOM     11  C   UNL     1      37.229 -19.372 -21.261  0.00  0.00    -0.001 C 
BRANCH   2  12
ATOM     12  C   UNL     1      33.756 -23.522 -18.230  0.00  0.00    -0.050 C 
BRANCH  12  13
ATOM     13  N   UNL     1      33.529 -23.104 -16.846  0.00  0.00    +0.390 N 
ATOM     14  H   UNL     1      33.637 -22.091 -16.791  0.00  0.00    -0.079 HD
BRANCH  13  15
ATOM     15  C   UNL     1      32.171 -23.447 -16.427  0.00  0.00    -0.077 C 
ATOM     16  C   UNL     1      31.848 -22.848 -15.069  0.00  0.00    -0.025 C 
ENDBRANCH  13  15
BRANCH  13  17
ATOM     17  C   UNL     1      34.512 -23.723 -15.959  0.00  0.00    -0.077 C 
ATOM     18  C   UNL     1      35.616 -22.745 -15.594  0.00  0.00    -0.025 C 
ENDBRANCH  13  17
ENDBRANCH  12  13
ENDBRANCH   2  12
ENDBRANCH   1   9
BRANCH   1  19
ATOM     19  O   UNL     1      35.657 -17.654 -23.959  0.00  0.00    -0.429 OA
BRANCH  19  22
ATOM     20  O   UNL     1      34.381 -16.398 -25.381  0.00  0.00    -0.226 OA
ATOM     21  N   UNL     1      34.911 -15.671 -23.220  0.00  0.00    -0.250 N 
ATOM     22  C   UNL     1      34.922 -16.542 -24.291  0.00  0.00    +0.406 C 
ATOM     23  H   UNL     1      35.407 -15.963 -22.420  0.00  0.00    +0.158 HD
BRANCH  21  24
ATOM     24  C   UNL     1      34.276 -14.411 -23.128  0.00  0.00    +0.053 C 
ATOM     25  C   UNL     1      34.540 -13.427 -24.081  0.00  0.00    +0.015 C 
ATOM     26  C   UNL     1      33.386 -14.153 -22.086  0.00  0.00    +0.015 C 
ATOM     27  C   UNL     1      33.025 -11.925 -22.947  0.00  0.00    +0.055 C 
ATOM     28  C   UNL     1      33.915 -12.183 -23.990  0.00  0.00    +0.006 C 
ATOM     29  C   UNL     1      32.761 -12.909 -21.995  0.00  0.00    +0.006 C 
BRANCH  27  32
ATOM     30  O   UNL     1      31.366 -10.472 -22.138  0.00  0.00    -0.268 OA
ATOM     31  N   UNL     1      32.915  -9.592 -23.599  0.00  0.00    -0.193 N 
ATOM     32  C   UNL     1      32.373 -10.628 -22.853  0.00  0.00    +0.268 C 
ATOM     33  H   UNL     1      33.712  -9.724 -24.162  0.00  0.00    +0.183 HD
BRANCH  31  34
ATOM     34  O   UNL     1      32.274  -8.347 -23.514  0.00  0.00    -0.295 OA
ATOM     35  H   UNL     1      31.571  -8.390 -22.847  0.00  0.00    +0.241 HD
ENDBRANCH  31  34
ENDBRANCH  27  32
ENDBRANCH  21  24
ENDBRANCH  19  22
ENDBRANCH   1  19
TORSDOF 10
ENDMDL
