MODEL 1
REMARK VINA RESULT:     -11.7      0.000      0.000
REMARK  Name = 6914614
REMARK  7 active torsions:
REMARK  status: ('A' for Active; 'I' for Inactive)
REMARK    1  A    between atoms: O_1  and  C_4
REMARK    2  A    between atoms: O_1  and  C_18
REMARK    3  A    between atoms: C_9  and  C_13
REMARK    4  A    between atoms: C_18  and  C_19
REMARK    5  A    between atoms: C_19  and  N_20
REMARK    6  A    between atoms: C_19  and  C_24
REMARK    7  A    between atoms: C_24  and  C_26
REMARK                            x       y       z     vdW  Elec       q    Type
REMARK                         _______ _______ _______ _____ _____    ______ ____
ROOT
ATOM      1  O   UNL     1      36.110 -20.704 -20.460  0.00  0.00    -0.476 OA
ENDROOT
BRANCH   1   4
ATOM      2  N   UNL     1      35.413 -23.348 -16.479  0.00  0.00    -0.404 NA
ATOM      3  N   UNL     1      33.192 -22.483 -19.245  0.00  0.00    -0.258 NA
ATOM      4  C   UNL     1      35.343 -21.472 -19.642  0.00  0.00    +0.159 C 
ATOM      5  C   UNL     1      35.831 -22.016 -18.446  0.00  0.00    +0.063 C 
ATOM      6  C   UNL     1      34.993 -22.802 -17.638  0.00  0.00    +0.136 C 
ATOM      7  C   UNL     1      37.147 -21.801 -18.017  0.00  0.00    +0.008 C 
ATOM      8  C   UNL     1      34.030 -21.734 -19.990  0.00  0.00    +0.130 C 
ATOM      9  C   UNL     1      36.692 -23.117 -16.100  0.00  0.00    +0.131 C 
ATOM     10  C   UNL     1      37.590 -22.360 -16.825  0.00  0.00    +0.032 C 
ATOM     11  C   UNL     1      33.699 -22.990 -18.096  0.00  0.00    +0.184 C 
BRANCH   9  13
ATOM     12  N   UNL     1      37.813 -24.919 -12.427  0.00  0.00    -0.242 NA
ATOM     13  C   UNL     1      37.073 -23.731 -14.850  0.00  0.00    +0.033 C 
ATOM     14  C   UNL     1      36.327 -23.498 -13.699  0.00  0.00    +0.023 C 
ATOM     15  C   UNL     1      38.191 -24.558 -14.788  0.00  0.00    +0.023 C 
ATOM     16  C   UNL     1      36.734 -24.111 -12.524  0.00  0.00    +0.099 C 
ATOM     17  C   UNL     1      38.515 -25.123 -13.564  0.00  0.00    +0.099 C 
ENDBRANCH   9  13
ENDBRANCH   1   4
BRANCH   1  18
ATOM     18  C   UNL     1      35.429 -19.839 -21.368  0.00  0.00    +0.184 C 
BRANCH  18  19
ATOM     19  C   UNL     1      36.254 -18.586 -21.688  0.00  0.00    -0.017 C 
BRANCH  19  20
ATOM     20  N   UNL     1      37.679 -18.925 -21.591  0.00  0.00    +0.384 N 
ATOM     21  H   UNL     1      37.869 -19.758 -22.150  0.00  0.00    -0.089 HD
ATOM     22  H   UNL     1      37.919 -19.107 -20.617  0.00  0.00    -0.089 HD
ATOM     23  H   UNL     1      38.238 -18.147 -21.941  0.00  0.00    -0.089 HD
ENDBRANCH  19  20
BRANCH  19  24
ATOM     24  C   UNL     1      35.985 -17.997 -23.086  0.00  0.00    +0.009 C 
BRANCH  24  26
ATOM     25  N   UNL     1      34.583 -14.713 -22.323  0.00  0.00    -0.312 N 
ATOM     26  C   UNL     1      35.342 -16.639 -23.053  0.00  0.00    -0.008 C 
ATOM     27  C   UNL     1      34.774 -15.971 -24.155  0.00  0.00    +0.011 C 
ATOM     28  C   UNL     1      34.299 -14.751 -23.669  0.00  0.00    +0.048 C 
ATOM     29  C   UNL     1      35.221 -15.863 -21.942  0.00  0.00    +0.058 C 
ATOM     30  C   UNL     1      34.609 -16.268 -25.523  0.00  0.00    +0.001 C 
ATOM     31  C   UNL     1      33.664 -13.808 -24.486  0.00  0.00    +0.015 C 
ATOM     32  C   UNL     1      33.976 -15.335 -26.352  0.00  0.00    +0.000 C 
ATOM     33  C   UNL     1      33.511 -14.124 -25.840  0.00  0.00    +0.001 C 
ATOM     34  H   UNL     1      34.361 -13.967 -21.721  0.00  0.00    +0.152 HD
ENDBRANCH  24  26
ENDBRANCH  19  24
ENDBRANCH  18  19
ENDBRANCH   1  18
TORSDOF 7
ENDMDL
MODEL 2
REMARK VINA RESULT:     -11.7      3.398      6.764
REMARK  Name = 6914614
REMARK  7 active torsions:
REMARK  status: ('A' for Active; 'I' for Inactive)
REMARK    1  A    between atoms: O_1  and  C_4
REMARK    2  A    between atoms: O_1  and  C_18
REMARK    3  A    between atoms: C_9  and  C_13
REMARK    4  A    between atoms: C_18  and  C_19
REMARK    5  A    between atoms: C_19  and  N_20
REMARK    6  A    between atoms: C_19  and  C_24
REMARK    7  A    between atoms: C_24  and  C_26
REMARK                            x       y       z     vdW  Elec       q    Type
REMARK                         _______ _______ _______ _____ _____    ______ ____
ROOT
ATOM      1  O   UNL     1      35.593 -15.150 -24.181  0.00  0.00    -0.476 OA
ENDROOT
BRANCH   1   4
ATOM      2  N   UNL     1      34.774 -19.689 -22.753  0.00  0.00    -0.404 NA
ATOM      3  N   UNL     1      34.239 -18.011 -25.951  0.00  0.00    -0.258 NA
ATOM      4  C   UNL     1      35.170 -16.424 -24.397  0.00  0.00    +0.159 C 
ATOM      5  C   UNL     1      35.209 -17.407 -23.399  0.00  0.00    +0.063 C 
ATOM      6  C   UNL     1      34.758 -18.708 -23.677  0.00  0.00    +0.136 C 
ATOM      7  C   UNL     1      35.689 -17.138 -22.111  0.00  0.00    +0.008 C 
ATOM      8  C   UNL     1      34.681 -16.776 -25.642  0.00  0.00    +0.130 C 
ATOM      9  C   UNL     1      35.245 -19.389 -21.520  0.00  0.00    +0.131 C 
ATOM     10  C   UNL     1      35.710 -18.142 -21.152  0.00  0.00    +0.032 C 
ATOM     11  C   UNL     1      34.291 -18.934 -24.961  0.00  0.00    +0.184 C 
BRANCH   9  13
ATOM     12  N   UNL     1      35.208 -22.613 -18.764  0.00  0.00    -0.242 NA
ATOM     13  C   UNL     1      35.233 -20.487 -20.582  0.00  0.00    +0.033 C 
ATOM     14  C   UNL     1      34.044 -21.151 -20.298  0.00  0.00    +0.023 C 
ATOM     15  C   UNL     1      36.409 -20.886 -19.956  0.00  0.00    +0.023 C 
ATOM     16  C   UNL     1      34.084 -22.198 -19.391  0.00  0.00    +0.099 C 
ATOM     17  C   UNL     1      36.344 -21.945 -19.063  0.00  0.00    +0.099 C 
ENDBRANCH   9  13
ENDBRANCH   1   4
BRANCH   1  18
ATOM     18  C   UNL     1      34.809 -14.099 -24.745  0.00  0.00    +0.184 C 
BRANCH  18  19
ATOM     19  C   UNL     1      34.303 -13.127 -23.672  0.00  0.00    -0.017 C 
BRANCH  19  20
ATOM     20  N   UNL     1      34.472 -11.755 -24.165  0.00  0.00    +0.384 N 
ATOM     21  H   UNL     1      35.122 -11.754 -24.953  0.00  0.00    -0.089 HD
ATOM     22  H   UNL     1      34.843 -11.168 -23.419  0.00  0.00    -0.089 HD
ATOM     23  H   UNL     1      33.570 -11.389 -24.469  0.00  0.00    -0.089 HD
ENDBRANCH  19  20
BRANCH  19  24
ATOM     24  C   UNL     1      32.825 -13.330 -23.288  0.00  0.00    +0.009 C 
BRANCH  24  26
ATOM     25  N   UNL     1      32.311 -13.674 -19.689  0.00  0.00    -0.312 N 
ATOM     26  C   UNL     1      32.561 -13.188 -21.815  0.00  0.00    -0.008 C 
ATOM     27  C   UNL     1      32.227 -11.992 -21.152  0.00  0.00    +0.011 C 
ATOM     28  C   UNL     1      32.073 -12.323 -19.804  0.00  0.00    +0.048 C 
ATOM     29  C   UNL     1      32.610 -14.207 -20.915  0.00  0.00    +0.058 C 
ATOM     30  C   UNL     1      32.037 -10.653 -21.548  0.00  0.00    +0.001 C 
ATOM     31  C   UNL     1      31.737 -11.378 -18.828  0.00  0.00    +0.015 C 
ATOM     32  C   UNL     1      31.700  -9.697 -20.582  0.00  0.00    +0.000 C 
ATOM     33  C   UNL     1      31.553 -10.056 -19.243  0.00  0.00    +0.001 C 
ATOM     34  H   UNL     1      32.273 -14.183 -18.848  0.00  0.00    +0.152 HD
ENDBRANCH  24  26
ENDBRANCH  19  24
ENDBRANCH  18  19
ENDBRANCH   1  18
TORSDOF 7
ENDMDL
MODEL 3
REMARK VINA RESULT:     -11.6      0.911      1.906
REMARK  Name = 6914614
REMARK  7 active torsions:
REMARK  status: ('A' for Active; 'I' for Inactive)
REMARK    1  A    between atoms: O_1  and  C_4
REMARK    2  A    between atoms: O_1  and  C_18
REMARK    3  A    between atoms: C_9  and  C_13
REMARK    4  A    between atoms: C_18  and  C_19
REMARK    5  A    between atoms: C_19  and  N_20
REMARK    6  A    between atoms: C_19  and  C_24
REMARK    7  A    between atoms: C_24  and  C_26
REMARK                            x       y       z     vdW  Elec       q    Type
REMARK                         _______ _______ _______ _____ _____    ______ ____
ROOT
ATOM      1  O   UNL     1      36.034 -20.615 -20.357  0.00  0.00    -0.476 OA
ENDROOT
BRANCH   1   4
ATOM      2  N   UNL     1      35.501 -23.394 -16.444  0.00  0.00    -0.404 NA
ATOM      3  N   UNL     1      33.198 -22.519 -19.139  0.00  0.00    -0.258 NA
ATOM      4  C   UNL     1      35.308 -21.430 -19.547  0.00  0.00    +0.159 C 
ATOM      5  C   UNL     1      35.837 -21.993 -18.379  0.00  0.00    +0.063 C 
ATOM      6  C   UNL     1      35.040 -22.829 -17.578  0.00  0.00    +0.136 C 
ATOM      7  C   UNL     1      37.154 -21.749 -17.969  0.00  0.00    +0.008 C 
ATOM      8  C   UNL     1      33.997 -21.723 -19.878  0.00  0.00    +0.130 C 
ATOM      9  C   UNL     1      36.779 -23.135 -16.083  0.00  0.00    +0.131 C 
ATOM     10  C   UNL     1      37.638 -22.328 -16.803  0.00  0.00    +0.032 C 
ATOM     11  C   UNL     1      33.744 -23.044 -18.016  0.00  0.00    +0.184 C 
BRANCH   9  13
ATOM     12  N   UNL     1      38.030 -25.011 -12.491  0.00  0.00    -0.242 NA
ATOM     13  C   UNL     1      37.205 -23.773 -14.860  0.00  0.00    +0.033 C 
ATOM     14  C   UNL     1      38.280 -24.657 -14.869  0.00  0.00    +0.023 C 
ATOM     15  C   UNL     1      36.543 -23.510 -13.665  0.00  0.00    +0.023 C 
ATOM     16  C   UNL     1      38.651 -25.243 -13.669  0.00  0.00    +0.099 C 
ATOM     17  C   UNL     1      36.991 -24.148 -12.519  0.00  0.00    +0.099 C 
ENDBRANCH   9  13
ENDBRANCH   1   4
BRANCH   1  18
ATOM     18  C   UNL     1      35.315 -19.849 -21.324  0.00  0.00    +0.184 C 
BRANCH  18  19
ATOM     19  C   UNL     1      36.151 -18.680 -21.860  0.00  0.00    -0.017 C 
BRANCH  19  20
ATOM     20  N   UNL     1      37.558 -18.911 -21.512  0.00  0.00    +0.384 N 
ATOM     21  H   UNL     1      37.646 -19.807 -21.031  0.00  0.00    -0.089 HD
ATOM     22  H   UNL     1      37.885 -18.163 -20.902  0.00  0.00    -0.089 HD
ATOM     23  H   UNL     1      38.121 -18.926 -22.363  0.00  0.00    -0.089 HD
ENDBRANCH  19  20
BRANCH  19  24
ATOM     24  C   UNL     1      36.049 -18.484 -23.385  0.00  0.00    +0.009 C 
BRANCH  24  26
ATOM     25  N   UNL     1      34.596 -15.553 -25.006  0.00  0.00    -0.312 N 
ATOM     26  C   UNL     1      35.423 -17.177 -23.783  0.00  0.00    -0.008 C 
ATOM     27  C   UNL     1      35.019 -16.157 -22.902  0.00  0.00    +0.011 C 
ATOM     28  C   UNL     1      34.497 -15.136 -23.698  0.00  0.00    +0.048 C 
ATOM     29  C   UNL     1      35.161 -16.799 -25.064  0.00  0.00    +0.058 C 
ATOM     30  C   UNL     1      35.038 -15.983 -21.503  0.00  0.00    +0.001 C 
ATOM     31  C   UNL     1      33.989 -13.946 -23.165  0.00  0.00    +0.015 C 
ATOM     32  C   UNL     1      34.534 -14.798 -20.955  0.00  0.00    +0.000 C 
ATOM     33  C   UNL     1      34.018 -13.796 -21.775  0.00  0.00    +0.001 C 
ATOM     34  H   UNL     1      34.302 -15.031 -25.787  0.00  0.00    +0.152 HD
ENDBRANCH  24  26
ENDBRANCH  19  24
ENDBRANCH  18  19
ENDBRANCH   1  18
TORSDOF 7
ENDMDL
MODEL 4
REMARK VINA RESULT:     -11.6      2.790     10.511
REMARK  Name = 6914614
REMARK  7 active torsions:
REMARK  status: ('A' for Active; 'I' for Inactive)
REMARK    1  A    between atoms: O_1  and  C_4
REMARK    2  A    between atoms: O_1  and  C_18
REMARK    3  A    between atoms: C_9  and  C_13
REMARK    4  A    between atoms: C_18  and  C_19
REMARK    5  A    between atoms: C_19  and  N_20
REMARK    6  A    between atoms: C_19  and  C_24
REMARK    7  A    between atoms: C_24  and  C_26
REMARK                            x       y       z     vdW  Elec       q    Type
REMARK                         _______ _______ _______ _____ _____    ______ ____
ROOT
ATOM      1  O   UNL     1      35.970 -17.397 -23.858  0.00  0.00    -0.476 OA
ENDROOT
BRANCH   1   4
ATOM      2  N   UNL     1      33.082 -13.535 -23.616  0.00  0.00    -0.404 NA
ATOM      3  N   UNL     1      34.078 -15.657 -26.415  0.00  0.00    -0.258 NA
ATOM      4  C   UNL     1      35.143 -16.474 -24.415  0.00  0.00    +0.159 C 
ATOM      5  C   UNL     1      34.536 -15.459 -23.664  0.00  0.00    +0.063 C 
ATOM      6  C   UNL     1      33.689 -14.530 -24.293  0.00  0.00    +0.136 C 
ATOM      7  C   UNL     1      34.744 -15.331 -22.285  0.00  0.00    +0.008 C 
ATOM      8  C   UNL     1      34.883 -16.527 -25.773  0.00  0.00    +0.130 C 
ATOM      9  C   UNL     1      33.308 -13.446 -22.285  0.00  0.00    +0.131 C 
ATOM     10  C   UNL     1      34.121 -14.310 -21.579  0.00  0.00    +0.032 C 
ATOM     11  C   UNL     1      33.509 -14.690 -25.657  0.00  0.00    +0.184 C 
BRANCH   9  13
ATOM     12  N   UNL     1      31.302 -10.251 -20.346  0.00  0.00    -0.242 NA
ATOM     13  C   UNL     1      32.626 -12.359 -21.625  0.00  0.00    +0.033 C 
ATOM     14  C   UNL     1      32.280 -12.462 -20.281  0.00  0.00    +0.023 C 
ATOM     15  C   UNL     1      32.308 -11.201 -22.329  0.00  0.00    +0.023 C 
ATOM     16  C   UNL     1      31.626 -11.390 -19.693  0.00  0.00    +0.099 C 
ATOM     17  C   UNL     1      31.653 -10.186 -21.650  0.00  0.00    +0.099 C 
ENDBRANCH   9  13
ENDBRANCH   1   4
BRANCH   1  18
ATOM     18  C   UNL     1      35.412 -18.677 -23.561  0.00  0.00    +0.184 C 
BRANCH  18  19
ATOM     19  C   UNL     1      35.844 -19.180 -22.177  0.00  0.00    -0.017 C 
BRANCH  19  20
ATOM     20  N   UNL     1      35.997 -18.024 -21.286  0.00  0.00    +0.384 N 
ATOM     21  H   UNL     1      35.079 -17.728 -20.952  0.00  0.00    -0.089 HD
ATOM     22  H   UNL     1      36.437 -17.258 -21.794  0.00  0.00    -0.089 HD
ATOM     23  H   UNL     1      36.580 -18.283 -20.489  0.00  0.00    -0.089 HD
ENDBRANCH  19  20
BRANCH  19  24
ATOM     24  C   UNL     1      34.855 -20.169 -21.532  0.00  0.00    +0.009 C 
BRANCH  24  26
ATOM     25  N   UNL     1      36.845 -21.698 -18.880  0.00  0.00    -0.312 N 
ATOM     26  C   UNL     1      35.420 -20.896 -20.344  0.00  0.00    -0.008 C 
ATOM     27  C   UNL     1      34.678 -21.631 -19.401  0.00  0.00    +0.011 C 
ATOM     28  C   UNL     1      35.601 -22.131 -18.480  0.00  0.00    +0.048 C 
ATOM     29  C   UNL     1      36.740 -20.943 -20.018  0.00  0.00    +0.058 C 
ATOM     30  C   UNL     1      33.312 -21.930 -19.222  0.00  0.00    +0.001 C 
ATOM     31  C   UNL     1      35.227 -22.918 -17.386  0.00  0.00    +0.015 C 
ATOM     32  C   UNL     1      32.923 -22.717 -18.132  0.00  0.00    +0.000 C 
ATOM     33  C   UNL     1      33.867 -23.203 -17.229  0.00  0.00    +0.001 C 
ATOM     34  H   UNL     1      37.688 -21.901 -18.415  0.00  0.00    +0.152 HD
ENDBRANCH  24  26
ENDBRANCH  19  24
ENDBRANCH  18  19
ENDBRANCH   1  18
TORSDOF 7
ENDMDL
MODEL 5
REMARK VINA RESULT:     -11.5      4.670      8.579
REMARK  Name = 6914614
REMARK  7 active torsions:
REMARK  status: ('A' for Active; 'I' for Inactive)
REMARK    1  A    between atoms: O_1  and  C_4
REMARK    2  A    between atoms: O_1  and  C_18
REMARK    3  A    between atoms: C_9  and  C_13
REMARK    4  A    between atoms: C_18  and  C_19
REMARK    5  A    between atoms: C_19  and  N_20
REMARK    6  A    between atoms: C_19  and  C_24
REMARK    7  A    between atoms: C_24  and  C_26
REMARK                            x       y       z     vdW  Elec       q    Type
REMARK                         _______ _______ _______ _____ _____    ______ ____
ROOT
ATOM      1  O   UNL     1      33.748 -12.875 -24.195  0.00  0.00    -0.476 OA
ENDROOT
BRANCH   1   4
ATOM      2  N   UNL     1      35.061 -17.503 -23.774  0.00  0.00    -0.404 NA
ATOM      3  N   UNL     1      33.983 -15.533 -26.652  0.00  0.00    -0.258 NA
ATOM      4  C   UNL     1      33.980 -14.114 -24.705  0.00  0.00    +0.159 C 
ATOM      5  C   UNL     1      34.417 -15.183 -23.912  0.00  0.00    +0.063 C 
ATOM      6  C   UNL     1      34.641 -16.443 -24.492  0.00  0.00    +0.136 C 
ATOM      7  C   UNL     1      34.643 -15.042 -22.537  0.00  0.00    +0.008 C 
ATOM      8  C   UNL     1      33.781 -14.341 -26.055  0.00  0.00    +0.130 C 
ATOM      9  C   UNL     1      35.269 -17.326 -22.448  0.00  0.00    +0.131 C 
ATOM     10  C   UNL     1      35.077 -16.129 -21.788  0.00  0.00    +0.032 C 
ATOM     11  C   UNL     1      34.405 -16.542 -25.853  0.00  0.00    +0.184 C 
BRANCH   9  13
ATOM     12  N   UNL     1      36.586 -20.783 -20.372  0.00  0.00    -0.242 NA
ATOM     13  C   UNL     1      35.717 -18.503 -21.742  0.00  0.00    +0.033 C 
ATOM     14  C   UNL     1      34.805 -19.485 -21.368  0.00  0.00    +0.023 C 
ATOM     15  C   UNL     1      37.064 -18.662 -21.429  0.00  0.00    +0.023 C 
ATOM     16  C   UNL     1      35.285 -20.596 -20.693  0.00  0.00    +0.099 C 
ATOM     17  C   UNL     1      37.443 -19.809 -20.750  0.00  0.00    +0.099 C 
ENDBRANCH   9  13
ENDBRANCH   1   4
BRANCH   1  18
ATOM     18  C   UNL     1      34.239 -11.761 -24.940  0.00  0.00    +0.184 C 
BRANCH  18  19
ATOM     19  C   UNL     1      34.404 -10.516 -24.061  0.00  0.00    -0.017 C 
BRANCH  19  20
ATOM     20  N   UNL     1      35.495  -9.699 -24.606  0.00  0.00    +0.384 N 
ATOM     21  H   UNL     1      35.317  -9.508 -25.592  0.00  0.00    -0.089 HD
ATOM     22  H   UNL     1      36.376 -10.201 -24.510  0.00  0.00    -0.089 HD
ATOM     23  H   UNL     1      35.548  -8.818 -24.094  0.00  0.00    -0.089 HD
ENDBRANCH  19  20
BRANCH  19  24
ATOM     24  C   UNL     1      33.138  -9.642 -23.966  0.00  0.00    +0.009 C 
BRANCH  24  26
ATOM     25  N   UNL     1      32.367  -8.130 -20.734  0.00  0.00    -0.312 N 
ATOM     26  C   UNL     1      32.755  -9.290 -22.557  0.00  0.00    -0.008 C 
ATOM     27  C   UNL     1      32.314 -10.195 -21.574  0.00  0.00    +0.011 C 
ATOM     28  C   UNL     1      32.073  -9.439 -20.425  0.00  0.00    +0.048 C 
ATOM     29  C   UNL     1      32.783  -8.033 -22.034  0.00  0.00    +0.058 C 
ATOM     30  C   UNL     1      32.089 -11.586 -21.529  0.00  0.00    +0.001 C 
ATOM     31  C   UNL     1      31.617 -10.005 -19.229  0.00  0.00    +0.015 C 
ATOM     32  C   UNL     1      31.633 -12.167 -20.340  0.00  0.00    +0.000 C 
ATOM     33  C   UNL     1      31.401 -11.386 -19.208  0.00  0.00    +0.001 C 
ATOM     34  H   UNL     1      32.288  -7.373 -20.110  0.00  0.00    +0.152 HD
ENDBRANCH  24  26
ENDBRANCH  19  24
ENDBRANCH  18  19
ENDBRANCH   1  18
TORSDOF 7
ENDMDL
MODEL 6
REMARK VINA RESULT:     -11.4      3.088      6.354
REMARK  Name = 6914614
REMARK  7 active torsions:
REMARK  status: ('A' for Active; 'I' for Inactive)
REMARK    1  A    between atoms: O_1  and  C_4
REMARK    2  A    between atoms: O_1  and  C_18
REMARK    3  A    between atoms: C_9  and  C_13
REMARK    4  A    between atoms: C_18  and  C_19
REMARK    5  A    between atoms: C_19  and  N_20
REMARK    6  A    between atoms: C_19  and  C_24
REMARK    7  A    between atoms: C_24  and  C_26
REMARK                            x       y       z     vdW  Elec       q    Type
REMARK                         _______ _______ _______ _____ _____    ______ ____
ROOT
ATOM      1  O   UNL     1      36.677 -23.481 -16.453  0.00  0.00    -0.476 OA
ENDROOT
BRANCH   1   4
ATOM      2  N   UNL     1      32.135 -23.802 -14.844  0.00  0.00    -0.404 NA
ATOM      3  N   UNL     1      35.342 -24.432 -13.218  0.00  0.00    -0.258 NA
ATOM      4  C   UNL     1      35.755 -23.743 -15.489  0.00  0.00    +0.159 C 
ATOM      5  C   UNL     1      34.378 -23.620 -15.713  0.00  0.00    +0.063 C 
ATOM      6  C   UNL     1      33.469 -23.905 -14.680  0.00  0.00    +0.136 C 
ATOM      7  C   UNL     1      33.861 -23.216 -16.951  0.00  0.00    +0.008 C 
ATOM      8  C   UNL     1      36.179 -24.148 -14.236  0.00  0.00    +0.130 C 
ATOM      9  C   UNL     1      31.676 -23.408 -16.055  0.00  0.00    +0.131 C 
ATOM     10  C   UNL     1      32.488 -23.106 -17.129  0.00  0.00    +0.032 C 
ATOM     11  C   UNL     1      34.019 -24.301 -13.472  0.00  0.00    +0.184 C 
BRANCH   9  13
ATOM     12  N   UNL     1      27.453 -23.148 -16.361  0.00  0.00    -0.242 NA
ATOM     13  C   UNL     1      30.238 -23.320 -16.158  0.00  0.00    +0.033 C 
ATOM     14  C   UNL     1      29.561 -24.052 -17.129  0.00  0.00    +0.023 C 
ATOM     15  C   UNL     1      29.522 -22.501 -15.291  0.00  0.00    +0.023 C 
ATOM     16  C   UNL     1      28.181 -23.933 -17.187  0.00  0.00    +0.099 C 
ATOM     17  C   UNL     1      28.144 -22.451 -15.432  0.00  0.00    +0.099 C 
ENDBRANCH   9  13
ENDBRANCH   1   4
BRANCH   1  18
ATOM     18  C   UNL     1      37.360 -22.230 -16.378  0.00  0.00    +0.184 C 
BRANCH  18  19
ATOM     19  C   UNL     1      36.909 -21.268 -17.485  0.00  0.00    -0.017 C 
BRANCH  19  20
ATOM     20  N   UNL     1      37.865 -20.156 -17.556  0.00  0.00    +0.384 N 
ATOM     21  H   UNL     1      38.577 -20.364 -18.257  0.00  0.00    -0.089 HD
ATOM     22  H   UNL     1      38.308 -20.030 -16.647  0.00  0.00    -0.089 HD
ATOM     23  H   UNL     1      37.373 -19.301 -17.817  0.00  0.00    -0.089 HD
ENDBRANCH  19  20
BRANCH  19  24
ATOM     24  C   UNL     1      36.809 -21.917 -18.879  0.00  0.00    +0.009 C 
BRANCH  24  26
ATOM     25  N   UNL     1      33.992 -20.627 -20.810  0.00  0.00    -0.312 N 
ATOM     26  C   UNL     1      35.848 -21.219 -19.799  0.00  0.00    -0.008 C 
ATOM     27  C   UNL     1      36.184 -20.224 -20.737  0.00  0.00    +0.011 C 
ATOM     28  C   UNL     1      34.992 -19.862 -21.367  0.00  0.00    +0.048 C 
ATOM     29  C   UNL     1      34.509 -21.457 -19.852  0.00  0.00    +0.058 C 
ATOM     30  C   UNL     1      37.378 -19.583 -21.125  0.00  0.00    +0.001 C 
ATOM     31  C   UNL     1      34.933 -18.887 -22.370  0.00  0.00    +0.015 C 
ATOM     32  C   UNL     1      37.335 -18.607 -22.126  0.00  0.00    +0.000 C 
ATOM     33  C   UNL     1      36.130 -18.266 -22.739  0.00  0.00    +0.001 C 
ATOM     34  H   UNL     1      33.042 -20.583 -21.064  0.00  0.00    +0.152 HD
ENDBRANCH  24  26
ENDBRANCH  19  24
ENDBRANCH  18  19
ENDBRANCH   1  18
TORSDOF 7
ENDMDL
MODEL 7
REMARK VINA RESULT:     -11.2      2.401      9.940
REMARK  Name = 6914614
REMARK  7 active torsions:
REMARK  status: ('A' for Active; 'I' for Inactive)
REMARK    1  A    between atoms: O_1  and  C_4
REMARK    2  A    between atoms: O_1  and  C_18
REMARK    3  A    between atoms: C_9  and  C_13
REMARK    4  A    between atoms: C_18  and  C_19
REMARK    5  A    between atoms: C_19  and  N_20
REMARK    6  A    between atoms: C_19  and  C_24
REMARK    7  A    between atoms: C_24  and  C_26
REMARK                            x       y       z     vdW  Elec       q    Type
REMARK                         _______ _______ _______ _____ _____    ______ ____
ROOT
ATOM      1  O   UNL     1      36.591 -22.478 -18.523  0.00  0.00    -0.476 OA
ENDROOT
BRANCH   1   4
ATOM      2  N   UNL     1      34.238 -19.640 -21.641  0.00  0.00    -0.404 NA
ATOM      3  N   UNL     1      33.068 -22.227 -19.346  0.00  0.00    -0.258 NA
ATOM      4  C   UNL     1      35.460 -22.036 -19.134  0.00  0.00    +0.159 C 
ATOM      5  C   UNL     1      35.476 -21.025 -20.104  0.00  0.00    +0.063 C 
ATOM      6  C   UNL     1      34.276 -20.607 -20.704  0.00  0.00    +0.136 C 
ATOM      7  C   UNL     1      36.665 -20.402 -20.507  0.00  0.00    +0.008 C 
ATOM      8  C   UNL     1      34.242 -22.597 -18.796  0.00  0.00    +0.130 C 
ATOM      9  C   UNL     1      35.407 -19.063 -22.003  0.00  0.00    +0.131 C 
ATOM     10  C   UNL     1      36.635 -19.404 -21.471  0.00  0.00    +0.032 C 
ATOM     11  C   UNL     1      33.124 -21.247 -20.280  0.00  0.00    +0.184 C 
BRANCH   9  13
ATOM     12  N   UNL     1      35.067 -16.045 -24.964  0.00  0.00    -0.242 NA
ATOM     13  C   UNL     1      35.291 -18.035 -23.010  0.00  0.00    +0.033 C 
ATOM     14  C   UNL     1      34.947 -18.371 -24.316  0.00  0.00    +0.023 C 
ATOM     15  C   UNL     1      35.524 -16.703 -22.683  0.00  0.00    +0.023 C 
ATOM     16  C   UNL     1      34.848 -17.349 -25.247  0.00  0.00    +0.099 C 
ATOM     17  C   UNL     1      35.399 -15.755 -23.686  0.00  0.00    +0.099 C 
ENDBRANCH   9  13
ENDBRANCH   1   4
BRANCH   1  18
ATOM     18  C   UNL     1      36.843 -22.007 -17.199  0.00  0.00    +0.184 C 
BRANCH  18  19
ATOM     19  C   UNL     1      36.298 -22.971 -16.138  0.00  0.00    -0.017 C 
BRANCH  19  20
ATOM     20  N   UNL     1      37.364 -23.252 -15.169  0.00  0.00    +0.384 N 
ATOM     21  H   UNL     1      36.967 -23.297 -14.230  0.00  0.00    -0.089 HD
ATOM     22  H   UNL     1      38.063 -22.511 -15.208  0.00  0.00    -0.089 HD
ATOM     23  H   UNL     1      37.802 -24.146 -15.395  0.00  0.00    -0.089 HD
ENDBRANCH  19  20
BRANCH  19  24
ATOM     24  C   UNL     1      35.071 -22.436 -15.375  0.00  0.00    +0.009 C 
BRANCH  24  26
ATOM     25  N   UNL     1      33.385 -25.290 -13.846  0.00  0.00    -0.312 N 
ATOM     26  C   UNL     1      34.146 -23.516 -14.891  0.00  0.00    -0.008 C 
ATOM     27  C   UNL     1      32.789 -23.654 -15.239  0.00  0.00    +0.011 C 
ATOM     28  C   UNL     1      32.326 -24.786 -14.565  0.00  0.00    +0.048 C 
ATOM     29  C   UNL     1      34.499 -24.518 -14.041  0.00  0.00    +0.058 C 
ATOM     30  C   UNL     1      31.893 -22.938 -16.059  0.00  0.00    +0.001 C 
ATOM     31  C   UNL     1      31.006 -25.240 -14.669  0.00  0.00    +0.015 C 
ATOM     32  C   UNL     1      30.571 -23.380 -16.173  0.00  0.00    +0.000 C 
ATOM     33  C   UNL     1      30.135 -24.514 -15.489  0.00  0.00    +0.001 C 
ATOM     34  H   UNL     1      33.347 -26.090 -13.273  0.00  0.00    +0.152 HD
ENDBRANCH  24  26
ENDBRANCH  19  24
ENDBRANCH  18  19
ENDBRANCH   1  18
TORSDOF 7
ENDMDL
MODEL 8
REMARK VINA RESULT:     -11.2      3.300      9.686
REMARK  Name = 6914614
REMARK  7 active torsions:
REMARK  status: ('A' for Active; 'I' for Inactive)
REMARK    1  A    between atoms: O_1  and  C_4
REMARK    2  A    between atoms: O_1  and  C_18
REMARK    3  A    between atoms: C_9  and  C_13
REMARK    4  A    between atoms: C_18  and  C_19
REMARK    5  A    between atoms: C_19  and  N_20
REMARK    6  A    between atoms: C_19  and  C_24
REMARK    7  A    between atoms: C_24  and  C_26
REMARK                            x       y       z     vdW  Elec       q    Type
REMARK                         _______ _______ _______ _____ _____    ______ ____
ROOT
ATOM      1  O   UNL     1      34.686 -23.956 -16.084  0.00  0.00    -0.476 OA
ENDROOT
BRANCH   1   4
ATOM      2  N   UNL     1      36.832 -20.881 -19.127  0.00  0.00    -0.404 NA
ATOM      3  N   UNL     1      37.927 -22.334 -15.962  0.00  0.00    -0.258 NA
ATOM      4  C   UNL     1      35.724 -23.166 -16.468  0.00  0.00    +0.159 C 
ATOM      5  C   UNL     1      35.702 -22.419 -17.652  0.00  0.00    +0.063 C 
ATOM      6  C   UNL     1      36.804 -21.619 -17.999  0.00  0.00    +0.136 C 
ATOM      7  C   UNL     1      34.603 -22.439 -18.521  0.00  0.00    +0.008 C 
ATOM      8  C   UNL     1      36.849 -23.089 -15.667  0.00  0.00    +0.130 C 
ATOM      9  C   UNL     1      35.751 -20.928 -19.940  0.00  0.00    +0.131 C 
ATOM     10  C   UNL     1      34.624 -21.683 -19.686  0.00  0.00    +0.032 C 
ATOM     11  C   UNL     1      37.869 -21.626 -17.114  0.00  0.00    +0.184 C 
BRANCH   9  13
ATOM     12  N   UNL     1      36.044 -18.538 -23.432  0.00  0.00    -0.242 NA
ATOM     13  C   UNL     1      35.851 -20.114 -21.128  0.00  0.00    +0.033 C 
ATOM     14  C   UNL     1      34.800 -20.074 -22.040  0.00  0.00    +0.023 C 
ATOM     15  C   UNL     1      36.999 -19.366 -21.371  0.00  0.00    +0.023 C 
ATOM     16  C   UNL     1      34.944 -19.278 -23.165  0.00  0.00    +0.099 C 
ATOM     17  C   UNL     1      37.045 -18.601 -22.526  0.00  0.00    +0.099 C 
ENDBRANCH   9  13
ENDBRANCH   1   4
BRANCH   1  18
ATOM     18  C   UNL     1      34.916 -24.854 -14.999  0.00  0.00    +0.184 C 
BRANCH  18  19
ATOM     19  C   UNL     1      34.111 -24.462 -13.754  0.00  0.00    -0.017 C 
BRANCH  19  20
ATOM     20  N   UNL     1      35.016 -23.821 -12.793  0.00  0.00    +0.384 N 
ATOM     21  H   UNL     1      35.665 -23.211 -13.292  0.00  0.00    -0.089 HD
ATOM     22  H   UNL     1      35.540 -24.536 -12.290  0.00  0.00    -0.089 HD
ATOM     23  H   UNL     1      34.472 -23.267 -12.131  0.00  0.00    -0.089 HD
ENDBRANCH  19  20
BRANCH  19  24
ATOM     24  C   UNL     1      32.941 -23.501 -14.041  0.00  0.00    +0.009 C 
BRANCH  24  26
ATOM     25  N   UNL     1      29.996 -25.648 -14.271  0.00  0.00    -0.312 N 
ATOM     26  C   UNL     1      31.647 -24.203 -14.345  0.00  0.00    -0.008 C 
ATOM     27  C   UNL     1      30.713 -23.817 -15.324  0.00  0.00    +0.011 C 
ATOM     28  C   UNL     1      29.672 -24.746 -15.260  0.00  0.00    +0.048 C 
ATOM     29  C   UNL     1      31.201 -25.320 -13.709  0.00  0.00    +0.058 C 
ATOM     30  C   UNL     1      30.631 -22.772 -16.266  0.00  0.00    +0.001 C 
ATOM     31  C   UNL     1      28.550 -24.683 -16.093  0.00  0.00    +0.015 C 
ATOM     32  C   UNL     1      29.515 -22.696 -17.107  0.00  0.00    +0.000 C 
ATOM     33  C   UNL     1      28.491 -23.638 -17.020  0.00  0.00    +0.001 C 
ATOM     34  H   UNL     1      29.441 -26.416 -14.006  0.00  0.00    +0.152 HD
ENDBRANCH  24  26
ENDBRANCH  19  24
ENDBRANCH  18  19
ENDBRANCH   1  18
TORSDOF 7
ENDMDL
MODEL 9
REMARK VINA RESULT:     -11.0      1.600      2.245
REMARK  Name = 6914614
REMARK  7 active torsions:
REMARK  status: ('A' for Active; 'I' for Inactive)
REMARK    1  A    between atoms: O_1  and  C_4
REMARK    2  A    between atoms: O_1  and  C_18
REMARK    3  A    between atoms: C_9  and  C_13
REMARK    4  A    between atoms: C_18  and  C_19
REMARK    5  A    between atoms: C_19  and  N_20
REMARK    6  A    between atoms: C_19  and  C_24
REMARK    7  A    between atoms: C_24  and  C_26
REMARK                            x       y       z     vdW  Elec       q    Type
REMARK                         _______ _______ _______ _____ _____    ______ ____
ROOT
ATOM      1  O   UNL     1      36.170 -21.937 -19.817  0.00  0.00    -0.476 OA
ENDROOT
BRANCH   1   4
ATOM      2  N   UNL     1      34.911 -23.373 -15.382  0.00  0.00    -0.404 NA
ATOM      3  N   UNL     1      32.973 -22.968 -18.449  0.00  0.00    -0.258 NA
ATOM      4  C   UNL     1      35.262 -22.369 -18.902  0.00  0.00    +0.159 C 
ATOM      5  C   UNL     1      35.609 -22.648 -17.574  0.00  0.00    +0.063 C 
ATOM      6  C   UNL     1      34.630 -23.092 -16.670  0.00  0.00    +0.136 C 
ATOM      7  C   UNL     1      36.920 -22.498 -17.102  0.00  0.00    +0.008 C 
ATOM      8  C   UNL     1      33.944 -22.544 -19.283  0.00  0.00    +0.130 C 
ATOM      9  C   UNL     1      36.189 -23.216 -14.966  0.00  0.00    +0.131 C 
ATOM     10  C   UNL     1      37.220 -22.786 -15.778  0.00  0.00    +0.032 C 
ATOM     11  C   UNL     1      33.347 -23.226 -17.173  0.00  0.00    +0.184 C 
BRANCH   9  13
ATOM     12  N   UNL     1      36.864 -24.154 -10.884  0.00  0.00    -0.242 NA
ATOM     13  C   UNL     1      36.419 -23.535 -13.576  0.00  0.00    +0.033 C 
ATOM     14  C   UNL     1      37.601 -23.145 -12.955  0.00  0.00    +0.023 C 
ATOM     15  C   UNL     1      35.460 -24.235 -12.851  0.00  0.00    +0.023 C 
ATOM     16  C   UNL     1      37.773 -23.475 -11.619  0.00  0.00    +0.099 C 
ATOM     17  C   UNL     1      35.728 -24.517 -11.521  0.00  0.00    +0.099 C 
ENDBRANCH   9  13
ENDBRANCH   1   4
BRANCH   1  18
ATOM     18  C   UNL     1      36.237 -20.531 -20.054  0.00  0.00    +0.184 C 
BRANCH  18  19
ATOM     19  C   UNL     1      35.542 -20.140 -21.364  0.00  0.00    -0.017 C 
BRANCH  19  20
ATOM     20  N   UNL     1      34.163 -19.740 -21.062  0.00  0.00    +0.384 N 
ATOM     21  H   UNL     1      33.890 -18.970 -21.673  0.00  0.00    -0.089 HD
ATOM     22  H   UNL     1      34.101 -19.440 -20.089  0.00  0.00    -0.089 HD
ATOM     23  H   UNL     1      33.538 -20.532 -21.214  0.00  0.00    -0.089 HD
ENDBRANCH  19  20
BRANCH  19  24
ATOM     24  C   UNL     1      36.231 -18.987 -22.121  0.00  0.00    +0.009 C 
BRANCH  24  26
ATOM     25  N   UNL     1      34.516 -18.714 -25.332  0.00  0.00    -0.312 N 
ATOM     26  C   UNL     1      35.524 -18.592 -23.386  0.00  0.00    -0.008 C 
ATOM     27  C   UNL     1      35.188 -17.278 -23.764  0.00  0.00    +0.011 C 
ATOM     28  C   UNL     1      34.549 -17.378 -25.001  0.00  0.00    +0.048 C 
ATOM     29  C   UNL     1      35.110 -19.459 -24.349  0.00  0.00    +0.058 C 
ATOM     30  C   UNL     1      35.356 -16.002 -23.188  0.00  0.00    +0.001 C 
ATOM     31  C   UNL     1      34.066 -16.263 -25.695  0.00  0.00    +0.015 C 
ATOM     32  C   UNL     1      34.878 -14.878 -23.871  0.00  0.00    +0.000 C 
ATOM     33  C   UNL     1      34.244 -15.008 -25.106  0.00  0.00    +0.001 C 
ATOM     34  H   UNL     1      34.122 -19.080 -26.156  0.00  0.00    +0.152 HD
ENDBRANCH  24  26
ENDBRANCH  19  24
ENDBRANCH  18  19
ENDBRANCH   1  18
TORSDOF 7
ENDMDL
