MODEL 1
REMARK VINA RESULT:     -10.8      0.000      0.000
REMARK  Name = 9933475
REMARK  8 active torsions:
REMARK  status: ('A' for Active; 'I' for Inactive)
REMARK    1  A    between atoms: C_3  and  O_13
REMARK    2  A    between atoms: C_4  and  O_11
REMARK    3  A    between atoms: C_9  and  O_23
REMARK    4  A    between atoms: O_13  and  C_14
REMARK    5  A    between atoms: C_14  and  C_15
REMARK    6  A    between atoms: C_15  and  C_16
REMARK    7  A    between atoms: C_16  and  N_17
REMARK    8  A    between atoms: O_23  and  C_31
REMARK                            x       y       z     vdW  Elec       q    Type
REMARK                         _______ _______ _______ _____ _____    ______ ____
ROOT
ATOM      1  N   UNL     1      32.856 -21.628 -20.002  0.00  0.00    -0.248 NA
ATOM      2  N   UNL     1      33.717 -20.091 -21.645  0.00  0.00    -0.214 NA
ATOM      3  C   UNL     1      35.557 -22.699 -17.783  0.00  0.00    +0.173 C 
ATOM      4  C   UNL     1      36.641 -22.005 -18.297  0.00  0.00    +0.169 C 
ATOM      5  C   UNL     1      34.293 -22.570 -18.356  0.00  0.00    +0.055 C 
ATOM      6  C   UNL     1      35.181 -21.044 -19.975  0.00  0.00    +0.141 C 
ATOM      7  C   UNL     1      34.080 -21.745 -19.458  0.00  0.00    +0.072 C 
ATOM      8  C   UNL     1      36.457 -21.174 -19.397  0.00  0.00    +0.029 C 
ATOM      9  C   UNL     1      34.929 -20.230 -21.076  0.00  0.00    +0.213 C 
ATOM     10  C   UNL     1      32.741 -20.808 -21.066  0.00  0.00    +0.253 C 
ENDROOT
BRANCH   4  11
ATOM     11  O   UNL     1      37.879 -22.125 -17.744  0.00  0.00    -0.469 OA
ATOM     12  C   UNL     1      38.190 -21.260 -16.653  0.00  0.00    +0.253 C 
ENDBRANCH   4  11
BRANCH   3  13
ATOM     13  O   UNL     1      35.715 -23.525 -16.700  0.00  0.00    -0.472 OA
BRANCH  13  14
ATOM     14  C   UNL     1      34.757 -23.408 -15.658  0.00  0.00    +0.203 C 
BRANCH  14  15
ATOM     15  C   UNL     1      34.688 -24.727 -14.902  0.00  0.00    +0.025 C 
BRANCH  15  16
ATOM     16  C   UNL     1      35.861 -25.637 -15.255  0.00  0.00    -0.074 C 
BRANCH  16  17
ATOM     17  N   UNL     1      37.041 -25.258 -14.492  0.00  0.00    +0.387 N 
ATOM     18  C   UNL     1      36.875 -25.483 -13.057  0.00  0.00    -0.077 C 
ATOM     19  C   UNL     1      38.220 -26.039 -14.866  0.00  0.00    -0.077 C 
ATOM     20  C   UNL     1      38.300 -25.404 -12.532  0.00  0.00    -0.025 C 
ATOM     21  C   UNL     1      39.186 -25.765 -13.721  0.00  0.00    -0.025 C 
ATOM     22  H   UNL     1      37.165 -24.268 -14.705  0.00  0.00    -0.080 HD
ENDBRANCH  16  17
ENDBRANCH  15  16
ENDBRANCH  14  15
ENDBRANCH  13  14
ENDBRANCH   3  13
BRANCH   9  23
ATOM     23  O   UNL     1      35.942 -19.506 -21.650  0.00  0.00    -0.437 OA
BRANCH  23  31
ATOM     24  F   UNL     1      35.308 -19.560 -24.322  0.00  0.00    -0.201 F 
ATOM     25  N   UNL     1      34.537 -15.010 -24.456  0.00  0.00    -0.316 N 
ATOM     26  C   UNL     1      34.927 -17.202 -24.317  0.00  0.00    +0.045 C 
ATOM     27  C   UNL     1      34.908 -16.012 -23.587  0.00  0.00    +0.050 C 
ATOM     28  C   UNL     1      34.321 -15.524 -25.705  0.00  0.00    +0.026 C 
ATOM     29  C   UNL     1      34.553 -16.880 -25.652  0.00  0.00    +0.014 C 
ATOM     30  C   UNL     1      35.278 -18.396 -23.657  0.00  0.00    +0.176 C 
ATOM     31  C   UNL     1      35.594 -18.341 -22.304  0.00  0.00    +0.174 C 
ATOM     32  C   UNL     1      35.225 -15.955 -22.225  0.00  0.00    +0.018 C 
ATOM     33  C   UNL     1      35.571 -17.152 -21.592  0.00  0.00    +0.041 C 
ATOM     34  C   UNL     1      33.911 -14.661 -26.829  0.00  0.00    +0.047 C 
ATOM     35  H   UNL     1      34.440 -14.061 -24.213  0.00  0.00    +0.152 HD
ENDBRANCH  23  31
ENDBRANCH   9  23
TORSDOF 8
ENDMDL
MODEL 2
REMARK VINA RESULT:     -10.8      3.839     11.368
REMARK  Name = 9933475
REMARK  8 active torsions:
REMARK  status: ('A' for Active; 'I' for Inactive)
REMARK    1  A    between atoms: C_3  and  O_13
REMARK    2  A    between atoms: C_4  and  O_11
REMARK    3  A    between atoms: C_9  and  O_23
REMARK    4  A    between atoms: O_13  and  C_14
REMARK    5  A    between atoms: C_14  and  C_15
REMARK    6  A    between atoms: C_15  and  C_16
REMARK    7  A    between atoms: C_16  and  N_17
REMARK    8  A    between atoms: O_23  and  C_31
REMARK                            x       y       z     vdW  Elec       q    Type
REMARK                         _______ _______ _______ _____ _____    ______ ____
ROOT
ATOM      1  N   UNL     1      34.508 -17.564 -25.715  0.00  0.00    -0.248 NA
ATOM      2  N   UNL     1      35.442 -19.330 -24.368  0.00  0.00    -0.214 NA
ATOM      3  C   UNL     1      34.253 -14.505 -23.728  0.00  0.00    +0.173 C 
ATOM      4  C   UNL     1      34.758 -14.916 -22.505  0.00  0.00    +0.169 C 
ATOM      5  C   UNL     1      34.171 -15.394 -24.799  0.00  0.00    +0.055 C 
ATOM      6  C   UNL     1      35.102 -17.127 -23.434  0.00  0.00    +0.141 C 
ATOM      7  C   UNL     1      34.592 -16.716 -24.675  0.00  0.00    +0.072 C 
ATOM      8  C   UNL     1      35.184 -16.231 -22.353  0.00  0.00    +0.029 C 
ATOM      9  C   UNL     1      35.511 -18.455 -23.347  0.00  0.00    +0.213 C 
ATOM     10  C   UNL     1      34.938 -18.825 -25.505  0.00  0.00    +0.253 C 
ENDROOT
BRANCH   4  11
ATOM     11  O   UNL     1      34.840 -14.055 -21.453  0.00  0.00    -0.469 OA
ATOM     12  C   UNL     1      33.665 -13.879 -20.664  0.00  0.00    +0.253 C 
ENDBRANCH   4  11
BRANCH   3  13
ATOM     13  O   UNL     1      33.825 -13.214 -23.901  0.00  0.00    -0.472 OA
BRANCH  13  14
ATOM     14  C   UNL     1      34.272 -12.541 -25.070  0.00  0.00    +0.203 C 
BRANCH  14  15
ATOM     15  C   UNL     1      34.352 -11.049 -24.778  0.00  0.00    +0.025 C 
BRANCH  15  16
ATOM     16  C   UNL     1      33.357 -10.636 -23.698  0.00  0.00    -0.074 C 
BRANCH  16  17
ATOM     17  N   UNL     1      33.322  -9.186 -23.571  0.00  0.00    +0.387 N 
ATOM     18  C   UNL     1      32.929  -8.752 -22.231  0.00  0.00    -0.077 C 
ATOM     19  C   UNL     1      34.631  -8.574 -23.800  0.00  0.00    -0.077 C 
ATOM     20  C   UNL     1      33.334  -7.286 -22.214  0.00  0.00    -0.025 C 
ATOM     21  C   UNL     1      34.450  -7.167 -23.248  0.00  0.00    -0.025 C 
ATOM     22  H   UNL     1      32.644  -8.893 -24.273  0.00  0.00    -0.080 HD
ENDBRANCH  16  17
ENDBRANCH  15  16
ENDBRANCH  14  15
ENDBRANCH  13  14
ENDBRANCH   3  13
BRANCH   9  23
ATOM     23  O   UNL     1      36.024 -18.949 -22.176  0.00  0.00    -0.437 OA
BRANCH  23  31
ATOM     24  F   UNL     1      37.104 -20.649 -20.308  0.00  0.00    -0.201 F 
ATOM     25  N   UNL     1      32.959 -22.246 -19.046  0.00  0.00    -0.316 N 
ATOM     26  C   UNL     1      34.927 -21.429 -19.706  0.00  0.00    +0.045 C 
ATOM     27  C   UNL     1      33.548 -21.354 -19.914  0.00  0.00    +0.050 C 
ATOM     28  C   UNL     1      33.915 -22.879 -18.298  0.00  0.00    +0.026 C 
ATOM     29  C   UNL     1      35.144 -22.394 -18.683  0.00  0.00    +0.014 C 
ATOM     30  C   UNL     1      35.774 -20.608 -20.477  0.00  0.00    +0.176 C 
ATOM     31  C   UNL     1      35.202 -19.756 -21.415  0.00  0.00    +0.174 C 
ATOM     32  C   UNL     1      32.971 -20.497 -20.858  0.00  0.00    +0.018 C 
ATOM     33  C   UNL     1      33.831 -19.693 -21.611  0.00  0.00    +0.041 C 
ATOM     34  C   UNL     1      33.552 -23.888 -17.286  0.00  0.00    +0.047 C 
ATOM     35  H   UNL     1      31.990 -22.404 -18.972  0.00  0.00    +0.152 HD
ENDBRANCH  23  31
ENDBRANCH   9  23
TORSDOF 8
ENDMDL
MODEL 3
REMARK VINA RESULT:     -10.7      2.296      3.588
REMARK  Name = 9933475
REMARK  8 active torsions:
REMARK  status: ('A' for Active; 'I' for Inactive)
REMARK    1  A    between atoms: C_3  and  O_13
REMARK    2  A    between atoms: C_4  and  O_11
REMARK    3  A    between atoms: C_9  and  O_23
REMARK    4  A    between atoms: O_13  and  C_14
REMARK    5  A    between atoms: C_14  and  C_15
REMARK    6  A    between atoms: C_15  and  C_16
REMARK    7  A    between atoms: C_16  and  N_17
REMARK    8  A    between atoms: O_23  and  C_31
REMARK                            x       y       z     vdW  Elec       q    Type
REMARK                         _______ _______ _______ _____ _____    ______ ____
ROOT
ATOM      1  N   UNL     1      32.720 -21.428 -20.355  0.00  0.00    -0.248 NA
ATOM      2  N   UNL     1      33.669 -19.823 -21.881  0.00  0.00    -0.214 NA
ATOM      3  C   UNL     1      35.306 -22.630 -18.067  0.00  0.00    +0.173 C 
ATOM      4  C   UNL     1      36.418 -21.924 -18.497  0.00  0.00    +0.169 C 
ATOM      5  C   UNL     1      34.071 -22.462 -18.692  0.00  0.00    +0.055 C 
ATOM      6  C   UNL     1      35.045 -20.870 -20.193  0.00  0.00    +0.141 C 
ATOM      7  C   UNL     1      33.916 -21.583 -19.761  0.00  0.00    +0.072 C 
ATOM      8  C   UNL     1      36.292 -21.040 -19.564  0.00  0.00    +0.029 C 
ATOM      9  C   UNL     1      34.852 -20.002 -21.264  0.00  0.00    +0.213 C 
ATOM     10  C   UNL     1      32.661 -20.557 -21.383  0.00  0.00    +0.253 C 
ENDROOT
BRANCH   4  11
ATOM     11  O   UNL     1      37.628 -22.083 -17.894  0.00  0.00    -0.469 OA
ATOM     12  C   UNL     1      38.011 -21.098 -16.935  0.00  0.00    +0.253 C 
ENDBRANCH   4  11
BRANCH   3  13
ATOM     13  O   UNL     1      35.407 -23.509 -17.019  0.00  0.00    -0.472 OA
BRANCH  13  14
ATOM     14  C   UNL     1      35.019 -23.028 -15.740  0.00  0.00    +0.203 C 
BRANCH  14  15
ATOM     15  C   UNL     1      33.841 -23.854 -15.241  0.00  0.00    +0.025 C 
BRANCH  15  16
ATOM     16  C   UNL     1      32.526 -23.092 -15.378  0.00  0.00    -0.074 C 
BRANCH  16  17
ATOM     17  N   UNL     1      31.443 -24.009 -15.698  0.00  0.00    +0.387 N 
ATOM     18  C   UNL     1      31.222 -25.002 -14.647  0.00  0.00    -0.077 C 
ATOM     19  C   UNL     1      30.159 -23.325 -15.851  0.00  0.00    -0.077 C 
ATOM     20  C   UNL     1      29.853 -25.567 -14.994  0.00  0.00    -0.025 C 
ATOM     21  C   UNL     1      29.155 -24.467 -15.788  0.00  0.00    -0.025 C 
ATOM     22  H   UNL     1      31.739 -24.447 -16.570  0.00  0.00    -0.080 HD
ENDBRANCH  16  17
ENDBRANCH  15  16
ENDBRANCH  14  15
ENDBRANCH  13  14
ENDBRANCH   3  13
BRANCH   9  23
ATOM     23  O   UNL     1      35.895 -19.261 -21.755  0.00  0.00    -0.437 OA
BRANCH  23  31
ATOM     24  F   UNL     1      35.486 -16.751 -20.718  0.00  0.00    -0.201 F 
ATOM     25  N   UNL     1      34.647 -14.931 -24.879  0.00  0.00    -0.316 N 
ATOM     26  C   UNL     1      35.063 -15.878 -22.902  0.00  0.00    +0.045 C 
ATOM     27  C   UNL     1      34.964 -16.126 -24.273  0.00  0.00    +0.050 C 
ATOM     28  C   UNL     1      34.543 -13.940 -23.941  0.00  0.00    +0.026 C 
ATOM     29  C   UNL     1      34.796 -14.494 -22.708  0.00  0.00    +0.014 C 
ATOM     30  C   UNL     1      35.382 -16.947 -22.041  0.00  0.00    +0.176 C 
ATOM     31  C   UNL     1      35.585 -18.208 -22.592  0.00  0.00    +0.174 C 
ATOM     32  C   UNL     1      35.168 -17.394 -24.828  0.00  0.00    +0.018 C 
ATOM     33  C   UNL     1      35.483 -18.439 -23.954  0.00  0.00    +0.041 C 
ATOM     34  C   UNL     1      34.212 -12.555 -24.325  0.00  0.00    +0.047 C 
ATOM     35  H   UNL     1      34.516 -14.808 -25.847  0.00  0.00    +0.152 HD
ENDBRANCH  23  31
ENDBRANCH   9  23
TORSDOF 8
ENDMDL
MODEL 4
REMARK VINA RESULT:     -10.3      6.719     10.121
REMARK  Name = 9933475
REMARK  8 active torsions:
REMARK  status: ('A' for Active; 'I' for Inactive)
REMARK    1  A    between atoms: C_3  and  O_13
REMARK    2  A    between atoms: C_4  and  O_11
REMARK    3  A    between atoms: C_9  and  O_23
REMARK    4  A    between atoms: O_13  and  C_14
REMARK    5  A    between atoms: C_14  and  C_15
REMARK    6  A    between atoms: C_15  and  C_16
REMARK    7  A    between atoms: C_16  and  N_17
REMARK    8  A    between atoms: O_23  and  C_31
REMARK                            x       y       z     vdW  Elec       q    Type
REMARK                         _______ _______ _______ _____ _____    ______ ____
ROOT
ATOM      1  N   UNL     1      32.259 -12.787 -19.606  0.00  0.00    -0.248 NA
ATOM      2  N   UNL     1      31.121 -10.840 -20.451  0.00  0.00    -0.214 NA
ATOM      3  C   UNL     1      34.142 -14.382 -22.304  0.00  0.00    +0.173 C 
ATOM      4  C   UNL     1      33.858 -13.553 -23.378  0.00  0.00    +0.169 C 
ATOM      5  C   UNL     1      33.605 -14.122 -21.044  0.00  0.00    +0.055 C 
ATOM      6  C   UNL     1      32.487 -12.192 -21.917  0.00  0.00    +0.141 C 
ATOM      7  C   UNL     1      32.771 -13.028 -20.825  0.00  0.00    +0.072 C 
ATOM      8  C   UNL     1      33.028 -12.453 -23.188  0.00  0.00    +0.029 C 
ATOM      9  C   UNL     1      31.650 -11.110 -21.660  0.00  0.00    +0.213 C 
ATOM     10  C   UNL     1      31.462 -11.707 -19.485  0.00  0.00    +0.253 C 
ENDROOT
BRANCH   4  11
ATOM     11  O   UNL     1      34.378 -13.799 -24.613  0.00  0.00    -0.469 OA
ATOM     12  C   UNL     1      33.535 -14.468 -25.550  0.00  0.00    +0.253 C 
ENDBRANCH   4  11
BRANCH   3  13
ATOM     13  O   UNL     1      34.956 -15.473 -22.468  0.00  0.00    -0.472 OA
BRANCH  13  14
ATOM     14  C   UNL     1      34.992 -16.412 -21.403  0.00  0.00    +0.203 C 
BRANCH  14  15
ATOM     15  C   UNL     1      35.972 -17.522 -21.759  0.00  0.00    +0.025 C 
BRANCH  15  16
ATOM     16  C   UNL     1      35.247 -18.815 -22.118  0.00  0.00    -0.074 C 
BRANCH  16  17
ATOM     17  N   UNL     1      34.995 -19.602 -20.920  0.00  0.00    +0.387 N 
ATOM     18  C   UNL     1      33.754 -20.370 -21.006  0.00  0.00    -0.077 C 
ATOM     19  C   UNL     1      36.041 -20.597 -20.676  0.00  0.00    -0.077 C 
ATOM     20  C   UNL     1      33.895 -21.376 -19.874  0.00  0.00    -0.025 C 
ATOM     21  C   UNL     1      35.398 -21.522 -19.654  0.00  0.00    -0.025 C 
ATOM     22  H   UNL     1      34.956 -18.910 -20.173  0.00  0.00    -0.080 HD
ENDBRANCH  16  17
ENDBRANCH  15  16
ENDBRANCH  14  15
ENDBRANCH  13  14
ENDBRANCH   3  13
BRANCH   9  23
ATOM     23  O   UNL     1      31.316 -10.236 -22.662  0.00  0.00    -0.437 OA
BRANCH  23  31
ATOM     24  F   UNL     1      30.123  -8.255 -24.144  0.00  0.00    -0.201 F 
ATOM     25  N   UNL     1      32.760  -4.962 -22.268  0.00  0.00    -0.316 N 
ATOM     26  C   UNL     1      31.522  -6.604 -23.131  0.00  0.00    +0.045 C 
ATOM     27  C   UNL     1      32.543  -6.320 -22.222  0.00  0.00    +0.050 C 
ATOM     28  C   UNL     1      31.913  -4.378 -23.171  0.00  0.00    +0.026 C 
ATOM     29  C   UNL     1      31.133  -5.370 -23.721  0.00  0.00    +0.014 C 
ATOM     30  C   UNL     1      31.101  -7.940 -23.282  0.00  0.00    +0.176 C 
ATOM     31  C   UNL     1      31.721  -8.924 -22.519  0.00  0.00    +0.174 C 
ATOM     32  C   UNL     1      33.168  -7.309 -21.454  0.00  0.00    +0.018 C 
ATOM     33  C   UNL     1      32.734  -8.627 -21.621  0.00  0.00    +0.041 C 
ATOM     34  C   UNL     1      31.936  -2.924 -23.414  0.00  0.00    +0.047 C 
ATOM     35  H   UNL     1      33.426  -4.479 -21.727  0.00  0.00    +0.152 HD
ENDBRANCH  23  31
ENDBRANCH   9  23
TORSDOF 8
ENDMDL
MODEL 5
REMARK VINA RESULT:     -10.3      5.168      9.077
REMARK  Name = 9933475
REMARK  8 active torsions:
REMARK  status: ('A' for Active; 'I' for Inactive)
REMARK    1  A    between atoms: C_3  and  O_13
REMARK    2  A    between atoms: C_4  and  O_11
REMARK    3  A    between atoms: C_9  and  O_23
REMARK    4  A    between atoms: O_13  and  C_14
REMARK    5  A    between atoms: C_14  and  C_15
REMARK    6  A    between atoms: C_15  and  C_16
REMARK    7  A    between atoms: C_16  and  N_17
REMARK    8  A    between atoms: O_23  and  C_31
REMARK                            x       y       z     vdW  Elec       q    Type
REMARK                         _______ _______ _______ _____ _____    ______ ____
ROOT
ATOM      1  N   UNL     1      33.596 -13.969 -26.911  0.00  0.00    -0.248 NA
ATOM      2  N   UNL     1      33.894 -11.746 -26.030  0.00  0.00    -0.214 NA
ATOM      3  C   UNL     1      34.513 -16.433 -24.370  0.00  0.00    +0.173 C 
ATOM      4  C   UNL     1      34.885 -15.623 -23.308  0.00  0.00    +0.169 C 
ATOM      5  C   UNL     1      34.083 -15.875 -25.573  0.00  0.00    +0.055 C 
ATOM      6  C   UNL     1      34.390 -13.679 -24.667  0.00  0.00    +0.141 C 
ATOM      7  C   UNL     1      34.013 -14.495 -25.746  0.00  0.00    +0.072 C 
ATOM      8  C   UNL     1      34.825 -14.241 -23.453  0.00  0.00    +0.029 C 
ATOM      9  C   UNL     1      34.307 -12.306 -24.877  0.00  0.00    +0.213 C 
ATOM     10  C   UNL     1      33.559 -12.623 -26.990  0.00  0.00    +0.253 C 
ENDROOT
BRANCH   4  11
ATOM     11  O   UNL     1      35.307 -16.159 -22.129  0.00  0.00    -0.469 OA
ATOM     12  C   UNL     1      34.825 -15.553 -20.931  0.00  0.00    +0.253 C 
ENDBRANCH   4  11
BRANCH   3  13
ATOM     13  O   UNL     1      34.566 -17.798 -24.250  0.00  0.00    -0.472 OA
BRANCH  13  14
ATOM     14  C   UNL     1      35.800 -18.357 -23.825  0.00  0.00    +0.203 C 
BRANCH  14  15
ATOM     15  C   UNL     1      35.515 -19.545 -22.916  0.00  0.00    +0.025 C 
BRANCH  15  16
ATOM     16  C   UNL     1      36.192 -19.386 -21.558  0.00  0.00    -0.074 C 
BRANCH  16  17
ATOM     17  N   UNL     1      35.434 -20.085 -20.530  0.00  0.00    +0.387 N 
ATOM     18  C   UNL     1      34.043 -20.312 -20.919  0.00  0.00    -0.077 C 
ATOM     19  C   UNL     1      35.972 -21.416 -20.248  0.00  0.00    -0.077 C 
ATOM     20  C   UNL     1      33.576 -21.358 -19.919  0.00  0.00    -0.025 C 
ATOM     21  C   UNL     1      34.844 -22.082 -19.474  0.00  0.00    -0.025 C 
ATOM     22  H   UNL     1      35.501 -19.474 -19.716  0.00  0.00    -0.080 HD
ENDBRANCH  16  17
ENDBRANCH  15  16
ENDBRANCH  14  15
ENDBRANCH  13  14
ENDBRANCH   3  13
BRANCH   9  23
ATOM     23  O   UNL     1      34.653 -11.429 -23.883  0.00  0.00    -0.437 OA
BRANCH  23  31
ATOM     24  F   UNL     1      35.346  -8.816 -24.373  0.00  0.00    -0.201 F 
ATOM     25  N   UNL     1      31.294  -7.224 -22.833  0.00  0.00    -0.316 N 
ATOM     26  C   UNL     1      33.228  -8.064 -23.561  0.00  0.00    +0.045 C 
ATOM     27  C   UNL     1      31.983  -8.401 -23.024  0.00  0.00    +0.050 C 
ATOM     28  C   UNL     1      32.057  -6.160 -23.229  0.00  0.00    +0.026 C 
ATOM     29  C   UNL     1      33.260  -6.647 -23.686  0.00  0.00    +0.014 C 
ATOM     30  C   UNL     1      34.140  -9.097 -23.856  0.00  0.00    +0.176 C 
ATOM     31  C   UNL     1      33.764 -10.411 -23.599  0.00  0.00    +0.174 C 
ATOM     32  C   UNL     1      31.605  -9.722 -22.765  0.00  0.00    +0.018 C 
ATOM     33  C   UNL     1      32.526 -10.730 -23.065  0.00  0.00    +0.041 C 
ATOM     34  C   UNL     1      31.553  -4.777 -23.131  0.00  0.00    +0.047 C 
ATOM     35  H   UNL     1      30.383  -7.159 -22.465  0.00  0.00    +0.152 HD
ENDBRANCH  23  31
ENDBRANCH   9  23
TORSDOF 8
ENDMDL
MODEL 6
REMARK VINA RESULT:     -10.1      3.645      6.318
REMARK  Name = 9933475
REMARK  8 active torsions:
REMARK  status: ('A' for Active; 'I' for Inactive)
REMARK    1  A    between atoms: C_3  and  O_13
REMARK    2  A    between atoms: C_4  and  O_11
REMARK    3  A    between atoms: C_9  and  O_23
REMARK    4  A    between atoms: O_13  and  C_14
REMARK    5  A    between atoms: C_14  and  C_15
REMARK    6  A    between atoms: C_15  and  C_16
REMARK    7  A    between atoms: C_16  and  N_17
REMARK    8  A    between atoms: O_23  and  C_31
REMARK                            x       y       z     vdW  Elec       q    Type
REMARK                         _______ _______ _______ _____ _____    ______ ____
ROOT
ATOM      1  N   UNL     1      33.774 -17.269 -25.901  0.00  0.00    -0.248 NA
ATOM      2  N   UNL     1      34.126 -14.890 -25.764  0.00  0.00    -0.214 NA
ATOM      3  C   UNL     1      35.152 -18.891 -22.928  0.00  0.00    +0.173 C 
ATOM      4  C   UNL     1      35.653 -17.810 -22.219  0.00  0.00    +0.169 C 
ATOM      5  C   UNL     1      34.525 -18.706 -24.159  0.00  0.00    +0.055 C 
ATOM      6  C   UNL     1      34.890 -16.344 -23.991  0.00  0.00    +0.141 C 
ATOM      7  C   UNL     1      34.381 -17.436 -24.713  0.00  0.00    +0.072 C 
ATOM      8  C   UNL     1      35.524 -16.531 -22.750  0.00  0.00    +0.029 C 
ATOM      9  C   UNL     1      34.729 -15.092 -24.577  0.00  0.00    +0.213 C 
ATOM     10  C   UNL     1      33.679 -16.006 -26.362  0.00  0.00    +0.253 C 
ENDROOT
BRANCH   4  11
ATOM     11  O   UNL     1      36.268 -17.982 -21.017  0.00  0.00    -0.469 OA
ATOM     12  C   UNL     1      37.519 -18.668 -21.019  0.00  0.00    +0.253 C 
ENDBRANCH   4  11
BRANCH   3  13
ATOM     13  O   UNL     1      35.270 -20.162 -22.426  0.00  0.00    -0.472 OA
BRANCH  13  14
ATOM     14  C   UNL     1      34.355 -20.535 -21.406  0.00  0.00    +0.203 C 
BRANCH  14  15
ATOM     15  C   UNL     1      35.119 -21.245 -20.296  0.00  0.00    +0.025 C 
BRANCH  15  16
ATOM     16  C   UNL     1      34.339 -22.440 -19.755  0.00  0.00    -0.074 C 
BRANCH  16  17
ATOM     17  N   UNL     1      34.315 -22.411 -18.301  0.00  0.00    +0.387 N 
ATOM     18  C   UNL     1      33.570 -23.534 -17.732  0.00  0.00    -0.077 C 
ATOM     19  C   UNL     1      35.653 -22.509 -17.718  0.00  0.00    -0.077 C 
ATOM     20  C   UNL     1      33.999 -23.524 -16.273  0.00  0.00    -0.025 C 
ATOM     21  C   UNL     1      35.367 -22.847 -16.262  0.00  0.00    -0.025 C 
ATOM     22  H   UNL     1      33.874 -21.519 -18.079  0.00  0.00    -0.080 HD
ENDBRANCH  16  17
ENDBRANCH  15  16
ENDBRANCH  14  15
ENDBRANCH  13  14
ENDBRANCH   3  13
BRANCH   9  23
ATOM     23  O   UNL     1      35.191 -13.966 -23.947  0.00  0.00    -0.437 OA
BRANCH  23  31
ATOM     24  F   UNL     1      35.109 -11.436 -25.015  0.00  0.00    -0.201 F 
ATOM     25  N   UNL     1      31.555 -10.189 -22.344  0.00  0.00    -0.316 N 
ATOM     26  C   UNL     1      33.270 -10.860 -23.602  0.00  0.00    +0.045 C 
ATOM     27  C   UNL     1      32.376 -11.262 -22.607  0.00  0.00    +0.050 C 
ATOM     28  C   UNL     1      31.898  -9.126 -23.135  0.00  0.00    +0.026 C 
ATOM     29  C   UNL     1      32.956  -9.511 -23.926  0.00  0.00    +0.014 C 
ATOM     30  C   UNL     1      34.232 -11.782 -24.061  0.00  0.00    +0.176 C 
ATOM     31  C   UNL     1      34.251 -13.057 -23.504  0.00  0.00    +0.174 C 
ATOM     32  C   UNL     1      32.395 -12.544 -22.046  0.00  0.00    +0.018 C 
ATOM     33  C   UNL     1      33.357 -13.441 -22.517  0.00  0.00    +0.041 C 
ATOM     34  C   UNL     1      31.173  -7.845 -23.054  0.00  0.00    +0.047 C 
ATOM     35  H   UNL     1      30.825 -10.186 -21.683  0.00  0.00    +0.152 HD
ENDBRANCH  23  31
ENDBRANCH   9  23
TORSDOF 8
ENDMDL
MODEL 7
REMARK VINA RESULT:      -9.8      7.023     11.033
REMARK  Name = 9933475
REMARK  8 active torsions:
REMARK  status: ('A' for Active; 'I' for Inactive)
REMARK    1  A    between atoms: C_3  and  O_13
REMARK    2  A    between atoms: C_4  and  O_11
REMARK    3  A    between atoms: C_9  and  O_23
REMARK    4  A    between atoms: O_13  and  C_14
REMARK    5  A    between atoms: C_14  and  C_15
REMARK    6  A    between atoms: C_15  and  C_16
REMARK    7  A    between atoms: C_16  and  N_17
REMARK    8  A    between atoms: O_23  and  C_31
REMARK                            x       y       z     vdW  Elec       q    Type
REMARK                         _______ _______ _______ _____ _____    ______ ____
ROOT
ATOM      1  N   UNL     1      32.005 -12.532 -19.619  0.00  0.00    -0.248 NA
ATOM      2  N   UNL     1      30.953 -10.591 -20.583  0.00  0.00    -0.214 NA
ATOM      3  C   UNL     1      34.091 -14.178 -22.131  0.00  0.00    +0.173 C 
ATOM      4  C   UNL     1      33.902 -13.364 -23.237  0.00  0.00    +0.169 C 
ATOM      5  C   UNL     1      33.454 -13.896 -20.923  0.00  0.00    +0.055 C 
ATOM      6  C   UNL     1      32.425 -11.973 -21.912  0.00  0.00    +0.141 C 
ATOM      7  C   UNL     1      32.613 -12.794 -20.789  0.00  0.00    +0.072 C 
ATOM      8  C   UNL     1      33.066 -12.256 -23.131  0.00  0.00    +0.029 C 
ATOM      9  C   UNL     1      31.578 -10.882 -21.740  0.00  0.00    +0.213 C 
ATOM     10  C   UNL     1      31.208 -11.445 -19.579  0.00  0.00    +0.253 C 
ENDROOT
BRANCH   4  11
ATOM     11  O   UNL     1      34.518 -13.631 -24.421  0.00  0.00    -0.469 OA
ATOM     12  C   UNL     1      33.687 -13.747 -25.575  0.00  0.00    +0.253 C 
ENDBRANCH   4  11
BRANCH   3  13
ATOM     13  O   UNL     1      34.908 -15.276 -22.212  0.00  0.00    -0.472 OA
BRANCH  13  14
ATOM     14  C   UNL     1      34.995 -16.098 -21.057  0.00  0.00    +0.203 C 
BRANCH  14  15
ATOM     15  C   UNL     1      35.432 -17.494 -21.478  0.00  0.00    +0.025 C 
BRANCH  15  16
ATOM     16  C   UNL     1      36.457 -17.443 -22.607  0.00  0.00    -0.074 C 
BRANCH  16  17
ATOM     17  N   UNL     1      35.900 -18.018 -23.822  0.00  0.00    +0.387 N 
ATOM     18  C   UNL     1      34.946 -19.091 -23.546  0.00  0.00    -0.077 C 
ATOM     19  C   UNL     1      35.152 -17.038 -24.610  0.00  0.00    -0.077 C 
ATOM     20  C   UNL     1      34.226 -19.258 -24.875  0.00  0.00    -0.025 C 
ATOM     21  C   UNL     1      34.364 -17.910 -25.578  0.00  0.00    -0.025 C 
ATOM     22  H   UNL     1      36.715 -18.362 -24.329  0.00  0.00    -0.080 HD
ENDBRANCH  16  17
ENDBRANCH  15  16
ENDBRANCH  14  15
ENDBRANCH  13  14
ENDBRANCH   3  13
BRANCH   9  23
ATOM     23  O   UNL     1      31.333 -10.022 -22.779  0.00  0.00    -0.437 OA
BRANCH  23  31
ATOM     24  F   UNL     1      30.208  -8.058 -24.336  0.00  0.00    -0.201 F 
ATOM     25  N   UNL     1      32.670  -4.726 -22.296  0.00  0.00    -0.316 N 
ATOM     26  C   UNL     1      31.515  -6.387 -23.236  0.00  0.00    +0.045 C 
ATOM     27  C   UNL     1      32.471  -6.088 -22.263  0.00  0.00    +0.050 C 
ATOM     28  C   UNL     1      31.874  -4.156 -23.252  0.00  0.00    +0.026 C 
ATOM     29  C   UNL     1      31.146  -5.158 -23.851  0.00  0.00    +0.014 C 
ATOM     30  C   UNL     1      31.124  -7.729 -23.413  0.00  0.00    +0.176 C 
ATOM     31  C   UNL     1      31.708  -8.704 -22.611  0.00  0.00    +0.174 C 
ATOM     32  C   UNL     1      33.060  -7.068 -21.456  0.00  0.00    +0.018 C 
ATOM     33  C   UNL     1      32.657  -8.392 -21.650  0.00  0.00    +0.041 C 
ATOM     34  C   UNL     1      31.891  -2.701 -23.494  0.00  0.00    +0.047 C 
ATOM     35  H   UNL     1      33.294  -4.234 -21.714  0.00  0.00    +0.152 HD
ENDBRANCH  23  31
ENDBRANCH   9  23
TORSDOF 8
ENDMDL
MODEL 8
REMARK VINA RESULT:      -9.7      5.483      9.029
REMARK  Name = 9933475
REMARK  8 active torsions:
REMARK  status: ('A' for Active; 'I' for Inactive)
REMARK    1  A    between atoms: C_3  and  O_13
REMARK    2  A    between atoms: C_4  and  O_11
REMARK    3  A    between atoms: C_9  and  O_23
REMARK    4  A    between atoms: O_13  and  C_14
REMARK    5  A    between atoms: C_14  and  C_15
REMARK    6  A    between atoms: C_15  and  C_16
REMARK    7  A    between atoms: C_16  and  N_17
REMARK    8  A    between atoms: O_23  and  C_31
REMARK                            x       y       z     vdW  Elec       q    Type
REMARK                         _______ _______ _______ _____ _____    ______ ____
ROOT
ATOM      1  N   UNL     1      33.387 -13.907 -20.229  0.00  0.00    -0.248 NA
ATOM      2  N   UNL     1      32.316 -12.018 -21.274  0.00  0.00    -0.214 NA
ATOM      3  C   UNL     1      35.082 -15.920 -22.768  0.00  0.00    +0.173 C 
ATOM      4  C   UNL     1      34.799 -15.215 -23.927  0.00  0.00    +0.169 C 
ATOM      5  C   UNL     1      34.607 -15.479 -21.533  0.00  0.00    +0.055 C 
ATOM      6  C   UNL     1      33.555 -13.612 -22.603  0.00  0.00    +0.141 C 
ATOM      7  C   UNL     1      33.838 -14.323 -21.425  0.00  0.00    +0.072 C 
ATOM      8  C   UNL     1      34.033 -14.056 -23.848  0.00  0.00    +0.029 C 
ATOM      9  C   UNL     1      32.784 -12.462 -22.456  0.00  0.00    +0.213 C 
ATOM     10  C   UNL     1      32.650 -12.777 -20.218  0.00  0.00    +0.253 C 
ENDROOT
BRANCH   4  11
ATOM     11  O   UNL     1      35.258 -15.639 -25.137  0.00  0.00    -0.469 OA
ATOM     12  C   UNL     1      34.306 -15.733 -26.195  0.00  0.00    +0.253 C 
ENDBRANCH   4  11
BRANCH   3  13
ATOM     13  O   UNL     1      35.833 -17.066 -22.821  0.00  0.00    -0.472 OA
BRANCH  13  14
ATOM     14  C   UNL     1      35.373 -18.096 -23.684  0.00  0.00    +0.203 C 
BRANCH  14  15
ATOM     15  C   UNL     1      35.259 -19.390 -22.889  0.00  0.00    +0.025 C 
BRANCH  15  16
ATOM     16  C   UNL     1      36.054 -19.320 -21.589  0.00  0.00    -0.074 C 
BRANCH  16  17
ATOM     17  N   UNL     1      35.360 -20.041 -20.533  0.00  0.00    +0.387 N 
ATOM     18  C   UNL     1      33.989 -20.389 -20.902  0.00  0.00    -0.077 C 
ATOM     19  C   UNL     1      36.002 -21.316 -20.212  0.00  0.00    -0.077 C 
ATOM     20  C   UNL     1      33.611 -21.435 -19.865  0.00  0.00    -0.025 C 
ATOM     21  C   UNL     1      34.934 -22.042 -19.407  0.00  0.00    -0.025 C 
ATOM     22  H   UNL     1      35.383 -19.400 -19.740  0.00  0.00    -0.080 HD
ENDBRANCH  16  17
ENDBRANCH  15  16
ENDBRANCH  14  15
ENDBRANCH  13  14
ENDBRANCH   3  13
BRANCH   9  23
ATOM     23  O   UNL     1      32.457 -11.701 -23.548  0.00  0.00    -0.437 OA
BRANCH  23  31
ATOM     24  F   UNL     1      30.620  -9.755 -22.930  0.00  0.00    -0.201 F 
ATOM     25  N   UNL     1      33.719  -6.367 -23.417  0.00  0.00    -0.316 N 
ATOM     26  C   UNL     1      32.276  -8.054 -23.199  0.00  0.00    +0.045 C 
ATOM     27  C   UNL     1      33.602  -7.736 -23.501  0.00  0.00    +0.050 C 
ATOM     28  C   UNL     1      32.517  -5.810 -23.073  0.00  0.00    +0.026 C 
ATOM     29  C   UNL     1      31.604  -6.830 -22.930  0.00  0.00    +0.014 C 
ATOM     30  C   UNL     1      31.884  -9.407 -23.214  0.00  0.00    +0.176 C 
ATOM     31  C   UNL     1      32.834 -10.373 -23.529  0.00  0.00    +0.174 C 
ATOM     32  C   UNL     1      34.559  -8.707 -23.819  0.00  0.00    +0.018 C 
ATOM     33  C   UNL     1      34.146 -10.042 -23.827  0.00  0.00    +0.041 C 
ATOM     34  C   UNL     1      32.366  -4.352 -22.915  0.00  0.00    +0.047 C 
ATOM     35  H   UNL     1      34.548  -5.862 -23.580  0.00  0.00    +0.152 HD
ENDBRANCH  23  31
ENDBRANCH   9  23
TORSDOF 8
ENDMDL
MODEL 9
REMARK VINA RESULT:      -9.7      6.411     10.022
REMARK  Name = 9933475
REMARK  8 active torsions:
REMARK  status: ('A' for Active; 'I' for Inactive)
REMARK    1  A    between atoms: C_3  and  O_13
REMARK    2  A    between atoms: C_4  and  O_11
REMARK    3  A    between atoms: C_9  and  O_23
REMARK    4  A    between atoms: O_13  and  C_14
REMARK    5  A    between atoms: C_14  and  C_15
REMARK    6  A    between atoms: C_15  and  C_16
REMARK    7  A    between atoms: C_16  and  N_17
REMARK    8  A    between atoms: O_23  and  C_31
REMARK                            x       y       z     vdW  Elec       q    Type
REMARK                         _______ _______ _______ _____ _____    ______ ____
ROOT
ATOM      1  N   UNL     1      34.599 -12.201 -24.914  0.00  0.00    -0.248 NA
ATOM      2  N   UNL     1      33.230 -10.347 -24.212  0.00  0.00    -0.214 NA
ATOM      3  C   UNL     1      34.451 -14.859 -22.407  0.00  0.00    +0.173 C 
ATOM      4  C   UNL     1      33.601 -14.310 -21.460  0.00  0.00    +0.169 C 
ATOM      5  C   UNL     1      34.782 -14.150 -23.561  0.00  0.00    +0.055 C 
ATOM      6  C   UNL     1      33.412 -12.324 -22.835  0.00  0.00    +0.141 C 
ATOM      7  C   UNL     1      34.273 -12.875 -23.798  0.00  0.00    +0.072 C 
ATOM      8  C   UNL     1      33.078 -13.038 -21.670  0.00  0.00    +0.029 C 
ATOM      9  C   UNL     1      32.924 -11.049 -23.105  0.00  0.00    +0.213 C 
ATOM     10  C   UNL     1      34.060 -10.974 -25.061  0.00  0.00    +0.253 C 
ENDROOT
BRANCH   4  11
ATOM     11  O   UNL     1      33.273 -14.995 -20.329  0.00  0.00    -0.469 OA
ATOM     12  C   UNL     1      32.212 -14.467 -19.535  0.00  0.00    +0.253 C 
ENDBRANCH   4  11
BRANCH   3  13
ATOM     13  O   UNL     1      34.979 -16.110 -22.221  0.00  0.00    -0.472 OA
BRANCH  13  14
ATOM     14  C   UNL     1      35.504 -16.763 -23.368  0.00  0.00    +0.203 C 
BRANCH  14  15
ATOM     15  C   UNL     1      35.531 -18.263 -23.112  0.00  0.00    +0.025 C 
BRANCH  15  16
ATOM     16  C   UNL     1      36.426 -18.612 -21.927  0.00  0.00    -0.074 C 
BRANCH  16  17
ATOM     17  N   UNL     1      35.678 -19.370 -20.935  0.00  0.00    +0.387 N 
ATOM     18  C   UNL     1      34.403 -19.863 -21.453  0.00  0.00    -0.077 C 
ATOM     19  C   UNL     1      36.394 -20.565 -20.488  0.00  0.00    -0.077 C 
ATOM     20  C   UNL     1      34.001 -20.913 -20.428  0.00  0.00    -0.025 C 
ATOM     21  C   UNL     1      35.309 -21.372 -19.790  0.00  0.00    -0.025 C 
ATOM     22  H   UNL     1      35.541 -18.708 -20.171  0.00  0.00    -0.080 HD
ENDBRANCH  16  17
ENDBRANCH  15  16
ENDBRANCH  14  15
ENDBRANCH  13  14
ENDBRANCH   3  13
BRANCH   9  23
ATOM     23  O   UNL     1      32.076 -10.428 -22.224  0.00  0.00    -0.437 OA
BRANCH  23  31
ATOM     24  F   UNL     1      30.774  -8.800 -24.012  0.00  0.00    -0.201 F 
ATOM     25  N   UNL     1      32.327  -4.957 -21.977  0.00  0.00    -0.316 N 
ATOM     26  C   UNL     1      31.615  -6.855 -22.908  0.00  0.00    +0.045 C 
ATOM     27  C   UNL     1      32.387  -6.328 -21.871  0.00  0.00    +0.050 C 
ATOM     28  C   UNL     1      31.545  -4.599 -23.041  0.00  0.00    +0.026 C 
ATOM     29  C   UNL     1      31.088  -5.752 -23.638  0.00  0.00    +0.014 C 
ATOM     30  C   UNL     1      31.506  -8.254 -23.030  0.00  0.00    +0.176 C 
ATOM     31  C   UNL     1      32.175  -9.056 -22.111  0.00  0.00    +0.174 C 
ATOM     32  C   UNL     1      33.061  -7.134 -20.946  0.00  0.00    +0.018 C 
ATOM     33  C   UNL     1      32.939  -8.519 -21.087  0.00  0.00    +0.041 C 
ATOM     34  C   UNL     1      31.312  -3.183 -23.380  0.00  0.00    +0.047 C 
ATOM     35  H   UNL     1      32.780  -4.325 -21.373  0.00  0.00    +0.152 HD
ENDBRANCH  23  31
ENDBRANCH   9  23
TORSDOF 8
ENDMDL
