MODEL 1
REMARK VINA RESULT:     -11.6      0.000      0.000
REMARK  Name = 447371
REMARK  8 active torsions:
REMARK  status: ('A' for Active; 'I' for Inactive)
REMARK    1  A    between atoms: N_3  and  C_14
REMARK    2  A    between atoms: N_4  and  C_18
REMARK    3  A    between atoms: C_11  and  C_26
REMARK    4  A    between atoms: C_14  and  C_15
REMARK    5  A    between atoms: C_15  and  C_16
REMARK    6  A    between atoms: C_18  and  C_20
REMARK    7  A    between atoms: C_26  and  C_27
REMARK    8  A    between atoms: C_32  and  N_34
REMARK                            x       y       z     vdW  Elec       q    Type
REMARK                         _______ _______ _______ _____ _____    ______ ____
ROOT
ATOM      1  O   UNL     1      32.063  -8.179 -21.609  0.00  0.00    -0.246 OA
ATOM      2  O   UNL     1      35.781  -8.888 -24.388  0.00  0.00    -0.265 OA
ATOM      3  N   UNL     1      32.325 -10.275 -22.582  0.00  0.00    -0.269 N 
ATOM      4  N   UNL     1      33.926  -8.505 -22.992  0.00  0.00    -0.243 N 
ATOM      5  N   UNL     1      34.724 -11.659 -24.728  0.00  0.00    -0.313 N 
ATOM      6  N   UNL     1      32.859 -12.380 -23.742  0.00  0.00    -0.304 N 
ATOM      7  C   UNL     1      33.103 -11.074 -23.411  0.00  0.00    +0.132 A 
ATOM      8  C   UNL     1      34.243 -10.605 -24.003  0.00  0.00    +0.133 A 
ATOM      9  C   UNL     1      32.715  -8.936 -22.338  0.00  0.00    +0.335 A 
ATOM     10  C   UNL     1      34.753  -9.282 -23.845  0.00  0.00    +0.280 A 
ATOM     11  C   UNL     1      33.857 -12.703 -24.539  0.00  0.00    +0.149 C 
ATOM     12  H   UNL     1      35.539 -11.666 -25.281  0.00  0.00    +0.148 HD
ATOM     13  H   UNL     1      32.110 -12.948 -23.451  0.00  0.00    +0.150 HD
ENDROOT
BRANCH   3  14
ATOM     14  C   UNL     1      31.117 -10.820 -21.974  0.00  0.00    +0.112 C 
BRANCH  14  15
ATOM     15  C   UNL     1      31.409 -11.585 -20.687  0.00  0.00    +0.025 C 
BRANCH  15  16
ATOM     16  C   UNL     1      31.209 -10.726 -19.436  0.00  0.00    +0.002 C 
ATOM     17  C   UNL     1      31.542 -11.503 -18.172  0.00  0.00    +0.000 C 
ENDBRANCH  15  16
ENDBRANCH  14  15
ENDBRANCH   3  14
BRANCH   4  18
ATOM     18  C   UNL     1      34.345  -7.129 -22.751  0.00  0.00    +0.143 C 
BRANCH  18  20
ATOM     19  F   UNL     1      32.052  -5.491 -22.530  0.00  0.00    -0.204 F 
ATOM     20  C   UNL     1      33.895  -6.205 -23.845  0.00  0.00    +0.028 C 
ATOM     21  C   UNL     1      32.757  -5.427 -23.668  0.00  0.00    +0.138 C 
ATOM     22  C   UNL     1      34.623  -6.137 -25.027  0.00  0.00    -0.000 C 
ATOM     23  C   UNL     1      32.341  -4.570 -24.688  0.00  0.00    +0.029 C 
ATOM     24  C   UNL     1      34.208  -5.280 -26.046  0.00  0.00    -0.000 C 
ATOM     25  C   UNL     1      33.066  -4.496 -25.877  0.00  0.00    +0.002 C 
ENDBRANCH  18  20
ENDBRANCH   4  18
BRANCH  11  26
ATOM     26  C   UNL     1      34.081 -14.011 -25.184  0.00  0.00    +0.067 C 
BRANCH  26  27
ATOM     27  C   UNL     1      34.567 -15.096 -24.233  0.00  0.00    -0.019 C 
ATOM     28  C   UNL     1      34.923 -16.324 -24.751  0.00  0.00    -0.003 C 
ATOM     29  C   UNL     1      34.636 -14.818 -22.884  0.00  0.00    -0.003 C 
ATOM     30  C   UNL     1      35.369 -17.318 -23.880  0.00  0.00    +0.014 C 
ATOM     31  C   UNL     1      35.080 -15.812 -22.013  0.00  0.00    +0.014 C 
ATOM     32  C   UNL     1      35.447 -17.063 -22.511  0.00  0.00    +0.050 C 
BRANCH  32  34
ATOM     33  O   UNL     1      38.006 -18.651 -22.499  0.00  0.00    -0.275 OA
ATOM     34  N   UNL     1      35.892 -18.057 -21.639  0.00  0.00    -0.284 N 
ATOM     35  C   UNL     1      37.098 -18.769 -21.682  0.00  0.00    +0.227 C 
ATOM     36  C   UNL     1      37.200 -19.763 -20.553  0.00  0.00    +0.095 C 
ATOM     37  H   UNL     1      35.282 -18.288 -20.903  0.00  0.00    +0.155 HD
ENDBRANCH  32  34
ENDBRANCH  26  27
ENDBRANCH  11  26
TORSDOF 8
ENDMDL
MODEL 2
REMARK VINA RESULT:     -10.9      1.060      1.450
REMARK  Name = 447371
REMARK  8 active torsions:
REMARK  status: ('A' for Active; 'I' for Inactive)
REMARK    1  A    between atoms: N_3  and  C_14
REMARK    2  A    between atoms: N_4  and  C_18
REMARK    3  A    between atoms: C_11  and  C_26
REMARK    4  A    between atoms: C_14  and  C_15
REMARK    5  A    between atoms: C_15  and  C_16
REMARK    6  A    between atoms: C_18  and  C_20
REMARK    7  A    between atoms: C_26  and  C_27
REMARK    8  A    between atoms: C_32  and  N_34
REMARK                            x       y       z     vdW  Elec       q    Type
REMARK                         _______ _______ _______ _____ _____    ______ ____
ROOT
ATOM      1  O   UNL     1      32.292  -8.480 -21.419  0.00  0.00    -0.246 OA
ATOM      2  O   UNL     1      35.751  -9.027 -24.546  0.00  0.00    -0.265 OA
ATOM      3  N   UNL     1      32.473 -10.525 -22.512  0.00  0.00    -0.269 N 
ATOM      4  N   UNL     1      34.025  -8.725 -22.975  0.00  0.00    -0.243 N 
ATOM      5  N   UNL     1      34.677 -11.786 -24.925  0.00  0.00    -0.313 N 
ATOM      6  N   UNL     1      32.910 -12.568 -23.815  0.00  0.00    -0.304 N 
ATOM      7  C   UNL     1      33.177 -11.277 -23.444  0.00  0.00    +0.132 A 
ATOM      8  C   UNL     1      34.259 -10.772 -24.111  0.00  0.00    +0.133 A 
ATOM      9  C   UNL     1      32.879  -9.196 -22.238  0.00  0.00    +0.335 A 
ATOM     10  C   UNL     1      34.777  -9.454 -23.935  0.00  0.00    +0.280 A 
ATOM     11  C   UNL     1      33.834 -12.845 -24.711  0.00  0.00    +0.149 C 
ATOM     12  H   UNL     1      35.440 -11.760 -25.548  0.00  0.00    +0.148 HD
ATOM     13  H   UNL     1      32.191 -13.155 -23.486  0.00  0.00    +0.150 HD
ENDROOT
BRANCH   3  14
ATOM     14  C   UNL     1      31.326 -11.108 -21.826  0.00  0.00    +0.112 C 
BRANCH  14  15
ATOM     15  C   UNL     1      31.641 -11.485 -20.382  0.00  0.00    +0.025 C 
BRANCH  15  16
ATOM     16  C   UNL     1      31.759 -12.997 -20.183  0.00  0.00    +0.002 C 
ATOM     17  C   UNL     1      33.163 -13.490 -20.498  0.00  0.00    +0.000 C 
ENDBRANCH  15  16
ENDBRANCH  14  15
ENDBRANCH   3  14
BRANCH   4  18
ATOM     18  C   UNL     1      34.460  -7.359 -22.705  0.00  0.00    +0.143 C 
BRANCH  18  20
ATOM     19  F   UNL     1      32.652  -5.503 -21.573  0.00  0.00    -0.204 F 
ATOM     20  C   UNL     1      33.701  -6.356 -23.525  0.00  0.00    +0.028 C 
ATOM     21  C   UNL     1      32.828  -5.472 -22.902  0.00  0.00    +0.138 C 
ATOM     22  C   UNL     1      33.879  -6.323 -24.903  0.00  0.00    -0.000 C 
ATOM     23  C   UNL     1      32.123  -4.542 -23.667  0.00  0.00    +0.029 C 
ATOM     24  C   UNL     1      33.176  -5.393 -25.669  0.00  0.00    -0.000 C 
ATOM     25  C   UNL     1      32.297  -4.502 -25.051  0.00  0.00    +0.002 C 
ENDBRANCH  18  20
ENDBRANCH   4  18
BRANCH  11  26
ATOM     26  C   UNL     1      34.005 -14.118 -25.437  0.00  0.00    +0.067 C 
BRANCH  26  27
ATOM     27  C   UNL     1      34.554 -15.251 -24.580  0.00  0.00    -0.019 C 
ATOM     28  C   UNL     1      34.873 -14.994 -23.262  0.00  0.00    -0.003 C 
ATOM     29  C   UNL     1      34.717 -16.497 -25.148  0.00  0.00    -0.003 C 
ATOM     30  C   UNL     1      35.376 -16.032 -22.478  0.00  0.00    +0.014 C 
ATOM     31  C   UNL     1      35.220 -17.534 -24.363  0.00  0.00    +0.014 C 
ATOM     32  C   UNL     1      35.550 -17.301 -23.028  0.00  0.00    +0.050 C 
BRANCH  32  34
ATOM     33  O   UNL     1      34.166 -19.686 -21.816  0.00  0.00    -0.275 OA
ATOM     34  N   UNL     1      36.054 -18.340 -22.243  0.00  0.00    -0.284 N 
ATOM     35  C   UNL     1      35.360 -19.429 -21.701  0.00  0.00    +0.227 C 
ATOM     36  C   UNL     1      36.271 -20.333 -20.909  0.00  0.00    +0.095 C 
ATOM     37  H   UNL     1      37.017 -18.300 -22.045  0.00  0.00    +0.155 HD
ENDBRANCH  32  34
ENDBRANCH  26  27
ENDBRANCH  11  26
TORSDOF 8
ENDMDL
MODEL 3
REMARK VINA RESULT:     -10.7      3.171     10.029
REMARK  Name = 447371
REMARK  8 active torsions:
REMARK  status: ('A' for Active; 'I' for Inactive)
REMARK    1  A    between atoms: N_3  and  C_14
REMARK    2  A    between atoms: N_4  and  C_18
REMARK    3  A    between atoms: C_11  and  C_26
REMARK    4  A    between atoms: C_14  and  C_15
REMARK    5  A    between atoms: C_15  and  C_16
REMARK    6  A    between atoms: C_18  and  C_20
REMARK    7  A    between atoms: C_26  and  C_27
REMARK    8  A    between atoms: C_32  and  N_34
REMARK                            x       y       z     vdW  Elec       q    Type
REMARK                         _______ _______ _______ _____ _____    ______ ____
ROOT
ATOM      1  O   UNL     1      35.197 -16.321 -25.313  0.00  0.00    -0.246 OA
ATOM      2  O   UNL     1      35.453 -16.426 -20.626  0.00  0.00    -0.265 OA
ATOM      3  N   UNL     1      33.947 -14.773 -24.108  0.00  0.00    -0.269 N 
ATOM      4  N   UNL     1      35.342 -16.396 -22.976  0.00  0.00    -0.243 N 
ATOM      5  N   UNL     1      33.538 -14.138 -20.688  0.00  0.00    -0.313 N 
ATOM      6  N   UNL     1      32.743 -13.265 -22.579  0.00  0.00    -0.304 N 
ATOM      7  C   UNL     1      33.598 -14.301 -22.849  0.00  0.00    +0.132 A 
ATOM      8  C   UNL     1      34.101 -14.855 -21.705  0.00  0.00    +0.133 A 
ATOM      9  C   UNL     1      34.849 -15.859 -24.220  0.00  0.00    +0.335 A 
ATOM     10  C   UNL     1      35.015 -15.949 -21.669  0.00  0.00    +0.280 A 
ATOM     11  C   UNL     1      32.729 -13.193 -21.264  0.00  0.00    +0.149 C 
ATOM     12  H   UNL     1      33.686 -14.273 -19.723  0.00  0.00    +0.148 HD
ATOM     13  H   UNL     1      32.252 -12.703 -23.221  0.00  0.00    +0.150 HD
ENDROOT
BRANCH   3  14
ATOM     14  C   UNL     1      33.385 -14.149 -25.300  0.00  0.00    +0.112 C 
BRANCH  14  15
ATOM     15  C   UNL     1      34.283 -13.052 -25.862  0.00  0.00    +0.025 C 
BRANCH  15  16
ATOM     16  C   UNL     1      33.751 -11.648 -25.565  0.00  0.00    +0.002 C 
ATOM     17  C   UNL     1      34.579 -10.956 -24.493  0.00  0.00    +0.000 C 
ENDBRANCH  15  16
ENDBRANCH  14  15
ENDBRANCH   3  14
BRANCH   4  18
ATOM     18  C   UNL     1      36.275 -17.515 -23.071  0.00  0.00    +0.143 C 
BRANCH  18  20
ATOM     19  F   UNL     1      37.994 -18.719 -21.178  0.00  0.00    -0.204 F 
ATOM     20  C   UNL     1      35.855 -18.669 -22.207  0.00  0.00    +0.028 C 
ATOM     21  C   UNL     1      36.753 -19.212 -21.295  0.00  0.00    +0.138 C 
ATOM     22  C   UNL     1      34.570 -19.184 -22.328  0.00  0.00    -0.000 C 
ATOM     23  C   UNL     1      36.361 -20.285 -20.495  0.00  0.00    +0.029 C 
ATOM     24  C   UNL     1      34.177 -20.256 -21.527  0.00  0.00    -0.000 C 
ATOM     25  C   UNL     1      35.072 -20.807 -20.610  0.00  0.00    +0.002 C 
ENDBRANCH  18  20
ENDBRANCH   4  18
BRANCH  11  26
ATOM     26  C   UNL     1      31.963 -12.237 -20.442  0.00  0.00    +0.067 C 
BRANCH  26  27
ATOM     27  C   UNL     1      31.965 -10.814 -20.983  0.00  0.00    -0.019 C 
ATOM     28  C   UNL     1      32.346  -9.784 -20.147  0.00  0.00    -0.003 C 
ATOM     29  C   UNL     1      31.585 -10.598 -22.291  0.00  0.00    -0.003 C 
ATOM     30  C   UNL     1      32.349  -8.481 -20.644  0.00  0.00    +0.014 C 
ATOM     31  C   UNL     1      31.587  -9.294 -22.787  0.00  0.00    +0.014 C 
ATOM     32  C   UNL     1      31.969  -8.235 -21.963  0.00  0.00    +0.050 C 
BRANCH  32  34
ATOM     33  O   UNL     1      34.172  -6.635 -23.249  0.00  0.00    -0.275 OA
ATOM     34  N   UNL     1      31.971  -6.931 -22.459  0.00  0.00    -0.284 N 
ATOM     35  C   UNL     1      33.031  -6.231 -23.049  0.00  0.00    +0.227 C 
ATOM     36  C   UNL     1      32.623  -4.837 -23.454  0.00  0.00    +0.095 C 
ATOM     37  H   UNL     1      31.120  -6.442 -22.384  0.00  0.00    +0.155 HD
ENDBRANCH  32  34
ENDBRANCH  26  27
ENDBRANCH  11  26
TORSDOF 8
ENDMDL
MODEL 4
REMARK VINA RESULT:      -9.9      3.564      9.811
REMARK  Name = 447371
REMARK  8 active torsions:
REMARK  status: ('A' for Active; 'I' for Inactive)
REMARK    1  A    between atoms: N_3  and  C_14
REMARK    2  A    between atoms: N_4  and  C_18
REMARK    3  A    between atoms: C_11  and  C_26
REMARK    4  A    between atoms: C_14  and  C_15
REMARK    5  A    between atoms: C_15  and  C_16
REMARK    6  A    between atoms: C_18  and  C_20
REMARK    7  A    between atoms: C_26  and  C_27
REMARK    8  A    between atoms: C_32  and  N_34
REMARK                            x       y       z     vdW  Elec       q    Type
REMARK                         _______ _______ _______ _____ _____    ______ ____
ROOT
ATOM      1  O   UNL     1      35.555 -17.504 -20.995  0.00  0.00    -0.246 OA
ATOM      2  O   UNL     1      35.200 -17.524 -25.676  0.00  0.00    -0.265 OA
ATOM      3  N   UNL     1      34.994 -15.515 -22.063  0.00  0.00    -0.269 N 
ATOM      4  N   UNL     1      35.386 -17.541 -23.330  0.00  0.00    -0.243 N 
ATOM      5  N   UNL     1      34.523 -14.628 -25.419  0.00  0.00    -0.313 N 
ATOM      6  N   UNL     1      34.418 -13.571 -23.459  0.00  0.00    -0.304 N 
ATOM      7  C   UNL     1      34.750 -14.887 -23.278  0.00  0.00    +0.132 A 
ATOM      8  C   UNL     1      34.821 -15.560 -24.466  0.00  0.00    +0.133 A 
ATOM      9  C   UNL     1      35.328 -16.892 -22.045  0.00  0.00    +0.335 A 
ATOM     10  C   UNL     1      35.145 -16.944 -24.596  0.00  0.00    +0.280 A 
ATOM     11  C   UNL     1      34.288 -13.447 -24.764  0.00  0.00    +0.149 C 
ATOM     12  H   UNL     1      34.484 -14.776 -26.392  0.00  0.00    +0.148 HD
ATOM     13  H   UNL     1      34.303 -12.876 -22.771  0.00  0.00    +0.150 HD
ENDROOT
BRANCH   3  14
ATOM     14  C   UNL     1      34.906 -14.756 -20.822  0.00  0.00    +0.112 C 
BRANCH  14  15
ATOM     15  C   UNL     1      33.500 -14.764 -20.233  0.00  0.00    +0.025 C 
BRANCH  15  16
ATOM     16  C   UNL     1      32.594 -13.702 -20.859  0.00  0.00    +0.002 C 
ATOM     17  C   UNL     1      32.269 -12.596 -19.867  0.00  0.00    +0.000 C 
ENDBRANCH  15  16
ENDBRANCH  14  15
ENDBRANCH   3  14
BRANCH   4  18
ATOM     18  C   UNL     1      35.726 -18.960 -23.332  0.00  0.00    +0.143 C 
BRANCH  18  20
ATOM     19  F   UNL     1      37.176 -20.180 -21.233  0.00  0.00    -0.204 F 
ATOM     20  C   UNL     1      35.063 -19.698 -22.204  0.00  0.00    +0.028 C 
ATOM     21  C   UNL     1      35.839 -20.273 -21.204  0.00  0.00    +0.138 C 
ATOM     22  C   UNL     1      33.678 -19.797 -22.172  0.00  0.00    -0.000 C 
ATOM     23  C   UNL     1      35.220 -20.958 -20.158  0.00  0.00    +0.029 C 
ATOM     24  C   UNL     1      33.058 -20.481 -21.126  0.00  0.00    -0.000 C 
ATOM     25  C   UNL     1      33.829 -21.062 -20.118  0.00  0.00    +0.002 C 
ENDBRANCH  18  20
ENDBRANCH   4  18
BRANCH  11  26
ATOM     26  C   UNL     1      33.934 -12.220 -25.502  0.00  0.00    +0.067 C 
BRANCH  26  27
ATOM     27  C   UNL     1      33.809 -10.983 -24.622  0.00  0.00    -0.019 C 
ATOM     28  C   UNL     1      34.795 -10.019 -24.685  0.00  0.00    -0.003 C 
ATOM     29  C   UNL     1      32.715 -10.864 -23.791  0.00  0.00    -0.003 C 
ATOM     30  C   UNL     1      34.679  -8.886 -23.880  0.00  0.00    +0.014 C 
ATOM     31  C   UNL     1      32.601  -9.732 -22.985  0.00  0.00    +0.014 C 
ATOM     32  C   UNL     1      33.584  -8.742 -23.030  0.00  0.00    +0.050 C 
BRANCH  32  34
ATOM     33  O   UNL     1      33.043  -8.488 -20.078  0.00  0.00    -0.275 OA
ATOM     34  N   UNL     1      33.469  -7.609 -22.224  0.00  0.00    -0.284 N 
ATOM     35  C   UNL     1      33.213  -7.548 -20.848  0.00  0.00    +0.227 C 
ATOM     36  C   UNL     1      33.166  -6.125 -20.351  0.00  0.00    +0.095 C 
ATOM     37  H   UNL     1      33.581  -6.744 -22.680  0.00  0.00    +0.155 HD
ENDBRANCH  32  34
ENDBRANCH  26  27
ENDBRANCH  11  26
TORSDOF 8
ENDMDL
MODEL 5
REMARK VINA RESULT:      -9.9      3.737      5.933
REMARK  Name = 447371
REMARK  8 active torsions:
REMARK  status: ('A' for Active; 'I' for Inactive)
REMARK    1  A    between atoms: N_3  and  C_14
REMARK    2  A    between atoms: N_4  and  C_18
REMARK    3  A    between atoms: C_11  and  C_26
REMARK    4  A    between atoms: C_14  and  C_15
REMARK    5  A    between atoms: C_15  and  C_16
REMARK    6  A    between atoms: C_18  and  C_20
REMARK    7  A    between atoms: C_26  and  C_27
REMARK    8  A    between atoms: C_32  and  N_34
REMARK                            x       y       z     vdW  Elec       q    Type
REMARK                         _______ _______ _______ _____ _____    ______ ____
ROOT
ATOM      1  O   UNL     1      33.089 -12.703 -22.793  0.00  0.00    -0.246 OA
ATOM      2  O   UNL     1      34.668 -15.635 -26.103  0.00  0.00    -0.265 OA
ATOM      3  N   UNL     1      34.155 -14.656 -22.114  0.00  0.00    -0.269 N 
ATOM      4  N   UNL     1      33.866 -14.149 -24.464  0.00  0.00    -0.243 N 
ATOM      5  N   UNL     1      35.606 -17.338 -23.839  0.00  0.00    -0.313 N 
ATOM      6  N   UNL     1      35.318 -16.786 -21.698  0.00  0.00    -0.304 N 
ATOM      7  C   UNL     1      34.789 -15.825 -22.518  0.00  0.00    +0.132 A 
ATOM      8  C   UNL     1      34.953 -16.139 -23.839  0.00  0.00    +0.133 A 
ATOM      9  C   UNL     1      33.661 -13.758 -23.092  0.00  0.00    +0.335 A 
ATOM     10  C   UNL     1      34.506 -15.329 -24.926  0.00  0.00    +0.280 A 
ATOM     11  C   UNL     1      35.803 -17.687 -22.528  0.00  0.00    +0.149 C 
ATOM     12  H   UNL     1      35.883 -17.855 -24.630  0.00  0.00    +0.148 HD
ATOM     13  H   UNL     1      35.332 -16.800 -20.714  0.00  0.00    +0.150 HD
ENDROOT
BRANCH   3  14
ATOM     14  C   UNL     1      34.005 -14.365 -20.694  0.00  0.00    +0.112 C 
BRANCH  14  15
ATOM     15  C   UNL     1      32.543 -14.297 -20.266  0.00  0.00    +0.025 C 
BRANCH  15  16
ATOM     16  C   UNL     1      32.251 -13.097 -19.362  0.00  0.00    +0.002 C 
ATOM     17  C   UNL     1      31.594 -11.966 -20.139  0.00  0.00    +0.000 C 
ENDBRANCH  15  16
ENDBRANCH  14  15
ENDBRANCH   3  14
BRANCH   4  18
ATOM     18  C   UNL     1      33.365 -13.235 -25.486  0.00  0.00    +0.143 C 
BRANCH  18  20
ATOM     19  F   UNL     1      34.735 -12.989 -27.946  0.00  0.00    -0.204 F 
ATOM     20  C   UNL     1      34.335 -12.125 -25.771  0.00  0.00    +0.028 C 
ATOM     21  C   UNL     1      34.973 -12.065 -27.005  0.00  0.00    +0.138 C 
ATOM     22  C   UNL     1      34.585 -11.167 -24.796  0.00  0.00    -0.000 C 
ATOM     23  C   UNL     1      35.875 -11.033 -27.266  0.00  0.00    +0.029 C 
ATOM     24  C   UNL     1      35.485 -10.134 -25.058  0.00  0.00    -0.000 C 
ATOM     25  C   UNL     1      36.131 -10.067 -26.293  0.00  0.00    +0.002 C 
ENDBRANCH  18  20
ENDBRANCH   4  18
BRANCH  11  26
ATOM     26  C   UNL     1      36.490 -18.940 -22.164  0.00  0.00    +0.067 C 
BRANCH  26  27
ATOM     27  C   UNL     1      35.659 -19.871 -21.291  0.00  0.00    -0.019 C 
ATOM     28  C   UNL     1      34.283 -19.794 -21.358  0.00  0.00    -0.003 C 
ATOM     29  C   UNL     1      36.307 -20.762 -20.461  0.00  0.00    -0.003 C 
ATOM     30  C   UNL     1      33.523 -20.648 -20.559  0.00  0.00    +0.014 C 
ATOM     31  C   UNL     1      35.546 -21.614 -19.662  0.00  0.00    +0.014 C 
ATOM     32  C   UNL     1      34.153 -21.557 -19.711  0.00  0.00    +0.050 C 
BRANCH  32  34
ATOM     33  O   UNL     1      34.861 -22.998 -17.163  0.00  0.00    -0.275 OA
ATOM     34  N   UNL     1      33.392 -22.410 -18.911  0.00  0.00    -0.284 N 
ATOM     35  C   UNL     1      33.774 -23.058 -17.729  0.00  0.00    +0.227 C 
ATOM     36  C   UNL     1      32.654 -23.896 -17.165  0.00  0.00    +0.095 C 
ATOM     37  H   UNL     1      32.471 -22.577 -19.215  0.00  0.00    +0.155 HD
ENDBRANCH  32  34
ENDBRANCH  26  27
ENDBRANCH  11  26
TORSDOF 8
ENDMDL
MODEL 6
REMARK VINA RESULT:      -9.8      7.345     14.681
REMARK  Name = 447371
REMARK  8 active torsions:
REMARK  status: ('A' for Active; 'I' for Inactive)
REMARK    1  A    between atoms: N_3  and  C_14
REMARK    2  A    between atoms: N_4  and  C_18
REMARK    3  A    between atoms: C_11  and  C_26
REMARK    4  A    between atoms: C_14  and  C_15
REMARK    5  A    between atoms: C_15  and  C_16
REMARK    6  A    between atoms: C_18  and  C_20
REMARK    7  A    between atoms: C_26  and  C_27
REMARK    8  A    between atoms: C_32  and  N_34
REMARK                            x       y       z     vdW  Elec       q    Type
REMARK                         _______ _______ _______ _____ _____    ______ ____
ROOT
ATOM      1  O   UNL     1      33.235 -23.816 -14.669  0.00  0.00    -0.246 OA
ATOM      2  O   UNL     1      37.596 -22.254 -15.434  0.00  0.00    -0.265 OA
ATOM      3  N   UNL     1      33.831 -23.240 -16.842  0.00  0.00    -0.269 N 
ATOM      4  N   UNL     1      35.416 -23.039 -15.022  0.00  0.00    -0.243 N 
ATOM      5  N   UNL     1      36.777 -22.021 -18.295  0.00  0.00    -0.313 N 
ATOM      6  N   UNL     1      34.742 -22.561 -19.026  0.00  0.00    -0.304 N 
ATOM      7  C   UNL     1      34.836 -22.765 -17.676  0.00  0.00    +0.132 A 
ATOM      8  C   UNL     1      36.077 -22.442 -17.200  0.00  0.00    +0.133 A 
ATOM      9  C   UNL     1      34.090 -23.397 -15.458  0.00  0.00    +0.335 A 
ATOM     10  C   UNL     1      36.474 -22.550 -15.834  0.00  0.00    +0.280 A 
ATOM     11  C   UNL     1      35.931 -22.111 -19.369  0.00  0.00    +0.149 C 
ATOM     12  H   UNL     1      37.712 -21.713 -18.309  0.00  0.00    +0.148 HD
ATOM     13  H   UNL     1      33.962 -22.715 -19.608  0.00  0.00    +0.150 HD
ENDROOT
BRANCH   3  14
ATOM     14  C   UNL     1      32.524 -23.572 -17.396  0.00  0.00    +0.112 C 
BRANCH  14  15
ATOM     15  C   UNL     1      31.416 -22.678 -16.850  0.00  0.00    +0.025 C 
BRANCH  15  16
ATOM     16  C   UNL     1      30.184 -23.472 -16.411  0.00  0.00    +0.002 C 
ATOM     17  C   UNL     1      29.189 -22.589 -15.673  0.00  0.00    +0.000 C 
ENDBRANCH  15  16
ENDBRANCH  14  15
ENDBRANCH   3  14
BRANCH   4  18
ATOM     18  C   UNL     1      35.702 -23.195 -13.600  0.00  0.00    +0.143 C 
BRANCH  18  20
ATOM     19  F   UNL     1      37.928 -22.762 -11.912  0.00  0.00    -0.204 F 
ATOM     20  C   UNL     1      36.750 -24.240 -13.350  0.00  0.00    +0.028 C 
ATOM     21  C   UNL     1      37.819 -23.959 -12.506  0.00  0.00    +0.138 C 
ATOM     22  C   UNL     1      36.642 -25.481 -13.966  0.00  0.00    -0.000 C 
ATOM     23  C   UNL     1      38.792 -24.932 -12.276  0.00  0.00    +0.029 C 
ATOM     24  C   UNL     1      37.614 -26.454 -13.736  0.00  0.00    -0.000 C 
ATOM     25  C   UNL     1      38.690 -26.180 -12.891  0.00  0.00    +0.002 C 
ENDBRANCH  18  20
ENDBRANCH   4  18
BRANCH  11  26
ATOM     26  C   UNL     1      36.372 -21.732 -20.725  0.00  0.00    +0.067 C 
BRANCH  26  27
ATOM     27  C   UNL     1      36.083 -20.282 -21.087  0.00  0.00    -0.019 C 
ATOM     28  C   UNL     1      34.776 -19.901 -21.315  0.00  0.00    -0.003 C 
ATOM     29  C   UNL     1      37.135 -19.394 -21.177  0.00  0.00    -0.003 C 
ATOM     30  C   UNL     1      34.512 -18.572 -21.647  0.00  0.00    +0.014 C 
ATOM     31  C   UNL     1      36.870 -18.066 -21.510  0.00  0.00    +0.014 C 
ATOM     32  C   UNL     1      35.558 -17.655 -21.745  0.00  0.00    +0.050 C 
BRANCH  32  34
ATOM     33  O   UNL     1      34.946 -16.390 -24.408  0.00  0.00    -0.275 OA
ATOM     34  N   UNL     1      35.292 -16.325 -22.077  0.00  0.00    -0.284 N 
ATOM     35  C   UNL     1      35.015 -15.789 -23.341  0.00  0.00    +0.227 C 
ATOM     36  C   UNL     1      34.784 -14.300 -23.276  0.00  0.00    +0.095 C 
ATOM     37  H   UNL     1      35.303 -15.685 -21.330  0.00  0.00    +0.155 HD
ENDBRANCH  32  34
ENDBRANCH  26  27
ENDBRANCH  11  26
TORSDOF 8
ENDMDL
MODEL 7
REMARK VINA RESULT:      -9.4      9.604     15.231
REMARK  Name = 447371
REMARK  8 active torsions:
REMARK  status: ('A' for Active; 'I' for Inactive)
REMARK    1  A    between atoms: N_3  and  C_14
REMARK    2  A    between atoms: N_4  and  C_18
REMARK    3  A    between atoms: C_11  and  C_26
REMARK    4  A    between atoms: C_14  and  C_15
REMARK    5  A    between atoms: C_15  and  C_16
REMARK    6  A    between atoms: C_18  and  C_20
REMARK    7  A    between atoms: C_26  and  C_27
REMARK    8  A    between atoms: C_32  and  N_34
REMARK                            x       y       z     vdW  Elec       q    Type
REMARK                         _______ _______ _______ _____ _____    ______ ____
ROOT
ATOM      1  O   UNL     1      34.208 -24.766 -12.373  0.00  0.00    -0.246 OA
ATOM      2  O   UNL     1      32.817 -24.120 -16.811  0.00  0.00    -0.265 OA
ATOM      3  N   UNL     1      35.648 -23.661 -13.827  0.00  0.00    -0.269 N 
ATOM      4  N   UNL     1      33.490 -24.458 -14.581  0.00  0.00    -0.243 N 
ATOM      5  N   UNL     1      35.447 -22.766 -17.208  0.00  0.00    -0.313 N 
ATOM      6  N   UNL     1      36.954 -22.531 -15.582  0.00  0.00    -0.304 N 
ATOM      7  C   UNL     1      35.846 -23.189 -15.119  0.00  0.00    +0.132 A 
ATOM      8  C   UNL     1      34.904 -23.347 -16.097  0.00  0.00    +0.133 A 
ATOM      9  C   UNL     1      34.440 -24.326 -13.505  0.00  0.00    +0.335 A 
ATOM     10  C   UNL     1      33.646 -23.994 -15.914  0.00  0.00    +0.280 A 
ATOM     11  C   UNL     1      36.681 -22.289 -16.847  0.00  0.00    +0.149 C 
ATOM     12  H   UNL     1      35.031 -22.701 -18.098  0.00  0.00    +0.148 HD
ATOM     13  H   UNL     1      37.768 -22.292 -15.082  0.00  0.00    +0.150 HD
ENDROOT
BRANCH   3  14
ATOM     14  C   UNL     1      36.682 -23.469 -12.817  0.00  0.00    +0.112 C 
BRANCH  14  15
ATOM     15  C   UNL     1      37.437 -24.757 -12.504  0.00  0.00    +0.025 C 
BRANCH  15  16
ATOM     16  C   UNL     1      38.688 -24.928 -13.368  0.00  0.00    +0.002 C 
ATOM     17  C   UNL     1      38.480 -25.982 -14.444  0.00  0.00    +0.000 C 
ENDBRANCH  15  16
ENDBRANCH  14  15
ENDBRANCH   3  14
BRANCH   4  18
ATOM     18  C   UNL     1      32.237 -25.139 -14.268  0.00  0.00    +0.143 C 
BRANCH  18  20
ATOM     19  F   UNL     1      30.219 -26.411 -15.785  0.00  0.00    -0.204 F 
ATOM     20  C   UNL     1      31.048 -24.406 -14.819  0.00  0.00    +0.028 C 
ATOM     21  C   UNL     1      30.092 -25.096 -15.556  0.00  0.00    +0.138 C 
ATOM     22  C   UNL     1      30.915 -23.043 -14.585  0.00  0.00    -0.000 C 
ATOM     23  C   UNL     1      28.988 -24.412 -16.067  0.00  0.00    +0.029 C 
ATOM     24  C   UNL     1      29.811 -22.359 -15.094  0.00  0.00    -0.000 C 
ATOM     25  C   UNL     1      28.847 -23.044 -15.835  0.00  0.00    +0.002 C 
ENDBRANCH  18  20
ENDBRANCH   4  18
BRANCH  11  26
ATOM     26  C   UNL     1      37.547 -21.594 -17.818  0.00  0.00    +0.067 C 
BRANCH  26  27
ATOM     27  C   UNL     1      36.816 -21.108 -19.063  0.00  0.00    -0.019 C 
ATOM     28  C   UNL     1      35.629 -21.715 -19.417  0.00  0.00    -0.003 C 
ATOM     29  C   UNL     1      37.365 -20.078 -19.798  0.00  0.00    -0.003 C 
ATOM     30  C   UNL     1      34.960 -21.269 -20.557  0.00  0.00    +0.014 C 
ATOM     31  C   UNL     1      36.696 -19.633 -20.938  0.00  0.00    +0.014 C 
ATOM     32  C   UNL     1      35.493 -20.229 -21.317  0.00  0.00    +0.050 C 
BRANCH  32  34
ATOM     33  O   UNL     1      36.523 -18.777 -23.747  0.00  0.00    -0.275 OA
ATOM     34  N   UNL     1      34.824 -19.784 -22.458  0.00  0.00    -0.284 N 
ATOM     35  C   UNL     1      35.355 -19.108 -23.564  0.00  0.00    +0.227 C 
ATOM     36  C   UNL     1      34.296 -18.801 -24.593  0.00  0.00    +0.095 C 
ATOM     37  H   UNL     1      33.858 -19.967 -22.489  0.00  0.00    +0.155 HD
ENDBRANCH  32  34
ENDBRANCH  26  27
ENDBRANCH  11  26
TORSDOF 8
ENDMDL
MODEL 8
REMARK VINA RESULT:      -9.2      3.069      9.620
REMARK  Name = 447371
REMARK  8 active torsions:
REMARK  status: ('A' for Active; 'I' for Inactive)
REMARK    1  A    between atoms: N_3  and  C_14
REMARK    2  A    between atoms: N_4  and  C_18
REMARK    3  A    between atoms: C_11  and  C_26
REMARK    4  A    between atoms: C_14  and  C_15
REMARK    5  A    between atoms: C_15  and  C_16
REMARK    6  A    between atoms: C_18  and  C_20
REMARK    7  A    between atoms: C_26  and  C_27
REMARK    8  A    between atoms: C_32  and  N_34
REMARK                            x       y       z     vdW  Elec       q    Type
REMARK                         _______ _______ _______ _____ _____    ______ ____
ROOT
ATOM      1  O   UNL     1      31.960 -13.759 -22.953  0.00  0.00    -0.246 OA
ATOM      2  O   UNL     1      35.037 -11.409 -25.611  0.00  0.00    -0.265 OA
ATOM      3  N   UNL     1      32.308 -11.504 -22.500  0.00  0.00    -0.269 N 
ATOM      4  N   UNL     1      33.501 -12.611 -24.293  0.00  0.00    -0.243 N 
ATOM      5  N   UNL     1      34.353  -9.043 -23.925  0.00  0.00    -0.313 N 
ATOM      6  N   UNL     1      32.878  -9.121 -22.256  0.00  0.00    -0.304 N 
ATOM      7  C   UNL     1      32.994 -10.348 -22.853  0.00  0.00    +0.132 A 
ATOM      8  C   UNL     1      33.894 -10.328 -23.882  0.00  0.00    +0.133 A 
ATOM      9  C   UNL     1      32.541 -12.700 -23.221  0.00  0.00    +0.335 A 
ATOM     10  C   UNL     1      34.225 -11.456 -24.691  0.00  0.00    +0.280 A 
ATOM     11  C   UNL     1      33.712  -8.355 -22.928  0.00  0.00    +0.149 C 
ATOM     12  H   UNL     1      35.018  -8.679 -24.554  0.00  0.00    +0.148 HD
ATOM     13  H   UNL     1      32.302  -8.869 -21.499  0.00  0.00    +0.150 HD
ENDROOT
BRANCH   3  14
ATOM     14  C   UNL     1      31.358 -11.475 -21.395  0.00  0.00    +0.112 C 
BRANCH  14  15
ATOM     15  C   UNL     1      31.921 -12.107 -20.127  0.00  0.00    +0.025 C 
BRANCH  15  16
ATOM     16  C   UNL     1      31.555 -11.320 -18.867  0.00  0.00    +0.002 C 
ATOM     17  C   UNL     1      31.667  -9.820 -19.098  0.00  0.00    +0.000 C 
ENDBRANCH  15  16
ENDBRANCH  14  15
ENDBRANCH   3  14
BRANCH   4  18
ATOM     18  C   UNL     1      33.754 -13.834 -25.049  0.00  0.00    +0.143 C 
BRANCH  18  20
ATOM     19  F   UNL     1      34.534 -16.351 -26.072  0.00  0.00    -0.204 F 
ATOM     20  C   UNL     1      34.396 -14.894 -24.202  0.00  0.00    +0.028 C 
ATOM     21  C   UNL     1      34.756 -16.110 -24.772  0.00  0.00    +0.138 C 
ATOM     22  C   UNL     1      34.625 -14.648 -22.853  0.00  0.00    -0.000 C 
ATOM     23  C   UNL     1      35.352 -17.094 -23.982  0.00  0.00    +0.029 C 
ATOM     24  C   UNL     1      35.222 -15.631 -22.064  0.00  0.00    -0.000 C 
ATOM     25  C   UNL     1      35.586 -16.854 -22.628  0.00  0.00    +0.002 C 
ENDBRANCH  18  20
ENDBRANCH   4  18
BRANCH  11  26
ATOM     26  C   UNL     1      33.977  -6.923 -22.693  0.00  0.00    +0.067 C 
BRANCH  26  27
ATOM     27  C   UNL     1      33.801  -6.050 -23.929  0.00  0.00    -0.019 C 
ATOM     28  C   UNL     1      32.594  -5.411 -24.125  0.00  0.00    -0.003 C 
ATOM     29  C   UNL     1      34.853  -5.926 -24.812  0.00  0.00    -0.003 C 
ATOM     30  C   UNL     1      32.434  -4.611 -25.257  0.00  0.00    +0.014 C 
ATOM     31  C   UNL     1      34.691  -5.127 -25.944  0.00  0.00    +0.014 C 
ATOM     32  C   UNL     1      33.481  -4.469 -26.166  0.00  0.00    +0.050 C 
BRANCH  32  34
ATOM     33  O   UNL     1      34.788  -1.863 -26.922  0.00  0.00    -0.275 OA
ATOM     34  N   UNL     1      33.320  -3.670 -27.299  0.00  0.00    -0.284 N 
ATOM     35  C   UNL     1      33.956  -2.458 -27.600  0.00  0.00    +0.227 C 
ATOM     36  C   UNL     1      33.505  -1.906 -28.928  0.00  0.00    +0.095 C 
ATOM     37  H   UNL     1      32.679  -3.998 -27.969  0.00  0.00    +0.155 HD
ENDBRANCH  32  34
ENDBRANCH  26  27
ENDBRANCH  11  26
TORSDOF 8
ENDMDL
MODEL 9
REMARK VINA RESULT:      -9.0      3.520      5.989
REMARK  Name = 447371
REMARK  8 active torsions:
REMARK  status: ('A' for Active; 'I' for Inactive)
REMARK    1  A    between atoms: N_3  and  C_14
REMARK    2  A    between atoms: N_4  and  C_18
REMARK    3  A    between atoms: C_11  and  C_26
REMARK    4  A    between atoms: C_14  and  C_15
REMARK    5  A    between atoms: C_15  and  C_16
REMARK    6  A    between atoms: C_18  and  C_20
REMARK    7  A    between atoms: C_26  and  C_27
REMARK    8  A    between atoms: C_32  and  N_34
REMARK                            x       y       z     vdW  Elec       q    Type
REMARK                         _______ _______ _______ _____ _____    ______ ____
ROOT
ATOM      1  O   UNL     1      32.238 -12.138 -23.550  0.00  0.00    -0.246 OA
ATOM      2  O   UNL     1      32.802 -14.769 -19.702  0.00  0.00    -0.265 OA
ATOM      3  N   UNL     1      33.804 -13.857 -23.613  0.00  0.00    -0.269 N 
ATOM      4  N   UNL     1      32.500 -13.434 -21.616  0.00  0.00    -0.243 N 
ATOM      5  N   UNL     1      34.859 -16.248 -21.280  0.00  0.00    -0.313 N 
ATOM      6  N   UNL     1      35.379 -15.736 -23.386  0.00  0.00    -0.304 N 
ATOM      7  C   UNL     1      34.407 -14.895 -22.913  0.00  0.00    +0.132 A 
ATOM      8  C   UNL     1      34.069 -15.187 -21.621  0.00  0.00    +0.133 A 
ATOM      9  C   UNL     1      32.810 -13.074 -22.977  0.00  0.00    +0.335 A 
ATOM     10  C   UNL     1      33.087 -14.484 -20.861  0.00  0.00    +0.280 A 
ATOM     11  C   UNL     1      35.629 -16.542 -22.375  0.00  0.00    +0.149 C 
ATOM     12  H   UNL     1      34.872 -16.714 -20.412  0.00  0.00    +0.148 HD
ATOM     13  H   UNL     1      35.794 -15.738 -24.279  0.00  0.00    +0.150 HD
ENDROOT
BRANCH   3  14
ATOM     14  C   UNL     1      34.199 -13.584 -24.989  0.00  0.00    +0.112 C 
BRANCH  14  15
ATOM     15  C   UNL     1      33.730 -14.667 -25.955  0.00  0.00    +0.025 C 
BRANCH  15  16
ATOM     16  C   UNL     1      33.511 -14.134 -27.372  0.00  0.00    +0.002 C 
ATOM     17  C   UNL     1      33.393 -12.618 -27.383  0.00  0.00    +0.000 C 
ENDBRANCH  15  16
ENDBRANCH  14  15
ENDBRANCH   3  14
BRANCH   4  18
ATOM     18  C   UNL     1      31.476 -12.640 -20.945  0.00  0.00    +0.143 C 
BRANCH  18  20
ATOM     19  F   UNL     1      32.089 -11.676 -18.360  0.00  0.00    -0.204 F 
ATOM     20  C   UNL     1      31.937 -11.234 -20.687  0.00  0.00    +0.028 C 
ATOM     21  C   UNL     1      32.222 -10.827 -19.389  0.00  0.00    +0.138 C 
ATOM     22  C   UNL     1      32.073 -10.352 -21.752  0.00  0.00    -0.000 C 
ATOM     23  C   UNL     1      32.648  -9.520 -19.153  0.00  0.00    +0.029 C 
ATOM     24  C   UNL     1      32.501  -9.045 -21.517  0.00  0.00    -0.000 C 
ATOM     25  C   UNL     1      32.789  -8.629 -20.216  0.00  0.00    +0.002 C 
ENDBRANCH  18  20
ENDBRANCH   4  18
BRANCH  11  26
ATOM     26  C   UNL     1      36.605 -17.648 -22.351  0.00  0.00    +0.067 C 
BRANCH  26  27
ATOM     27  C   UNL     1      36.145 -18.862 -21.554  0.00  0.00    -0.019 C 
ATOM     28  C   UNL     1      37.058 -19.515 -20.751  0.00  0.00    -0.003 C 
ATOM     29  C   UNL     1      34.832 -19.270 -21.659  0.00  0.00    -0.003 C 
ATOM     30  C   UNL     1      36.636 -20.626 -20.021  0.00  0.00    +0.014 C 
ATOM     31  C   UNL     1      34.411 -20.381 -20.929  0.00  0.00    +0.014 C 
ATOM     32  C   UNL     1      35.314 -21.060 -20.110  0.00  0.00    +0.050 C 
BRANCH  32  34
ATOM     33  O   UNL     1      32.622 -21.720 -18.931  0.00  0.00    -0.275 OA
ATOM     34  N   UNL     1      34.892 -22.172 -19.379  0.00  0.00    -0.284 N 
ATOM     35  C   UNL     1      33.621 -22.428 -18.851  0.00  0.00    +0.227 C 
ATOM     36  C   UNL     1      33.575 -23.748 -18.123  0.00  0.00    +0.095 C 
ATOM     37  H   UNL     1      35.574 -22.862 -19.215  0.00  0.00    +0.155 HD
ENDBRANCH  32  34
ENDBRANCH  26  27
ENDBRANCH  11  26
TORSDOF 8
ENDMDL
