MODEL 1
REMARK VINA RESULT:     -12.3      0.000      0.000
REMARK  Name = 22479942
REMARK  4 active torsions:
REMARK  status: ('A' for Active; 'I' for Inactive)
REMARK    1  A    between atoms: C_4  and  C_17
REMARK    2  A    between atoms: C_7  and  C_14
REMARK    3  A    between atoms: C_20  and  N_24
REMARK    4  A    between atoms: C_25  and  C_28
REMARK                            x       y       z     vdW  Elec       q    Type
REMARK                         _______ _______ _______ _____ _____    ______ ____
ROOT
ATOM      1  N   UNL     1      31.370 -23.291 -17.188  0.00  0.00    -0.276 N 
ATOM      2  N   UNL     1      32.155 -22.722 -18.119  0.00  0.00    -0.173 NA
ATOM      3  C   UNL     1      33.370 -23.366 -16.290  0.00  0.00    +0.036 A 
ATOM      4  C   UNL     1      33.370 -22.770 -17.570  0.00  0.00    +0.102 A 
ATOM      5  C   UNL     1      32.039 -23.699 -16.065  0.00  0.00    +0.075 A 
ATOM      6  C   UNL     1      34.329 -23.660 -15.306  0.00  0.00    +0.006 C 
ATOM      7  C   UNL     1      33.905 -24.283 -14.125  0.00  0.00    +0.033 C 
ATOM      8  C   UNL     1      31.596 -24.320 -14.896  0.00  0.00    +0.019 C 
ATOM      9  C   UNL     1      32.562 -24.606 -13.926  0.00  0.00    +0.004 C 
ATOM     10  H   UNL     1      30.400 -23.404 -17.304  0.00  0.00    +0.189 HD
ENDROOT
BRANCH   7  14
ATOM     11  N   UNL     1      35.890 -25.478 -13.283  0.00  0.00    -0.218 N 
ATOM     12  N   UNL     1      34.930 -24.100 -11.885  0.00  0.00    -0.206 NA
ATOM     13  N   UNL     1      36.645 -25.585 -12.179  0.00  0.00    -0.157 NA
ATOM     14  C   UNL     1      34.873 -24.593 -13.101  0.00  0.00    +0.149 C 
ATOM     15  C   UNL     1      36.022 -24.732 -11.363  0.00  0.00    +0.218 C 
ATOM     16  H   UNL     1      36.052 -25.974 -14.118  0.00  0.00    +0.176 HD
ENDBRANCH   7  14
BRANCH   4  17
ATOM     17  C   UNL     1      34.507 -22.245 -18.283  0.00  0.00    +0.021 C 
ATOM     18  C   UNL     1      34.321 -21.564 -19.487  0.00  0.00    +0.016 C 
ATOM     19  C   UNL     1      35.791 -22.417 -17.770  0.00  0.00    +0.002 C 
ATOM     20  C   UNL     1      35.421 -21.055 -20.177  0.00  0.00    +0.051 C 
ATOM     21  C   UNL     1      36.892 -21.909 -18.461  0.00  0.00    +0.001 C 
ATOM     22  C   UNL     1      36.707 -21.228 -19.664  0.00  0.00    +0.015 C 
BRANCH  20  24
ATOM     23  O   UNL     1      36.359 -18.367 -21.000  0.00  0.00    -0.266 OA
ATOM     24  N   UNL     1      35.237 -20.373 -21.380  0.00  0.00    -0.278 N 
ATOM     25  C   UNL     1      35.698 -19.091 -21.741  0.00  0.00    +0.284 C 
ATOM     26  H   UNL     1      34.718 -20.851 -22.066  0.00  0.00    +0.155 HD
BRANCH  25  28
ATOM     27  O   UNL     1      35.482 -17.327 -23.393  0.00  0.00    -0.446 OA
ATOM     28  C   UNL     1      35.296 -18.637 -23.083  0.00  0.00    +0.199 C 
ATOM     29  C   UNL     1      34.739 -19.310 -24.145  0.00  0.00    +0.045 C 
ATOM     30  C   UNL     1      34.572 -18.353 -25.174  0.00  0.00    +0.044 C 
ATOM     31  C   UNL     1      35.040 -17.162 -24.667  0.00  0.00    +0.180 C 
ENDBRANCH  25  28
ENDBRANCH  20  24
ENDBRANCH   4  17
TORSDOF 4
ENDMDL
MODEL 2
REMARK VINA RESULT:     -11.2      1.968      2.945
REMARK  Name = 22479942
REMARK  4 active torsions:
REMARK  status: ('A' for Active; 'I' for Inactive)
REMARK    1  A    between atoms: C_4  and  C_17
REMARK    2  A    between atoms: C_7  and  C_14
REMARK    3  A    between atoms: C_20  and  N_24
REMARK    4  A    between atoms: C_25  and  C_28
REMARK                            x       y       z     vdW  Elec       q    Type
REMARK                         _______ _______ _______ _____ _____    ______ ____
ROOT
ATOM      1  N   UNL     1      32.473 -22.458 -19.140  0.00  0.00    -0.276 N 
ATOM      2  N   UNL     1      33.043 -21.627 -20.030  0.00  0.00    -0.173 NA
ATOM      3  C   UNL     1      34.531 -22.254 -18.410  0.00  0.00    +0.036 A 
ATOM      4  C   UNL     1      34.294 -21.506 -19.582  0.00  0.00    +0.102 A 
ATOM      5  C   UNL     1      33.315 -22.871 -18.142  0.00  0.00    +0.075 A 
ATOM      6  C   UNL     1      35.621 -22.480 -17.552  0.00  0.00    +0.006 C 
ATOM      7  C   UNL     1      35.440 -23.326 -16.450  0.00  0.00    +0.033 C 
ATOM      8  C   UNL     1      33.113 -23.717 -17.049  0.00  0.00    +0.019 C 
ATOM      9  C   UNL     1      34.207 -23.932 -16.205  0.00  0.00    +0.004 C 
ATOM     10  H   UNL     1      31.534 -22.745 -19.201  0.00  0.00    +0.189 HD
ENDROOT
BRANCH   7  14
ATOM     11  N   UNL     1      37.835 -23.667 -15.977  0.00  0.00    -0.218 N 
ATOM     12  N   UNL     1      36.494 -23.737 -14.253  0.00  0.00    -0.206 NA
ATOM     13  N   UNL     1      38.668 -23.898 -14.951  0.00  0.00    -0.157 NA
ATOM     14  C   UNL     1      36.546 -23.571 -15.555  0.00  0.00    +0.149 C 
ATOM     15  C   UNL     1      37.807 -23.932 -13.930  0.00  0.00    +0.218 C 
ATOM     16  H   UNL     1      38.122 -23.576 -16.915  0.00  0.00    +0.176 HD
ENDBRANCH   7  14
BRANCH   4  17
ATOM     17  C   UNL     1      35.237 -20.676 -20.289  0.00  0.00    +0.021 C 
ATOM     18  C   UNL     1      34.779 -19.679 -21.152  0.00  0.00    +0.016 C 
ATOM     19  C   UNL     1      36.606 -20.869 -20.110  0.00  0.00    +0.002 C 
ATOM     20  C   UNL     1      35.692 -18.877 -21.835  0.00  0.00    +0.051 C 
ATOM     21  C   UNL     1      37.519 -20.066 -20.794  0.00  0.00    +0.001 C 
ATOM     22  C   UNL     1      37.062 -19.070 -21.657  0.00  0.00    +0.015 C 
BRANCH  20  24
ATOM     23  O   UNL     1      35.250 -18.953 -24.765  0.00  0.00    -0.266 OA
ATOM     24  N   UNL     1      35.236 -17.879 -22.698  0.00  0.00    -0.278 N 
ATOM     25  C   UNL     1      35.036 -17.948 -24.091  0.00  0.00    +0.284 C 
ATOM     26  H   UNL     1      35.026 -17.014 -22.277  0.00  0.00    +0.155 HD
BRANCH  25  28
ATOM     27  O   UNL     1      34.729 -15.542 -24.018  0.00  0.00    -0.446 OA
ATOM     28  C   UNL     1      34.581 -16.696 -24.720  0.00  0.00    +0.199 C 
ATOM     29  C   UNL     1      34.004 -16.447 -25.943  0.00  0.00    +0.045 C 
ATOM     30  C   UNL     1      33.783 -15.050 -25.997  0.00  0.00    +0.044 C 
ATOM     31  C   UNL     1      34.242 -14.545 -24.802  0.00  0.00    +0.180 C 
ENDBRANCH  25  28
ENDBRANCH  20  24
ENDBRANCH   4  17
TORSDOF 4
ENDMDL
MODEL 3
REMARK VINA RESULT:     -11.0      4.795      6.859
REMARK  Name = 22479942
REMARK  4 active torsions:
REMARK  status: ('A' for Active; 'I' for Inactive)
REMARK    1  A    between atoms: C_4  and  C_17
REMARK    2  A    between atoms: C_7  and  C_14
REMARK    3  A    between atoms: C_20  and  N_24
REMARK    4  A    between atoms: C_25  and  C_28
REMARK                            x       y       z     vdW  Elec       q    Type
REMARK                         _______ _______ _______ _____ _____    ______ ____
ROOT
ATOM      1  N   UNL     1      34.303 -24.196 -11.926  0.00  0.00    -0.276 N 
ATOM      2  N   UNL     1      33.512 -23.814 -12.943  0.00  0.00    -0.173 NA
ATOM      3  C   UNL     1      35.602 -24.379 -13.684  0.00  0.00    +0.036 A 
ATOM      4  C   UNL     1      34.305 -23.927 -14.010  0.00  0.00    +0.102 A 
ATOM      5  C   UNL     1      35.572 -24.547 -12.304  0.00  0.00    +0.075 A 
ATOM      6  C   UNL     1      36.785 -24.662 -14.387  0.00  0.00    +0.006 C 
ATOM      7  C   UNL     1      37.900 -25.108 -13.665  0.00  0.00    +0.033 C 
ATOM      8  C   UNL     1      36.672 -24.990 -11.566  0.00  0.00    +0.019 C 
ATOM      9  C   UNL     1      37.842 -25.268 -12.279  0.00  0.00    +0.004 C 
ATOM     10  H   UNL     1      33.998 -24.221 -10.991  0.00  0.00    +0.189 HD
ENDROOT
BRANCH   7  14
ATOM     11  N   UNL     1      39.875 -26.511 -14.119  0.00  0.00    -0.218 N 
ATOM     12  N   UNL     1      39.695 -24.688 -15.310  0.00  0.00    -0.206 NA
ATOM     13  N   UNL     1      40.963 -26.549 -14.903  0.00  0.00    -0.157 NA
ATOM     14  C   UNL     1      39.127 -25.403 -14.366  0.00  0.00    +0.149 C 
ATOM     15  C   UNL     1      40.807 -25.424 -15.605  0.00  0.00    +0.218 C 
ATOM     16  H   UNL     1      39.648 -27.198 -13.451  0.00  0.00    +0.176 HD
ENDBRANCH   7  14
BRANCH   4  17
ATOM     17  C   UNL     1      33.803 -23.601 -15.321  0.00  0.00    +0.021 C 
ATOM     18  C   UNL     1      32.456 -23.276 -15.490  0.00  0.00    +0.016 C 
ATOM     19  C   UNL     1      34.662 -23.611 -16.418  0.00  0.00    +0.002 C 
ATOM     20  C   UNL     1      31.970 -22.961 -16.759  0.00  0.00    +0.051 C 
ATOM     21  C   UNL     1      34.175 -23.295 -17.688  0.00  0.00    +0.001 C 
ATOM     22  C   UNL     1      32.830 -22.970 -17.858  0.00  0.00    +0.015 C 
BRANCH  20  24
ATOM     23  O   UNL     1      29.543 -24.594 -16.287  0.00  0.00    -0.266 OA
ATOM     24  N   UNL     1      30.624 -22.634 -16.930  0.00  0.00    -0.278 N 
ATOM     25  C   UNL     1      29.490 -23.436 -16.696  0.00  0.00    +0.284 C 
ATOM     26  H   UNL     1      30.445 -21.722 -17.257  0.00  0.00    +0.155 HD
BRANCH  25  28
ATOM     27  O   UNL     1      27.833 -22.735 -18.324  0.00  0.00    -0.446 OA
ATOM     28  C   UNL     1      28.199 -22.804 -17.017  0.00  0.00    +0.199 C 
ATOM     29  C   UNL     1      27.236 -22.237 -16.215  0.00  0.00    +0.045 C 
ATOM     30  C   UNL     1      26.212 -21.792 -17.085  0.00  0.00    +0.044 C 
ATOM     31  C   UNL     1      26.622 -22.119 -18.357  0.00  0.00    +0.180 C 
ENDBRANCH  25  28
ENDBRANCH  20  24
ENDBRANCH   4  17
TORSDOF 4
ENDMDL
MODEL 4
REMARK VINA RESULT:     -10.8      3.835      8.101
REMARK  Name = 22479942
REMARK  4 active torsions:
REMARK  status: ('A' for Active; 'I' for Inactive)
REMARK    1  A    between atoms: C_4  and  C_17
REMARK    2  A    between atoms: C_7  and  C_14
REMARK    3  A    between atoms: C_20  and  N_24
REMARK    4  A    between atoms: C_25  and  C_28
REMARK                            x       y       z     vdW  Elec       q    Type
REMARK                         _______ _______ _______ _____ _____    ______ ____
ROOT
ATOM      1  N   UNL     1      36.729 -23.667 -15.314  0.00  0.00    -0.276 N 
ATOM      2  N   UNL     1      35.675 -24.117 -14.612  0.00  0.00    -0.173 NA
ATOM      3  C   UNL     1      35.007 -23.066 -16.532  0.00  0.00    +0.036 A 
ATOM      4  C   UNL     1      34.630 -23.750 -15.356  0.00  0.00    +0.102 A 
ATOM      5  C   UNL     1      36.395 -23.026 -16.477  0.00  0.00    +0.075 A 
ATOM      6  C   UNL     1      34.343 -22.482 -17.624  0.00  0.00    +0.006 C 
ATOM      7  C   UNL     1      35.112 -21.876 -18.626  0.00  0.00    +0.033 C 
ATOM      8  C   UNL     1      37.180 -22.427 -17.465  0.00  0.00    +0.019 C 
ATOM      9  C   UNL     1      36.506 -21.850 -18.546  0.00  0.00    +0.004 C 
ATOM     10  H   UNL     1      37.659 -23.788 -15.017  0.00  0.00    +0.189 HD
ENDROOT
BRANCH   7  14
ATOM     11  N   UNL     1      33.108 -21.335 -19.955  0.00  0.00    -0.218 N 
ATOM     12  N   UNL     1      35.009 -20.589 -20.733  0.00  0.00    -0.206 NA
ATOM     13  N   UNL     1      32.749 -20.693 -21.077  0.00  0.00    -0.157 NA
ATOM     14  C   UNL     1      34.452 -21.269 -19.757  0.00  0.00    +0.149 C 
ATOM     15  C   UNL     1      33.935 -20.259 -21.510  0.00  0.00    +0.218 C 
ATOM     16  H   UNL     1      32.479 -21.795 -19.352  0.00  0.00    +0.176 HD
ENDBRANCH   7  14
BRANCH   4  17
ATOM     17  C   UNL     1      33.291 -24.065 -14.926  0.00  0.00    +0.021 C 
ATOM     18  C   UNL     1      32.197 -23.484 -15.569  0.00  0.00    +0.016 C 
ATOM     19  C   UNL     1      33.088 -24.950 -13.869  0.00  0.00    +0.002 C 
ATOM     20  C   UNL     1      30.902 -23.789 -15.153  0.00  0.00    +0.051 C 
ATOM     21  C   UNL     1      31.792 -25.255 -13.452  0.00  0.00    +0.001 C 
ATOM     22  C   UNL     1      30.698 -24.675 -14.094  0.00  0.00    +0.015 C 
BRANCH  20  24
ATOM     23  O   UNL     1      28.770 -25.047 -16.783  0.00  0.00    -0.266 OA
ATOM     24  N   UNL     1      29.807 -23.209 -15.796  0.00  0.00    -0.278 N 
ATOM     25  C   UNL     1      28.808 -23.838 -16.566  0.00  0.00    +0.284 C 
ATOM     26  H   UNL     1      29.721 -22.233 -15.697  0.00  0.00    +0.155 HD
BRANCH  25  28
ATOM     27  O   UNL     1      27.562 -23.021 -18.481  0.00  0.00    -0.446 OA
ATOM     28  C   UNL     1      27.803 -22.931 -17.147  0.00  0.00    +0.199 C 
ATOM     29  C   UNL     1      27.016 -21.957 -16.578  0.00  0.00    +0.045 C 
ATOM     30  C   UNL     1      26.240 -21.414 -17.631  0.00  0.00    +0.044 C 
ATOM     31  C   UNL     1      26.609 -22.096 -18.768  0.00  0.00    +0.180 C 
ENDBRANCH  25  28
ENDBRANCH  20  24
ENDBRANCH   4  17
TORSDOF 4
ENDMDL
MODEL 5
REMARK VINA RESULT:     -10.0      4.820      6.771
REMARK  Name = 22479942
REMARK  4 active torsions:
REMARK  status: ('A' for Active; 'I' for Inactive)
REMARK    1  A    between atoms: C_4  and  C_17
REMARK    2  A    between atoms: C_7  and  C_14
REMARK    3  A    between atoms: C_20  and  N_24
REMARK    4  A    between atoms: C_25  and  C_28
REMARK                            x       y       z     vdW  Elec       q    Type
REMARK                         _______ _______ _______ _____ _____    ______ ____
ROOT
ATOM      1  N   UNL     1      35.597 -22.279 -18.413  0.00  0.00    -0.276 N 
ATOM      2  N   UNL     1      34.288 -22.549 -18.271  0.00  0.00    -0.173 NA
ATOM      3  C   UNL     1      35.440 -22.991 -16.344  0.00  0.00    +0.036 A 
ATOM      4  C   UNL     1      34.196 -22.981 -17.012  0.00  0.00    +0.102 A 
ATOM      5  C   UNL     1      36.344 -22.524 -17.291  0.00  0.00    +0.075 A 
ATOM      6  C   UNL     1      35.902 -23.338 -15.063  0.00  0.00    +0.006 C 
ATOM      7  C   UNL     1      37.268 -23.198 -14.785  0.00  0.00    +0.033 C 
ATOM      8  C   UNL     1      37.709 -22.377 -17.035  0.00  0.00    +0.019 C 
ATOM      9  C   UNL     1      38.154 -22.726 -15.756  0.00  0.00    +0.004 C 
ATOM     10  H   UNL     1      35.984 -21.935 -19.249  0.00  0.00    +0.189 HD
ENDROOT
BRANCH   7  14
ATOM     11  N   UNL     1      37.414 -22.880 -12.345  0.00  0.00    -0.218 N 
ATOM     12  N   UNL     1      38.596 -24.520 -13.175  0.00  0.00    -0.206 NA
ATOM     13  N   UNL     1      38.013 -23.403 -11.265  0.00  0.00    -0.157 NA
ATOM     14  C   UNL     1      37.764 -23.548 -13.476  0.00  0.00    +0.149 C 
ATOM     15  C   UNL     1      38.716 -24.392 -11.821  0.00  0.00    +0.218 C 
ATOM     16  H   UNL     1      36.799 -22.111 -12.322  0.00  0.00    +0.176 HD
ENDBRANCH   7  14
BRANCH   4  17
ATOM     17  C   UNL     1      32.918 -23.374 -16.474  0.00  0.00    +0.021 C 
ATOM     18  C   UNL     1      31.745 -22.822 -16.991  0.00  0.00    +0.016 C 
ATOM     19  C   UNL     1      32.854 -24.305 -15.439  0.00  0.00    +0.002 C 
ATOM     20  C   UNL     1      30.508 -23.203 -16.470  0.00  0.00    +0.051 C 
ATOM     21  C   UNL     1      31.617 -24.686 -14.918  0.00  0.00    +0.001 C 
ATOM     22  C   UNL     1      30.444 -24.135 -15.433  0.00  0.00    +0.015 C 
BRANCH  20  24
ATOM     23  O   UNL     1      28.102 -24.544 -17.563  0.00  0.00    -0.266 OA
ATOM     24  N   UNL     1      29.334 -22.653 -16.986  0.00  0.00    -0.278 N 
ATOM     25  C   UNL     1      28.204 -23.321 -17.499  0.00  0.00    +0.284 C 
ATOM     26  H   UNL     1      29.289 -21.669 -16.991  0.00  0.00    +0.155 HD
BRANCH  25  28
ATOM     27  O   UNL     1      26.618 -22.719 -19.234  0.00  0.00    -0.446 OA
ATOM     28  C   UNL     1      27.137 -22.444 -18.009  0.00  0.00    +0.199 C 
ATOM     29  C   UNL     1      26.525 -21.339 -17.463  0.00  0.00    +0.045 C 
ATOM     30  C   UNL     1      25.569 -20.909 -18.413  0.00  0.00    +0.044 C 
ATOM     31  C   UNL     1      25.664 -21.782 -19.473  0.00  0.00    +0.180 C 
ENDBRANCH  25  28
ENDBRANCH  20  24
ENDBRANCH   4  17
TORSDOF 4
ENDMDL
MODEL 6
REMARK VINA RESULT:      -9.9     12.429     18.512
REMARK  Name = 22479942
REMARK  4 active torsions:
REMARK  status: ('A' for Active; 'I' for Inactive)
REMARK    1  A    between atoms: C_4  and  C_17
REMARK    2  A    between atoms: C_7  and  C_14
REMARK    3  A    between atoms: C_20  and  N_24
REMARK    4  A    between atoms: C_25  and  C_28
REMARK                            x       y       z     vdW  Elec       q    Type
REMARK                         _______ _______ _______ _____ _____    ______ ____
ROOT
ATOM      1  N   UNL     1      30.802  -3.240 -24.194  0.00  0.00    -0.276 N 
ATOM      2  N   UNL     1      30.846  -4.201 -23.254  0.00  0.00    -0.173 NA
ATOM      3  C   UNL     1      32.573  -4.413 -24.741  0.00  0.00    +0.036 A 
ATOM      4  C   UNL     1      31.924  -4.911 -23.591  0.00  0.00    +0.102 A 
ATOM      5  C   UNL     1      31.811  -3.313 -25.117  0.00  0.00    +0.075 A 
ATOM      6  C   UNL     1      33.702  -4.761 -25.501  0.00  0.00    +0.006 C 
ATOM      7  C   UNL     1      34.023  -3.979 -26.618  0.00  0.00    +0.033 C 
ATOM      8  C   UNL     1      32.113  -2.520 -26.226  0.00  0.00    +0.019 C 
ATOM      9  C   UNL     1      33.240  -2.878 -26.972  0.00  0.00    +0.004 C 
ATOM     10  H   UNL     1      30.106  -2.546 -24.216  0.00  0.00    +0.189 HD
ENDROOT
BRANCH   7  14
ATOM     11  N   UNL     1      35.266  -4.056 -28.745  0.00  0.00    -0.218 N 
ATOM     12  N   UNL     1      36.279  -4.907 -27.006  0.00  0.00    -0.206 NA
ATOM     13  N   UNL     1      36.439  -4.472 -29.246  0.00  0.00    -0.157 NA
ATOM     14  C   UNL     1      35.178  -4.318 -27.413  0.00  0.00    +0.149 C 
ATOM     15  C   UNL     1      37.015  -4.979 -28.154  0.00  0.00    +0.218 C 
ATOM     16  H   UNL     1      34.560  -3.618 -29.273  0.00  0.00    +0.176 HD
ENDBRANCH   7  14
BRANCH   4  17
ATOM     17  C   UNL     1      32.312  -6.053 -22.800  0.00  0.00    +0.021 C 
ATOM     18  C   UNL     1      32.490  -7.295 -23.411  0.00  0.00    +0.016 C 
ATOM     19  C   UNL     1      32.510  -5.916 -21.428  0.00  0.00    +0.002 C 
ATOM     20  C   UNL     1      32.865  -8.400 -22.646  0.00  0.00    +0.051 C 
ATOM     21  C   UNL     1      32.885  -7.021 -20.663  0.00  0.00    +0.001 C 
ATOM     22  C   UNL     1      33.063  -8.263 -21.272  0.00  0.00    +0.015 C 
BRANCH  20  24
ATOM     23  O   UNL     1      35.191  -9.466 -24.142  0.00  0.00    -0.266 OA
ATOM     24  N   UNL     1      33.044  -9.642 -23.255  0.00  0.00    -0.278 N 
ATOM     25  C   UNL     1      34.167 -10.120 -23.961  0.00  0.00    +0.284 C 
ATOM     26  H   UNL     1      32.287 -10.268 -23.180  0.00  0.00    +0.155 HD
BRANCH  25  28
ATOM     27  O   UNL     1      33.713 -12.485 -23.669  0.00  0.00    -0.446 OA
ATOM     28  C   UNL     1      34.023 -11.474 -24.522  0.00  0.00    +0.199 C 
ATOM     29  C   UNL     1      34.147 -11.947 -25.807  0.00  0.00    +0.045 C 
ATOM     30  C   UNL     1      33.896 -13.339 -25.740  0.00  0.00    +0.044 C 
ATOM     31  C   UNL     1      33.637 -13.617 -24.418  0.00  0.00    +0.180 C 
ENDBRANCH  25  28
ENDBRANCH  20  24
ENDBRANCH   4  17
TORSDOF 4
ENDMDL
MODEL 7
REMARK VINA RESULT:      -9.8      2.050      4.690
REMARK  Name = 22479942
REMARK  4 active torsions:
REMARK  status: ('A' for Active; 'I' for Inactive)
REMARK    1  A    between atoms: C_4  and  C_17
REMARK    2  A    between atoms: C_7  and  C_14
REMARK    3  A    between atoms: C_20  and  N_24
REMARK    4  A    between atoms: C_25  and  C_28
REMARK                            x       y       z     vdW  Elec       q    Type
REMARK                         _______ _______ _______ _____ _____    ______ ____
ROOT
ATOM      1  N   UNL     1      34.537 -25.082 -12.576  0.00  0.00    -0.276 N 
ATOM      2  N   UNL     1      35.635 -24.637 -13.209  0.00  0.00    -0.173 NA
ATOM      3  C   UNL     1      33.745 -24.207 -14.424  0.00  0.00    +0.036 A 
ATOM      4  C   UNL     1      35.150 -24.106 -14.332  0.00  0.00    +0.102 A 
ATOM      5  C   UNL     1      33.369 -24.854 -13.253  0.00  0.00    +0.075 A 
ATOM      6  C   UNL     1      32.758 -23.831 -15.351  0.00  0.00    +0.006 C 
ATOM      7  C   UNL     1      31.420 -24.124 -15.058  0.00  0.00    +0.033 C 
ATOM      8  C   UNL     1      32.041 -25.156 -12.942  0.00  0.00    +0.019 C 
ATOM      9  C   UNL     1      31.070 -24.776 -13.874  0.00  0.00    +0.004 C 
ATOM     10  H   UNL     1      34.569 -25.531 -11.701  0.00  0.00    +0.189 HD
ENDROOT
BRANCH   7  14
ATOM     11  N   UNL     1      30.464 -22.634 -16.773  0.00  0.00    -0.218 N 
ATOM     12  N   UNL     1      29.267 -24.384 -16.242  0.00  0.00    -0.206 NA
ATOM     13  N   UNL     1      29.381 -22.513 -17.555  0.00  0.00    -0.157 NA
ATOM     14  C   UNL     1      30.390 -23.748 -15.996  0.00  0.00    +0.149 C 
ATOM     15  C   UNL     1      28.688 -23.597 -17.196  0.00  0.00    +0.218 C 
ATOM     16  H   UNL     1      31.216 -21.999 -16.764  0.00  0.00    +0.176 HD
ENDBRANCH   7  14
BRANCH   4  17
ATOM     17  C   UNL     1      36.042 -23.510 -15.294  0.00  0.00    +0.021 C 
ATOM     18  C   UNL     1      35.525 -22.817 -16.390  0.00  0.00    +0.016 C 
ATOM     19  C   UNL     1      37.422 -23.624 -15.130  0.00  0.00    +0.002 C 
ATOM     20  C   UNL     1      36.389 -22.240 -17.320  0.00  0.00    +0.051 C 
ATOM     21  C   UNL     1      38.286 -23.047 -16.061  0.00  0.00    +0.001 C 
ATOM     22  C   UNL     1      37.770 -22.355 -17.156  0.00  0.00    +0.015 C 
BRANCH  20  24
ATOM     23  O   UNL     1      34.728 -23.210 -19.575  0.00  0.00    -0.266 OA
ATOM     24  N   UNL     1      35.874 -21.546 -18.416  0.00  0.00    -0.278 N 
ATOM     25  C   UNL     1      35.084 -22.038 -19.474  0.00  0.00    +0.284 C 
ATOM     26  H   UNL     1      36.089 -20.586 -18.452  0.00  0.00    +0.155 HD
BRANCH  25  28
ATOM     27  O   UNL     1      35.746 -20.484 -21.215  0.00  0.00    -0.446 OA
ATOM     28  C   UNL     1      34.733 -21.048 -20.506  0.00  0.00    +0.199 C 
ATOM     29  C   UNL     1      33.519 -20.552 -20.919  0.00  0.00    +0.045 C 
ATOM     30  C   UNL     1      33.803 -19.623 -21.949  0.00  0.00    +0.044 C 
ATOM     31  C   UNL     1      35.172 -19.619 -22.092  0.00  0.00    +0.180 C 
ENDBRANCH  25  28
ENDBRANCH  20  24
ENDBRANCH   4  17
TORSDOF 4
ENDMDL
MODEL 8
REMARK VINA RESULT:      -9.6      8.494     14.481
REMARK  Name = 22479942
REMARK  4 active torsions:
REMARK  status: ('A' for Active; 'I' for Inactive)
REMARK    1  A    between atoms: C_4  and  C_17
REMARK    2  A    between atoms: C_7  and  C_14
REMARK    3  A    between atoms: C_20  and  N_24
REMARK    4  A    between atoms: C_25  and  C_28
REMARK                            x       y       z     vdW  Elec       q    Type
REMARK                         _______ _______ _______ _____ _____    ______ ____
ROOT
ATOM      1  N   UNL     1      31.970 -10.392 -20.784  0.00  0.00    -0.276 N 
ATOM      2  N   UNL     1      32.346 -11.470 -21.491  0.00  0.00    -0.173 NA
ATOM      3  C   UNL     1      32.763  -9.537 -22.641  0.00  0.00    +0.036 A 
ATOM      4  C   UNL     1      32.828 -10.946 -22.620  0.00  0.00    +0.102 A 
ATOM      5  C   UNL     1      32.194  -9.199 -21.419  0.00  0.00    +0.075 A 
ATOM      6  C   UNL     1      33.116  -8.517 -23.542  0.00  0.00    +0.006 C 
ATOM      7  C   UNL     1      32.879  -7.187 -23.171  0.00  0.00    +0.033 C 
ATOM      8  C   UNL     1      31.949  -7.880 -21.030  0.00  0.00    +0.019 C 
ATOM      9  C   UNL     1      32.305  -6.877 -21.937  0.00  0.00    +0.004 C 
ATOM     10  H   UNL     1      31.570 -10.453 -19.887  0.00  0.00    +0.189 HD
ENDROOT
BRANCH   7  14
ATOM     11  N   UNL     1      34.444  -6.042 -24.693  0.00  0.00    -0.218 N 
ATOM     12  N   UNL     1      32.482  -5.110 -24.450  0.00  0.00    -0.206 NA
ATOM     13  N   UNL     1      34.517  -4.962 -25.485  0.00  0.00    -0.157 NA
ATOM     14  C   UNL     1      33.232  -6.124 -24.081  0.00  0.00    +0.149 C 
ATOM     15  C   UNL     1      33.305  -4.432 -25.303  0.00  0.00    +0.218 C 
ATOM     16  H   UNL     1      35.174  -6.693 -24.571  0.00  0.00    +0.176 HD
ENDBRANCH   7  14
BRANCH   4  17
ATOM     17  C   UNL     1      33.343 -11.808 -23.654  0.00  0.00    +0.021 C 
ATOM     18  C   UNL     1      33.669 -13.133 -23.360  0.00  0.00    +0.016 C 
ATOM     19  C   UNL     1      33.513 -11.319 -24.948  0.00  0.00    +0.002 C 
ATOM     20  C   UNL     1      34.167 -13.966 -24.361  0.00  0.00    +0.051 C 
ATOM     21  C   UNL     1      34.012 -12.153 -25.950  0.00  0.00    +0.001 C 
ATOM     22  C   UNL     1      34.338 -13.476 -25.657  0.00  0.00    +0.015 C 
BRANCH  20  24
ATOM     23  O   UNL     1      34.696 -16.240 -26.187  0.00  0.00    -0.266 OA
ATOM     24  N   UNL     1      34.493 -15.291 -24.069  0.00  0.00    -0.278 N 
ATOM     25  C   UNL     1      34.739 -16.352 -24.964  0.00  0.00    +0.284 C 
ATOM     26  H   UNL     1      34.560 -15.513 -23.112  0.00  0.00    +0.155 HD
BRANCH  25  28
ATOM     27  O   UNL     1      35.779 -17.658 -23.204  0.00  0.00    -0.446 OA
ATOM     28  C   UNL     1      35.021 -17.651 -24.331  0.00  0.00    +0.199 C 
ATOM     29  C   UNL     1      34.648 -18.931 -24.670  0.00  0.00    +0.045 C 
ATOM     30  C   UNL     1      35.214 -19.779 -23.688  0.00  0.00    +0.044 C 
ATOM     31  C   UNL     1      35.893 -18.956 -22.819  0.00  0.00    +0.180 C 
ENDBRANCH  25  28
ENDBRANCH  20  24
ENDBRANCH   4  17
TORSDOF 4
ENDMDL
MODEL 9
REMARK VINA RESULT:      -9.5      9.350     13.185
REMARK  Name = 22479942
REMARK  4 active torsions:
REMARK  status: ('A' for Active; 'I' for Inactive)
REMARK    1  A    between atoms: C_4  and  C_17
REMARK    2  A    between atoms: C_7  and  C_14
REMARK    3  A    between atoms: C_20  and  N_24
REMARK    4  A    between atoms: C_25  and  C_28
REMARK                            x       y       z     vdW  Elec       q    Type
REMARK                         _______ _______ _______ _____ _____    ______ ____
ROOT
ATOM      1  N   UNL     1      34.534 -15.506 -20.623  0.00  0.00    -0.276 N 
ATOM      2  N   UNL     1      33.897 -14.570 -19.898  0.00  0.00    -0.173 NA
ATOM      3  C   UNL     1      33.796 -14.099 -22.135  0.00  0.00    +0.036 A 
ATOM      4  C   UNL     1      33.450 -13.717 -20.822  0.00  0.00    +0.102 A 
ATOM      5  C   UNL     1      34.511 -15.281 -21.973  0.00  0.00    +0.075 A 
ATOM      6  C   UNL     1      33.593 -13.590 -23.429  0.00  0.00    +0.006 C 
ATOM      7  C   UNL     1      34.120 -14.298 -24.517  0.00  0.00    +0.033 C 
ATOM      8  C   UNL     1      35.045 -16.002 -23.044  0.00  0.00    +0.019 C 
ATOM      9  C   UNL     1      34.834 -15.482 -24.325  0.00  0.00    +0.004 C 
ATOM     10  H   UNL     1      34.979 -16.284 -20.218  0.00  0.00    +0.189 HD
ENDROOT
BRANCH   7  14
ATOM     11  N   UNL     1      33.817 -14.598 -26.944  0.00  0.00    -0.218 N 
ATOM     12  N   UNL     1      33.822 -12.535 -26.223  0.00  0.00    -0.206 NA
ATOM     13  N   UNL     1      33.641 -13.881 -28.064  0.00  0.00    -0.157 NA
ATOM     14  C   UNL     1      33.924 -13.792 -25.854  0.00  0.00    +0.149 C 
ATOM     15  C   UNL     1      33.651 -12.639 -27.573  0.00  0.00    +0.218 C 
ATOM     16  H   UNL     1      33.862 -15.581 -26.916  0.00  0.00    +0.176 HD
ENDBRANCH   7  14
BRANCH   4  17
ATOM     17  C   UNL     1      32.697 -12.553 -20.426  0.00  0.00    +0.021 C 
ATOM     18  C   UNL     1      32.732 -11.400 -21.211  0.00  0.00    +0.016 C 
ATOM     19  C   UNL     1      31.934 -12.580 -19.260  0.00  0.00    +0.002 C 
ATOM     20  C   UNL     1      32.004 -10.274 -20.829  0.00  0.00    +0.051 C 
ATOM     21  C   UNL     1      31.205 -11.453 -18.877  0.00  0.00    +0.001 C 
ATOM     22  C   UNL     1      31.240 -10.300 -19.661  0.00  0.00    +0.015 C 
BRANCH  20  24
ATOM     23  O   UNL     1      33.388  -7.695 -20.360  0.00  0.00    -0.266 OA
ATOM     24  N   UNL     1      32.037  -9.120 -21.613  0.00  0.00    -0.278 N 
ATOM     25  C   UNL     1      32.707  -7.907 -21.361  0.00  0.00    +0.284 C 
ATOM     26  H   UNL     1      31.525  -9.161 -22.453  0.00  0.00    +0.155 HD
BRANCH  25  28
ATOM     27  O   UNL     1      31.240  -6.420 -22.595  0.00  0.00    -0.446 OA
ATOM     28  C   UNL     1      32.507  -6.859 -22.376  0.00  0.00    +0.199 C 
ATOM     29  C   UNL     1      33.395  -6.198 -23.193  0.00  0.00    +0.045 C 
ATOM     30  C   UNL     1      32.624  -5.295 -23.963  0.00  0.00    +0.044 C 
ATOM     31  C   UNL     1      31.319  -5.468 -23.561  0.00  0.00    +0.180 C 
ENDBRANCH  25  28
ENDBRANCH  20  24
ENDBRANCH   4  17
TORSDOF 4
ENDMDL
