MODEL 1
REMARK VINA RESULT:     -11.3      0.000      0.000
REMARK  Name = 6918248
REMARK  5 active torsions:
REMARK  status: ('A' for Active; 'I' for Inactive)
REMARK    1  A    between atoms: N_1  and  C_18
REMARK    2  A    between atoms: N_2  and  C_8
REMARK    3  A    between atoms: C_11  and  C_17
REMARK    4  A    between atoms: C_18  and  C_19
REMARK    5  A    between atoms: C_19  and  N_21
REMARK                            x       y       z     vdW  Elec       q    Type
REMARK                         _______ _______ _______ _____ _____    ______ ____
ROOT
ATOM      1  N   UNL     1      33.010 -12.713 -23.345  0.00  0.00    +0.391 N 
ATOM      2  N   UNL     1      32.977  -9.892 -22.894  0.00  0.00    -0.312 N 
ATOM      3  C   UNL     1      32.478 -12.169 -22.090  0.00  0.00    -0.055 C 
ATOM      4  C   UNL     1      34.111 -11.870 -23.828  0.00  0.00    -0.055 C 
ATOM      5  C   UNL     1      31.947 -10.747 -22.290  0.00  0.00    +0.068 C 
ATOM      6  C   UNL     1      33.634 -10.438 -24.085  0.00  0.00    +0.068 C 
ATOM      7  H   UNL     1      32.267 -12.716 -24.045  0.00  0.00    -0.079 HD
ENDROOT
BRANCH   2   8
ATOM      8  C   UNL     1      32.854  -8.507 -22.741  0.00  0.00    +0.048 C 
ATOM      9  C   UNL     1      33.200  -7.628 -23.786  0.00  0.00    +0.018 C 
ATOM     10  C   UNL     1      32.378  -7.949 -21.538  0.00  0.00    +0.015 C 
ATOM     11  C   UNL     1      33.076  -6.247 -23.634  0.00  0.00    +0.073 C 
ATOM     12  C   UNL     1      32.253  -6.568 -21.385  0.00  0.00    +0.001 C 
ATOM     13  C   UNL     1      32.603  -5.717 -22.433  0.00  0.00    +0.004 C 
BRANCH  11  17
ATOM     14  F   UNL     1      32.950  -5.722 -25.964  0.00  0.00    -0.166 F 
ATOM     15  F   UNL     1      33.017  -4.052 -24.582  0.00  0.00    -0.166 F 
ATOM     16  F   UNL     1      34.801  -5.246 -24.929  0.00  0.00    -0.166 F 
ATOM     17  C   UNL     1      33.451  -5.336 -24.754  0.00  0.00    +0.419 C 
ENDBRANCH  11  17
ENDBRANCH   2   8
BRANCH   1  18
ATOM     18  C   UNL     1      33.464 -14.091 -23.155  0.00  0.00    -0.052 C 
BRANCH  18  19
ATOM     19  C   UNL     1      34.647 -14.387 -24.063  0.00  0.00    +0.088 C 
BRANCH  19  21
ATOM     20  O   UNL     1      33.882 -15.686 -26.679  0.00  0.00    -0.247 OA
ATOM     21  N   UNL     1      34.680 -15.775 -24.439  0.00  0.00    -0.282 N 
ATOM     22  N   UNL     1      34.495 -17.708 -25.619  0.00  0.00    -0.305 N 
ATOM     23  C   UNL     1      35.096 -16.835 -23.617  0.00  0.00    +0.079 A 
ATOM     24  C   UNL     1      34.297 -16.301 -25.707  0.00  0.00    +0.328 A 
ATOM     25  C   UNL     1      34.979 -18.016 -24.346  0.00  0.00    +0.076 A 
ATOM     26  C   UNL     1      35.553 -16.834 -22.315  0.00  0.00    +0.019 C 
ATOM     27  C   UNL     1      35.310 -19.246 -23.821  0.00  0.00    +0.019 C 
ATOM     28  C   UNL     1      35.896 -18.071 -21.759  0.00  0.00    +0.002 C 
ATOM     29  C   UNL     1      35.776 -19.263 -22.503  0.00  0.00    +0.002 C 
ATOM     30  H   UNL     1      34.319 -18.357 -26.337  0.00  0.00    +0.170 HD
ENDBRANCH  19  21
ENDBRANCH  18  19
ENDBRANCH   1  18
TORSDOF 5
ENDMDL
MODEL 2
REMARK VINA RESULT:     -10.9      7.242     11.427
REMARK  Name = 6918248
REMARK  5 active torsions:
REMARK  status: ('A' for Active; 'I' for Inactive)
REMARK    1  A    between atoms: N_1  and  C_18
REMARK    2  A    between atoms: N_2  and  C_8
REMARK    3  A    between atoms: C_11  and  C_17
REMARK    4  A    between atoms: C_18  and  C_19
REMARK    5  A    between atoms: C_19  and  N_21
REMARK                            x       y       z     vdW  Elec       q    Type
REMARK                         _______ _______ _______ _____ _____    ______ ____
ROOT
ATOM      1  N   UNL     1      35.026 -18.387 -23.365  0.00  0.00    +0.391 N 
ATOM      2  N   UNL     1      35.533 -20.132 -21.161  0.00  0.00    -0.312 N 
ATOM      3  C   UNL     1      34.205 -19.587 -23.165  0.00  0.00    -0.055 C 
ATOM      4  C   UNL     1      36.402 -18.643 -22.920  0.00  0.00    -0.055 C 
ATOM      5  C   UNL     1      34.170 -19.988 -21.689  0.00  0.00    +0.068 C 
ATOM      6  C   UNL     1      36.439 -19.013 -21.436  0.00  0.00    +0.068 C 
ATOM      7  H   UNL     1      34.638 -17.625 -22.809  0.00  0.00    -0.079 HD
ENDROOT
BRANCH   2   8
ATOM      8  C   UNL     1      35.713 -20.906 -20.009  0.00  0.00    +0.048 C 
ATOM      9  C   UNL     1      34.664 -21.691 -19.490  0.00  0.00    +0.018 C 
ATOM     10  C   UNL     1      36.950 -20.924 -19.334  0.00  0.00    +0.015 C 
ATOM     11  C   UNL     1      34.845 -22.463 -18.343  0.00  0.00    +0.073 C 
ATOM     12  C   UNL     1      37.131 -21.697 -18.187  0.00  0.00    +0.001 C 
ATOM     13  C   UNL     1      36.078 -22.466 -17.690  0.00  0.00    +0.004 C 
BRANCH  11  17
ATOM     14  F   UNL     1      33.481 -24.419 -18.534  0.00  0.00    -0.166 F 
ATOM     15  F   UNL     1      33.914 -23.714 -16.530  0.00  0.00    -0.166 F 
ATOM     16  F   UNL     1      32.536 -22.606 -17.795  0.00  0.00    -0.166 F 
ATOM     17  C   UNL     1      33.720 -23.285 -17.812  0.00  0.00    +0.419 C 
ENDBRANCH  11  17
ENDBRANCH   2   8
BRANCH   1  18
ATOM     18  C   UNL     1      35.009 -17.981 -24.770  0.00  0.00    -0.052 C 
BRANCH  18  19
ATOM     19  C   UNL     1      35.617 -16.596 -24.929  0.00  0.00    +0.088 C 
BRANCH  19  21
ATOM     20  O   UNL     1      33.790 -15.381 -27.001  0.00  0.00    -0.247 OA
ATOM     21  N   UNL     1      34.622 -15.570 -24.780  0.00  0.00    -0.282 N 
ATOM     22  N   UNL     1      32.975 -14.065 -25.214  0.00  0.00    -0.305 N 
ATOM     23  C   UNL     1      34.300 -14.910 -23.582  0.00  0.00    +0.079 A 
ATOM     24  C   UNL     1      33.799 -15.054 -25.823  0.00  0.00    +0.328 A 
ATOM     25  C   UNL     1      33.291 -13.989 -23.856  0.00  0.00    +0.076 A 
ATOM     26  C   UNL     1      34.816 -15.057 -22.311  0.00  0.00    +0.019 C 
ATOM     27  C   UNL     1      32.748 -13.176 -22.886  0.00  0.00    +0.019 C 
ATOM     28  C   UNL     1      34.281 -14.242 -21.308  0.00  0.00    +0.002 C 
ATOM     29  C   UNL     1      33.259 -13.312 -21.592  0.00  0.00    +0.002 C 
ATOM     30  H   UNL     1      32.294 -13.523 -25.675  0.00  0.00    +0.170 HD
ENDBRANCH  19  21
ENDBRANCH  18  19
ENDBRANCH   1  18
TORSDOF 5
ENDMDL
MODEL 3
REMARK VINA RESULT:     -10.8      5.156      9.456
REMARK  Name = 6918248
REMARK  5 active torsions:
REMARK  status: ('A' for Active; 'I' for Inactive)
REMARK    1  A    between atoms: N_1  and  C_18
REMARK    2  A    between atoms: N_2  and  C_8
REMARK    3  A    between atoms: C_11  and  C_17
REMARK    4  A    between atoms: C_18  and  C_19
REMARK    5  A    between atoms: C_19  and  N_21
REMARK                            x       y       z     vdW  Elec       q    Type
REMARK                         _______ _______ _______ _____ _____    ______ ____
ROOT
ATOM      1  N   UNL     1      33.745 -11.574 -24.258  0.00  0.00    +0.391 N 
ATOM      2  N   UNL     1      34.371 -14.356 -24.428  0.00  0.00    -0.312 N 
ATOM      3  C   UNL     1      34.183 -12.160 -25.531  0.00  0.00    -0.055 C 
ATOM      4  C   UNL     1      34.408 -12.257 -23.140  0.00  0.00    -0.055 C 
ATOM      5  C   UNL     1      33.836 -13.649 -25.598  0.00  0.00    +0.068 C 
ATOM      6  C   UNL     1      34.068 -13.749 -23.128  0.00  0.00    +0.068 C 
ATOM      7  H   UNL     1      32.736 -11.699 -24.168  0.00  0.00    -0.079 HD
ENDROOT
BRANCH   2   8
ATOM      8  C   UNL     1      34.553 -15.740 -24.523  0.00  0.00    +0.048 C 
ATOM      9  C   UNL     1      35.293 -16.444 -23.552  0.00  0.00    +0.018 C 
ATOM     10  C   UNL     1      33.999 -16.473 -25.592  0.00  0.00    +0.015 C 
ATOM     11  C   UNL     1      35.473 -17.824 -23.647  0.00  0.00    +0.073 C 
ATOM     12  C   UNL     1      34.178 -17.853 -25.686  0.00  0.00    +0.001 C 
ATOM     13  C   UNL     1      34.916 -18.529 -24.714  0.00  0.00    +0.004 C 
BRANCH  11  17
ATOM     14  F   UNL     1      37.564 -18.759 -22.960  0.00  0.00    -0.166 F 
ATOM     15  F   UNL     1      36.318 -17.892 -21.411  0.00  0.00    -0.166 F 
ATOM     16  F   UNL     1      35.753 -19.781 -22.327  0.00  0.00    -0.166 F 
ATOM     17  C   UNL     1      36.262 -18.546 -22.608  0.00  0.00    +0.419 C 
ENDBRANCH  11  17
ENDBRANCH   2   8
BRANCH   1  18
ATOM     18  C   UNL     1      34.032 -10.140 -24.228  0.00  0.00    -0.052 C 
BRANCH  18  19
ATOM     19  C   UNL     1      32.779  -9.357 -23.870  0.00  0.00    +0.088 C 
BRANCH  19  21
ATOM     20  O   UNL     1      33.974  -7.058 -22.322  0.00  0.00    -0.247 OA
ATOM     21  N   UNL     1      32.724  -9.077 -22.461  0.00  0.00    -0.282 N 
ATOM     22  N   UNL     1      33.009  -8.096 -20.430  0.00  0.00    -0.305 N 
ATOM     23  C   UNL     1      32.071  -9.862 -21.496  0.00  0.00    +0.079 A 
ATOM     24  C   UNL     1      33.323  -7.958 -21.813  0.00  0.00    +0.328 A 
ATOM     25  C   UNL     1      32.250  -9.255 -20.255  0.00  0.00    +0.076 A 
ATOM     26  C   UNL     1      31.354 -11.033 -21.629  0.00  0.00    +0.019 C 
ATOM     27  C   UNL     1      31.729  -9.779 -19.093  0.00  0.00    +0.019 C 
ATOM     28  C   UNL     1      30.814 -11.585 -20.462  0.00  0.00    +0.002 C 
ATOM     29  C   UNL     1      30.999 -10.966 -19.209  0.00  0.00    +0.002 C 
ATOM     30  H   UNL     1      33.283  -7.477 -19.716  0.00  0.00    +0.170 HD
ENDBRANCH  19  21
ENDBRANCH  18  19
ENDBRANCH   1  18
TORSDOF 5
ENDMDL
MODEL 4
REMARK VINA RESULT:     -10.8      3.987      5.806
REMARK  Name = 6918248
REMARK  5 active torsions:
REMARK  status: ('A' for Active; 'I' for Inactive)
REMARK    1  A    between atoms: N_1  and  C_18
REMARK    2  A    between atoms: N_2  and  C_8
REMARK    3  A    between atoms: C_11  and  C_17
REMARK    4  A    between atoms: C_18  and  C_19
REMARK    5  A    between atoms: C_19  and  N_21
REMARK                            x       y       z     vdW  Elec       q    Type
REMARK                         _______ _______ _______ _____ _____    ______ ____
ROOT
ATOM      1  N   UNL     1      35.697 -16.676 -23.377  0.00  0.00    +0.391 N 
ATOM      2  N   UNL     1      34.191 -14.274 -23.020  0.00  0.00    -0.312 N 
ATOM      3  C   UNL     1      34.846 -16.166 -24.459  0.00  0.00    -0.055 C 
ATOM      4  C   UNL     1      35.091 -16.364 -22.076  0.00  0.00    -0.055 C 
ATOM      5  C   UNL     1      34.677 -14.649 -24.355  0.00  0.00    +0.068 C 
ATOM      6  C   UNL     1      34.929 -14.854 -21.893  0.00  0.00    +0.068 C 
ATOM      7  H   UNL     1      36.609 -16.222 -23.432  0.00  0.00    -0.079 HD
ENDROOT
BRANCH   2   8
ATOM      8  C   UNL     1      33.561 -13.034 -22.874  0.00  0.00    +0.048 C 
ATOM      9  C   UNL     1      32.704 -12.779 -21.785  0.00  0.00    +0.018 C 
ATOM     10  C   UNL     1      33.764 -12.002 -23.812  0.00  0.00    +0.015 C 
ATOM     11  C   UNL     1      32.076 -11.542 -21.640  0.00  0.00    +0.073 C 
ATOM     12  C   UNL     1      33.137 -10.764 -23.666  0.00  0.00    +0.001 C 
ATOM     13  C   UNL     1      32.292 -10.534 -22.581  0.00  0.00    +0.004 C 
BRANCH  11  17
ATOM     14  F   UNL     1      31.220 -10.013 -20.011  0.00  0.00    -0.166 F 
ATOM     15  F   UNL     1      29.855 -11.526 -20.754  0.00  0.00    -0.166 F 
ATOM     16  F   UNL     1      31.466 -12.088 -19.408  0.00  0.00    -0.166 F 
ATOM     17  C   UNL     1      31.173 -11.295 -20.480  0.00  0.00    +0.419 C 
ENDBRANCH  11  17
ENDBRANCH   2   8
BRANCH   1  18
ATOM     18  C   UNL     1      35.896 -18.118 -23.517  0.00  0.00    -0.052 C 
BRANCH  18  19
ATOM     19  C   UNL     1      34.927 -18.876 -22.623  0.00  0.00    +0.088 C 
BRANCH  19  21
ATOM     20  O   UNL     1      37.831 -18.729 -21.812  0.00  0.00    -0.247 OA
ATOM     21  N   UNL     1      35.624 -19.589 -21.587  0.00  0.00    -0.282 N 
ATOM     22  N   UNL     1      37.248 -20.347 -20.189  0.00  0.00    -0.305 N 
ATOM     23  C   UNL     1      35.053 -20.533 -20.717  0.00  0.00    +0.079 A 
ATOM     24  C   UNL     1      37.008 -19.455 -21.273  0.00  0.00    +0.328 A 
ATOM     25  C   UNL     1      36.054 -20.993 -19.864  0.00  0.00    +0.076 A 
ATOM     26  C   UNL     1      33.758 -21.000 -20.627  0.00  0.00    +0.019 C 
ATOM     27  C   UNL     1      35.817 -21.933 -18.886  0.00  0.00    +0.019 C 
ATOM     28  C   UNL     1      33.493 -21.956 -19.640  0.00  0.00    +0.002 C 
ATOM     29  C   UNL     1      34.511 -22.417 -18.780  0.00  0.00    +0.002 C 
ATOM     30  H   UNL     1      38.114 -20.485 -19.743  0.00  0.00    +0.170 HD
ENDBRANCH  19  21
ENDBRANCH  18  19
ENDBRANCH   1  18
TORSDOF 5
ENDMDL
MODEL 5
REMARK VINA RESULT:     -10.8      1.389      1.862
REMARK  Name = 6918248
REMARK  5 active torsions:
REMARK  status: ('A' for Active; 'I' for Inactive)
REMARK    1  A    between atoms: N_1  and  C_18
REMARK    2  A    between atoms: N_2  and  C_8
REMARK    3  A    between atoms: C_11  and  C_17
REMARK    4  A    between atoms: C_18  and  C_19
REMARK    5  A    between atoms: C_19  and  N_21
REMARK                            x       y       z     vdW  Elec       q    Type
REMARK                         _______ _______ _______ _____ _____    ______ ____
ROOT
ATOM      1  N   UNL     1      33.220 -12.810 -23.560  0.00  0.00    +0.391 N 
ATOM      2  N   UNL     1      33.423  -9.961 -23.467  0.00  0.00    -0.312 N 
ATOM      3  C   UNL     1      32.771 -12.071 -22.373  0.00  0.00    -0.055 C 
ATOM      4  C   UNL     1      34.369 -12.125 -24.168  0.00  0.00    -0.055 C 
ATOM      5  C   UNL     1      32.347 -10.647 -22.740  0.00  0.00    +0.068 C 
ATOM      6  C   UNL     1      33.998 -10.703 -24.593  0.00  0.00    +0.068 C 
ATOM      7  H   UNL     1      32.458 -12.839 -24.238  0.00  0.00    -0.079 HD
ENDROOT
BRANCH   2   8
ATOM      8  C   UNL     1      33.414  -8.562 -23.488  0.00  0.00    +0.048 C 
ATOM      9  C   UNL     1      32.310  -7.836 -22.999  0.00  0.00    +0.018 C 
ATOM     10  C   UNL     1      34.509  -7.837 -23.999  0.00  0.00    +0.015 C 
ATOM     11  C   UNL     1      32.301  -6.441 -23.020  0.00  0.00    +0.073 C 
ATOM     12  C   UNL     1      34.501  -6.442 -24.019  0.00  0.00    +0.001 C 
ATOM     13  C   UNL     1      33.397  -5.744 -23.530  0.00  0.00    +0.004 C 
BRANCH  11  17
ATOM     14  F   UNL     1      29.930  -6.322 -22.729  0.00  0.00    -0.166 F 
ATOM     15  F   UNL     1      31.158  -5.488 -21.148  0.00  0.00    -0.166 F 
ATOM     16  F   UNL     1      30.996  -4.455 -23.054  0.00  0.00    -0.166 F 
ATOM     17  C   UNL     1      31.121  -5.695 -22.498  0.00  0.00    +0.419 C 
ENDBRANCH  11  17
ENDBRANCH   2   8
BRANCH   1  18
ATOM     18  C   UNL     1      33.570 -14.185 -23.206  0.00  0.00    -0.052 C 
BRANCH  18  19
ATOM     19  C   UNL     1      34.842 -14.608 -23.925  0.00  0.00    +0.088 C 
BRANCH  19  21
ATOM     20  O   UNL     1      33.950 -15.759 -26.569  0.00  0.00    -0.247 OA
ATOM     21  N   UNL     1      34.771 -15.980 -24.346  0.00  0.00    -0.282 N 
ATOM     22  N   UNL     1      34.431 -17.855 -25.586  0.00  0.00    -0.305 N 
ATOM     23  C   UNL     1      35.120 -17.095 -23.566  0.00  0.00    +0.079 A 
ATOM     24  C   UNL     1      34.333 -16.435 -25.624  0.00  0.00    +0.328 A 
ATOM     25  C   UNL     1      34.909 -18.240 -24.332  0.00  0.00    +0.076 A 
ATOM     26  C   UNL     1      35.594 -17.171 -22.272  0.00  0.00    +0.019 C 
ATOM     27  C   UNL     1      35.158 -19.507 -23.852  0.00  0.00    +0.019 C 
ATOM     28  C   UNL     1      35.855 -18.447 -21.763  0.00  0.00    +0.002 C 
ATOM     29  C   UNL     1      35.639 -19.602 -22.544  0.00  0.00    +0.002 C 
ATOM     30  H   UNL     1      34.199 -18.465 -26.322  0.00  0.00    +0.170 HD
ENDBRANCH  19  21
ENDBRANCH  18  19
ENDBRANCH   1  18
TORSDOF 5
ENDMDL
MODEL 6
REMARK VINA RESULT:     -10.7      9.583     12.948
REMARK  Name = 6918248
REMARK  5 active torsions:
REMARK  status: ('A' for Active; 'I' for Inactive)
REMARK    1  A    between atoms: N_1  and  C_18
REMARK    2  A    between atoms: N_2  and  C_8
REMARK    3  A    between atoms: C_11  and  C_17
REMARK    4  A    between atoms: C_18  and  C_19
REMARK    5  A    between atoms: C_19  and  N_21
REMARK                            x       y       z     vdW  Elec       q    Type
REMARK                         _______ _______ _______ _____ _____    ______ ____
ROOT
ATOM      1  N   UNL     1      34.970 -23.075 -17.757  0.00  0.00    +0.391 N 
ATOM      2  N   UNL     1      35.658 -21.147 -19.751  0.00  0.00    -0.312 N 
ATOM      3  C   UNL     1      33.923 -22.437 -18.566  0.00  0.00    -0.055 C 
ATOM      4  C   UNL     1      36.070 -22.129 -17.530  0.00  0.00    -0.055 C 
ATOM      5  C   UNL     1      34.471 -21.996 -19.925  0.00  0.00    +0.068 C 
ATOM      6  C   UNL     1      36.689 -21.677 -18.855  0.00  0.00    +0.068 C 
ATOM      7  H   UNL     1      35.331 -23.884 -18.264  0.00  0.00    -0.079 HD
ENDROOT
BRANCH   2   8
ATOM      8  C   UNL     1      36.020 -20.302 -20.805  0.00  0.00    +0.048 C 
ATOM      9  C   UNL     1      35.246 -20.233 -21.981  0.00  0.00    +0.018 C 
ATOM     10  C   UNL     1      37.170 -19.491 -20.722  0.00  0.00    +0.015 C 
ATOM     11  C   UNL     1      35.608 -19.389 -23.031  0.00  0.00    +0.073 C 
ATOM     12  C   UNL     1      37.531 -18.646 -21.772  0.00  0.00    +0.001 C 
ATOM     13  C   UNL     1      36.751 -18.596 -22.927  0.00  0.00    +0.004 C 
BRANCH  11  17
ATOM     14  F   UNL     1      33.436 -19.478 -24.029  0.00  0.00    -0.166 F 
ATOM     15  F   UNL     1      34.891 -18.161 -24.953  0.00  0.00    -0.166 F 
ATOM     16  F   UNL     1      35.095 -20.315 -25.159  0.00  0.00    -0.166 F 
ATOM     17  C   UNL     1      34.774 -19.335 -24.265  0.00  0.00    +0.419 C 
ENDBRANCH  11  17
ENDBRANCH   2   8
BRANCH   1  18
ATOM     18  C   UNL     1      34.422 -23.541 -16.484  0.00  0.00    -0.052 C 
BRANCH  18  19
ATOM     19  C   UNL     1      35.140 -22.870 -15.323  0.00  0.00    +0.088 C 
BRANCH  19  21
ATOM     20  O   UNL     1      33.678 -24.076 -12.973  0.00  0.00    -0.247 OA
ATOM     21  N   UNL     1      35.595 -23.839 -14.363  0.00  0.00    -0.282 N 
ATOM     22  N   UNL     1      35.682 -25.276 -12.603  0.00  0.00    -0.305 N 
ATOM     23  C   UNL     1      36.868 -24.433 -14.340  0.00  0.00    +0.079 A 
ATOM     24  C   UNL     1      34.829 -24.355 -13.277  0.00  0.00    +0.328 A 
ATOM     25  C   UNL     1      36.913 -25.311 -13.260  0.00  0.00    +0.076 A 
ATOM     26  C   UNL     1      37.952 -24.260 -15.175  0.00  0.00    +0.019 C 
ATOM     27  C   UNL     1      38.032 -26.057 -12.959  0.00  0.00    +0.019 C 
ATOM     28  C   UNL     1      39.101 -25.006 -14.890  0.00  0.00    +0.002 C 
ATOM     29  C   UNL     1      39.140 -25.894 -13.795  0.00  0.00    +0.002 C 
ATOM     30  H   UNL     1      35.442 -25.800 -11.806  0.00  0.00    +0.170 HD
ENDBRANCH  19  21
ENDBRANCH  18  19
ENDBRANCH   1  18
TORSDOF 5
ENDMDL
MODEL 7
REMARK VINA RESULT:     -10.5      3.067      4.845
REMARK  Name = 6918248
REMARK  5 active torsions:
REMARK  status: ('A' for Active; 'I' for Inactive)
REMARK    1  A    between atoms: N_1  and  C_18
REMARK    2  A    between atoms: N_2  and  C_8
REMARK    3  A    between atoms: C_11  and  C_17
REMARK    4  A    between atoms: C_18  and  C_19
REMARK    5  A    between atoms: C_19  and  N_21
REMARK                            x       y       z     vdW  Elec       q    Type
REMARK                         _______ _______ _______ _____ _____    ______ ____
ROOT
ATOM      1  N   UNL     1      35.543 -16.090 -23.115  0.00  0.00    +0.391 N 
ATOM      2  N   UNL     1      33.738 -14.026 -22.313  0.00  0.00    -0.312 N 
ATOM      3  C   UNL     1      34.552 -15.562 -24.061  0.00  0.00    -0.055 C 
ATOM      4  C   UNL     1      34.993 -16.070 -21.753  0.00  0.00    -0.055 C 
ATOM      5  C   UNL     1      34.174 -14.120 -23.712  0.00  0.00    +0.068 C 
ATOM      6  C   UNL     1      34.630 -14.646 -21.328  0.00  0.00    +0.068 C 
ATOM      7  H   UNL     1      36.374 -15.498 -23.143  0.00  0.00    -0.079 HD
ENDROOT
BRANCH   2   8
ATOM      8  C   UNL     1      32.948 -12.932 -21.943  0.00  0.00    +0.048 C 
ATOM      9  C   UNL     1      32.982 -11.730 -22.678  0.00  0.00    +0.018 C 
ATOM     10  C   UNL     1      32.093 -12.999 -20.824  0.00  0.00    +0.015 C 
ATOM     11  C   UNL     1      32.193 -10.640 -22.309  0.00  0.00    +0.073 C 
ATOM     12  C   UNL     1      31.304 -11.910 -20.456  0.00  0.00    +0.001 C 
ATOM     13  C   UNL     1      31.354 -10.730 -21.198  0.00  0.00    +0.004 C 
BRANCH  11  17
ATOM     14  F   UNL     1      32.645  -9.561 -24.396  0.00  0.00    -0.166 F 
ATOM     15  F   UNL     1      31.046  -8.734 -23.186  0.00  0.00    -0.166 F 
ATOM     16  F   UNL     1      33.116  -8.466 -22.578  0.00  0.00    -0.166 F 
ATOM     17  C   UNL     1      32.247  -9.379 -23.102  0.00  0.00    +0.419 C 
ENDBRANCH  11  17
ENDBRANCH   2   8
BRANCH   1  18
ATOM     18  C   UNL     1      35.936 -17.448 -23.490  0.00  0.00    -0.052 C 
BRANCH  18  19
ATOM     19  C   UNL     1      34.980 -18.463 -22.883  0.00  0.00    +0.088 C 
BRANCH  19  21
ATOM     20  O   UNL     1      37.898 -18.573 -22.122  0.00  0.00    -0.247 OA
ATOM     21  N   UNL     1      35.634 -19.262 -21.884  0.00  0.00    -0.282 N 
ATOM     22  N   UNL     1      37.214 -20.192 -20.541  0.00  0.00    -0.305 N 
ATOM     23  C   UNL     1      35.003 -20.186 -21.034  0.00  0.00    +0.079 A 
ATOM     24  C   UNL     1      37.028 -19.248 -21.591  0.00  0.00    +0.328 A 
ATOM     25  C   UNL     1      35.978 -20.752 -20.215  0.00  0.00    +0.076 A 
ATOM     26  C   UNL     1      33.676 -20.552 -20.934  0.00  0.00    +0.019 C 
ATOM     27  C   UNL     1      35.683 -21.702 -19.262  0.00  0.00    +0.019 C 
ATOM     28  C   UNL     1      33.352 -21.516 -19.974  0.00  0.00    +0.002 C 
ATOM     29  C   UNL     1      34.343 -22.085 -19.148  0.00  0.00    +0.002 C 
ATOM     30  H   UNL     1      38.073 -20.413 -20.115  0.00  0.00    +0.170 HD
ENDBRANCH  19  21
ENDBRANCH  18  19
ENDBRANCH   1  18
TORSDOF 5
ENDMDL
MODEL 8
REMARK VINA RESULT:     -10.5      7.817     12.248
REMARK  Name = 6918248
REMARK  5 active torsions:
REMARK  status: ('A' for Active; 'I' for Inactive)
REMARK    1  A    between atoms: N_1  and  C_18
REMARK    2  A    between atoms: N_2  and  C_8
REMARK    3  A    between atoms: C_11  and  C_17
REMARK    4  A    between atoms: C_18  and  C_19
REMARK    5  A    between atoms: C_19  and  N_21
REMARK                            x       y       z     vdW  Elec       q    Type
REMARK                         _______ _______ _______ _____ _____    ______ ____
ROOT
ATOM      1  N   UNL     1      34.981 -19.456 -21.995  0.00  0.00    +0.391 N 
ATOM      2  N   UNL     1      34.781 -21.317 -19.836  0.00  0.00    -0.312 N 
ATOM      3  C   UNL     1      33.736 -20.199 -21.768  0.00  0.00    -0.055 C 
ATOM      4  C   UNL     1      36.133 -20.287 -21.619  0.00  0.00    -0.055 C 
ATOM      5  C   UNL     1      33.590 -20.591 -20.296  0.00  0.00    +0.068 C 
ATOM      6  C   UNL     1      36.066 -20.683 -20.142  0.00  0.00    +0.068 C 
ATOM      7  H   UNL     1      34.977 -18.619 -21.412  0.00  0.00    -0.079 HD
ENDROOT
BRANCH   2   8
ATOM      8  C   UNL     1      34.659 -22.129 -18.703  0.00  0.00    +0.048 C 
ATOM      9  C   UNL     1      35.756 -22.352 -17.848  0.00  0.00    +0.018 C 
ATOM     10  C   UNL     1      33.433 -22.748 -18.383  0.00  0.00    +0.015 C 
ATOM     11  C   UNL     1      35.633 -23.161 -16.718  0.00  0.00    +0.073 C 
ATOM     12  C   UNL     1      33.310 -23.556 -17.252  0.00  0.00    +0.001 C 
ATOM     13  C   UNL     1      34.410 -23.763 -16.420  0.00  0.00    +0.004 C 
BRANCH  11  17
ATOM     14  F   UNL     1      37.968 -22.841 -16.307  0.00  0.00    -0.166 F 
ATOM     15  F   UNL     1      36.657 -22.853 -14.579  0.00  0.00    -0.166 F 
ATOM     16  F   UNL     1      37.077 -24.707 -15.634  0.00  0.00    -0.166 F 
ATOM     17  C   UNL     1      36.809 -23.383 -15.828  0.00  0.00    +0.419 C 
ENDBRANCH  11  17
ENDBRANCH   2   8
BRANCH   1  18
ATOM     18  C   UNL     1      35.083 -19.039 -23.393  0.00  0.00    -0.052 C 
BRANCH  18  19
ATOM     19  C   UNL     1      36.007 -17.838 -23.520  0.00  0.00    +0.088 C 
BRANCH  19  21
ATOM     20  O   UNL     1      35.094 -16.661 -26.146  0.00  0.00    -0.247 OA
ATOM     21  N   UNL     1      35.263 -16.634 -23.773  0.00  0.00    -0.282 N 
ATOM     22  N   UNL     1      34.164 -14.941 -24.817  0.00  0.00    -0.305 N 
ATOM     23  C   UNL     1      34.800 -15.738 -22.795  0.00  0.00    +0.079 A 
ATOM     24  C   UNL     1      34.874 -16.152 -25.056  0.00  0.00    +0.328 A 
ATOM     25  C   UNL     1      34.128 -14.703 -23.442  0.00  0.00    +0.076 A 
ATOM     26  C   UNL     1      34.925 -15.768 -21.421  0.00  0.00    +0.019 C 
ATOM     27  C   UNL     1      33.550 -13.655 -22.760  0.00  0.00    +0.019 C 
ATOM     28  C   UNL     1      34.347 -14.714 -20.706  0.00  0.00    +0.002 C 
ATOM     29  C   UNL     1      33.667 -13.670 -21.367  0.00  0.00    +0.002 C 
ATOM     30  H   UNL     1      33.764 -14.366 -25.509  0.00  0.00    +0.170 HD
ENDBRANCH  19  21
ENDBRANCH  18  19
ENDBRANCH   1  18
TORSDOF 5
ENDMDL
MODEL 9
REMARK VINA RESULT:     -10.5      1.457      2.268
REMARK  Name = 6918248
REMARK  5 active torsions:
REMARK  status: ('A' for Active; 'I' for Inactive)
REMARK    1  A    between atoms: N_1  and  C_18
REMARK    2  A    between atoms: N_2  and  C_8
REMARK    3  A    between atoms: C_11  and  C_17
REMARK    4  A    between atoms: C_18  and  C_19
REMARK    5  A    between atoms: C_19  and  N_21
REMARK                            x       y       z     vdW  Elec       q    Type
REMARK                         _______ _______ _______ _____ _____    ______ ____
ROOT
ATOM      1  N   UNL     1      33.668 -12.707 -23.556  0.00  0.00    +0.391 N 
ATOM      2  N   UNL     1      33.012  -9.943 -23.250  0.00  0.00    -0.312 N 
ATOM      3  C   UNL     1      34.029 -11.738 -24.598  0.00  0.00    -0.055 C 
ATOM      4  C   UNL     1      32.406 -12.307 -22.919  0.00  0.00    -0.055 C 
ATOM      5  C   UNL     1      34.206 -10.337 -24.009  0.00  0.00    +0.068 C 
ATOM      6  C   UNL     1      32.529 -10.925 -22.275  0.00  0.00    +0.068 C 
ATOM      7  H   UNL     1      34.403 -12.719 -22.849  0.00  0.00    -0.079 HD
ENDROOT
BRANCH   2   8
ATOM      8  C   UNL     1      32.796  -8.579 -23.028  0.00  0.00    +0.048 C 
ATOM      9  C   UNL     1      33.178  -7.617 -23.985  0.00  0.00    +0.018 C 
ATOM     10  C   UNL     1      32.188  -8.124 -21.840  0.00  0.00    +0.015 C 
ATOM     11  C   UNL     1      32.961  -6.257 -23.763  0.00  0.00    +0.073 C 
ATOM     12  C   UNL     1      31.970  -6.765 -21.619  0.00  0.00    +0.001 C 
ATOM     13  C   UNL     1      32.357  -5.831 -22.579  0.00  0.00    +0.004 C 
BRANCH  11  17
ATOM     14  F   UNL     1      34.729  -5.153 -24.936  0.00  0.00    -0.166 F 
ATOM     15  F   UNL     1      32.901  -5.533 -26.041  0.00  0.00    -0.166 F 
ATOM     16  F   UNL     1      32.939  -3.998 -24.502  0.00  0.00    -0.166 F 
ATOM     17  C   UNL     1      33.375  -5.259 -24.789  0.00  0.00    +0.419 C 
ENDBRANCH  11  17
ENDBRANCH   2   8
BRANCH   1  18
ATOM     18  C   UNL     1      33.555 -14.051 -24.121  0.00  0.00    -0.052 C 
BRANCH  18  19
ATOM     19  C   UNL     1      34.910 -14.742 -24.116  0.00  0.00    +0.088 C 
BRANCH  19  21
ATOM     20  O   UNL     1      34.878 -14.185 -21.149  0.00  0.00    -0.247 OA
ATOM     21  N   UNL     1      35.023 -15.657 -23.013  0.00  0.00    -0.282 N 
ATOM     22  N   UNL     1      35.141 -16.523 -20.914  0.00  0.00    -0.305 N 
ATOM     23  C   UNL     1      35.177 -17.049 -23.117  0.00  0.00    +0.079 A 
ATOM     24  C   UNL     1      34.998 -15.301 -21.633  0.00  0.00    +0.328 A 
ATOM     25  C   UNL     1      35.249 -17.572 -21.828  0.00  0.00    +0.076 A 
ATOM     26  C   UNL     1      35.256 -17.861 -24.230  0.00  0.00    +0.019 C 
ATOM     27  C   UNL     1      35.401 -18.920 -21.584  0.00  0.00    +0.019 C 
ATOM     28  C   UNL     1      35.411 -19.234 -24.008  0.00  0.00    +0.002 C 
ATOM     29  C   UNL     1      35.483 -19.757 -22.700  0.00  0.00    +0.002 C 
ATOM     30  H   UNL     1      35.161 -16.612 -19.935  0.00  0.00    +0.170 HD
ENDBRANCH  19  21
ENDBRANCH  18  19
ENDBRANCH   1  18
TORSDOF 5
ENDMDL
