MODEL 1
REMARK VINA RESULT:     -10.7      0.000      0.000
REMARK  Name = 11406590
REMARK  3 active torsions:
REMARK  status: ('A' for Active; 'I' for Inactive)
REMARK    1  A    between atoms: N_2  and  C_16
REMARK    2  A    between atoms: C_12  and  O_21
REMARK    3  A    between atoms: O_21  and  C_24
REMARK                            x       y       z     vdW  Elec       q    Type
REMARK                         _______ _______ _______ _____ _____    ______ ____
ROOT
ATOM      1  O   UNL     1      33.857 -13.279 -26.530  0.00  0.00    -0.266 OA
ATOM      2  N   UNL     1      35.532 -17.581 -21.159  0.00  0.00    -0.270 N 
ATOM      3  N   UNL     1      34.981 -16.185 -22.963  0.00  0.00    -0.322 NA
ATOM      4  N   UNL     1      34.415 -14.744 -24.810  0.00  0.00    -0.225 N 
ATOM      5  N   UNL     1      34.966 -15.351 -20.705  0.00  0.00    -0.170 NA
ATOM      6  C   UNL     1      35.141 -16.309 -21.631  0.00  0.00    +0.146 C 
ATOM      7  C   UNL     1      34.606 -14.963 -23.412  0.00  0.00    +0.204 C 
ATOM      8  C   UNL     1      34.397 -13.900 -22.544  0.00  0.00    +0.068 C 
ATOM      9  C   UNL     1      34.594 -14.153 -21.196  0.00  0.00    +0.116 C 
ATOM     10  C   UNL     1      33.995 -12.597 -23.041  0.00  0.00    +0.048 C 
ATOM     11  C   UNL     1      34.029 -13.508 -25.332  0.00  0.00    +0.289 C 
ATOM     12  C   UNL     1      33.819 -12.398 -24.352  0.00  0.00    +0.199 C 
ATOM     13  C   UNL     1      34.640 -15.880 -25.699  0.00  0.00    +0.123 C 
ATOM     14  H   UNL     1      35.658 -17.705 -20.191  0.00  0.00    +0.159 HD
ENDROOT
BRANCH   2  16
ATOM     15  O   UNL     1      35.643 -21.178 -20.534  0.00  0.00    -0.354 OA
ATOM     16  C   UNL     1      35.755 -18.711 -22.039  0.00  0.00    +0.084 C 
ATOM     17  C   UNL     1      37.008 -19.477 -21.610  0.00  0.00    +0.052 C 
ATOM     18  C   UNL     1      34.528 -19.625 -22.033  0.00  0.00    +0.052 C 
ATOM     19  C   UNL     1      36.768 -20.319 -20.360  0.00  0.00    +0.144 C 
ATOM     20  C   UNL     1      34.437 -20.446 -20.752  0.00  0.00    +0.144 C 
ENDBRANCH   2  16
BRANCH  12  21
ATOM     21  O   UNL     1      33.437 -11.178 -24.871  0.00  0.00    -0.447 OA
BRANCH  21  24
ATOM     22  F   UNL     1      35.545  -9.408 -24.840  0.00  0.00    -0.201 F 
ATOM     23  F   UNL     1      33.433  -6.909 -21.419  0.00  0.00    -0.204 F 
ATOM     24  C   UNL     1      33.437 -10.116 -24.012  0.00  0.00    +0.173 C 
ATOM     25  C   UNL     1      34.510  -9.228 -24.007  0.00  0.00    +0.177 C 
ATOM     26  C   UNL     1      32.363  -9.927 -23.146  0.00  0.00    +0.042 C 
ATOM     27  C   UNL     1      34.509  -8.143 -23.130  0.00  0.00    +0.062 C 
ATOM     28  C   UNL     1      32.362  -8.842 -22.269  0.00  0.00    +0.033 C 
ATOM     29  C   UNL     1      33.434  -7.951 -22.261  0.00  0.00    +0.143 C 
ENDBRANCH  21  24
ENDBRANCH  12  21
TORSDOF 3
ENDMDL
MODEL 2
REMARK VINA RESULT:     -10.5      3.591      8.602
REMARK  Name = 11406590
REMARK  3 active torsions:
REMARK  status: ('A' for Active; 'I' for Inactive)
REMARK    1  A    between atoms: N_2  and  C_16
REMARK    2  A    between atoms: C_12  and  O_21
REMARK    3  A    between atoms: O_21  and  C_24
REMARK                            x       y       z     vdW  Elec       q    Type
REMARK                         _______ _______ _______ _____ _____    ______ ____
ROOT
ATOM      1  O   UNL     1      34.945 -16.581 -26.062  0.00  0.00    -0.266 OA
ATOM      2  N   UNL     1      32.602 -11.242 -22.042  0.00  0.00    -0.270 N 
ATOM      3  N   UNL     1      33.367 -12.992 -23.406  0.00  0.00    -0.322 NA
ATOM      4  N   UNL     1      34.156 -14.794 -24.798  0.00  0.00    -0.225 N 
ATOM      5  N   UNL     1      33.617 -13.089 -21.013  0.00  0.00    -0.170 NA
ATOM      6  C   UNL     1      33.226 -12.503 -22.157  0.00  0.00    +0.146 C 
ATOM      7  C   UNL     1      33.967 -14.202 -23.512  0.00  0.00    +0.204 C 
ATOM      8  C   UNL     1      34.410 -14.897 -22.396  0.00  0.00    +0.068 C 
ATOM      9  C   UNL     1      34.207 -14.290 -21.167  0.00  0.00    +0.116 C 
ATOM     10  C   UNL     1      35.050 -16.193 -22.527  0.00  0.00    +0.048 C 
ATOM     11  C   UNL     1      34.766 -16.038 -24.971  0.00  0.00    +0.289 C 
ATOM     12  C   UNL     1      35.224 -16.742 -23.735  0.00  0.00    +0.199 C 
ATOM     13  C   UNL     1      33.681 -14.040 -25.955  0.00  0.00    +0.123 C 
ATOM     14  H   UNL     1      32.483 -10.857 -21.144  0.00  0.00    +0.159 HD
ENDROOT
BRANCH   2  16
ATOM     15  O   UNL     1      33.016  -7.744 -23.006  0.00  0.00    -0.354 OA
ATOM     16  C   UNL     1      32.130 -10.490 -23.188  0.00  0.00    +0.084 C 
ATOM     17  C   UNL     1      31.213  -9.354 -22.734  0.00  0.00    +0.052 C 
ATOM     18  C   UNL     1      33.322  -9.948 -23.980  0.00  0.00    +0.052 C 
ATOM     19  C   UNL     1      31.994  -8.195 -22.120  0.00  0.00    +0.144 C 
ATOM     20  C   UNL     1      33.977  -8.762 -23.280  0.00  0.00    +0.144 C 
ENDBRANCH   2  16
BRANCH  12  21
ATOM     21  O   UNL     1      35.827 -17.971 -23.909  0.00  0.00    -0.447 OA
BRANCH  21  24
ATOM     22  F   UNL     1      38.184 -18.248 -22.515  0.00  0.00    -0.201 F 
ATOM     23  F   UNL     1      36.090 -21.249 -19.513  0.00  0.00    -0.204 F 
ATOM     24  C   UNL     1      35.893 -18.787 -22.815  0.00  0.00    +0.173 C 
ATOM     25  C   UNL     1      37.093 -18.917 -22.120  0.00  0.00    +0.177 C 
ATOM     26  C   UNL     1      34.761 -19.483 -22.402  0.00  0.00    +0.042 C 
ATOM     27  C   UNL     1      37.159 -19.750 -21.003  0.00  0.00    +0.062 C 
ATOM     28  C   UNL     1      34.827 -20.316 -21.285  0.00  0.00    +0.033 C 
ATOM     29  C   UNL     1      36.026 -20.449 -20.585  0.00  0.00    +0.143 C 
ENDBRANCH  21  24
ENDBRANCH  12  21
TORSDOF 3
ENDMDL
MODEL 3
REMARK VINA RESULT:     -10.0      6.325      9.612
REMARK  Name = 11406590
REMARK  3 active torsions:
REMARK  status: ('A' for Active; 'I' for Inactive)
REMARK    1  A    between atoms: N_2  and  C_16
REMARK    2  A    between atoms: C_12  and  O_21
REMARK    3  A    between atoms: O_21  and  C_24
REMARK                            x       y       z     vdW  Elec       q    Type
REMARK                         _______ _______ _______ _____ _____    ______ ____
ROOT
ATOM      1  O   UNL     1      32.843 -22.231 -20.343  0.00  0.00    -0.266 OA
ATOM      2  N   UNL     1      37.276 -23.007 -14.874  0.00  0.00    -0.270 N 
ATOM      3  N   UNL     1      35.779 -22.766 -16.665  0.00  0.00    -0.322 NA
ATOM      4  N   UNL     1      34.249 -22.515 -18.510  0.00  0.00    -0.225 N 
ATOM      5  N   UNL     1      38.042 -21.961 -16.827  0.00  0.00    -0.170 NA
ATOM      6  C   UNL     1      37.022 -22.555 -16.187  0.00  0.00    +0.146 C 
ATOM      7  C   UNL     1      35.539 -22.331 -17.926  0.00  0.00    +0.204 C 
ATOM      8  C   UNL     1      36.520 -21.703 -18.680  0.00  0.00    +0.068 C 
ATOM      9  C   UNL     1      37.758 -21.545 -18.077  0.00  0.00    +0.116 C 
ATOM     10  C   UNL     1      36.247 -21.243 -20.029  0.00  0.00    +0.048 C 
ATOM     11  C   UNL     1      33.942 -22.089 -19.803  0.00  0.00    +0.289 C 
ATOM     12  C   UNL     1      35.036 -21.419 -20.570  0.00  0.00    +0.199 C 
ATOM     13  C   UNL     1      33.236 -23.178 -17.694  0.00  0.00    +0.123 C 
ATOM     14  H   UNL     1      38.174 -22.869 -14.495  0.00  0.00    +0.159 HD
ENDROOT
BRANCH   2  16
ATOM     15  O   UNL     1      37.519 -25.626 -12.339  0.00  0.00    -0.354 OA
ATOM     16  C   UNL     1      36.273 -23.664 -14.060  0.00  0.00    +0.084 C 
ATOM     17  C   UNL     1      36.247 -25.164 -14.360  0.00  0.00    +0.052 C 
ATOM     18  C   UNL     1      36.555 -23.408 -12.578  0.00  0.00    +0.052 C 
ATOM     19  C   UNL     1      37.432 -25.896 -13.736  0.00  0.00    +0.144 C 
ATOM     20  C   UNL     1      37.729 -24.240 -12.072  0.00  0.00    +0.144 C 
ENDBRANCH   2  16
BRANCH  12  21
ATOM     21  O   UNL     1      34.729 -20.998 -21.848  0.00  0.00    -0.447 OA
BRANCH  21  24
ATOM     22  F   UNL     1      35.215 -20.262 -24.456  0.00  0.00    -0.201 F 
ATOM     23  F   UNL     1      35.916 -15.784 -23.092  0.00  0.00    -0.204 F 
ATOM     24  C   UNL     1      35.025 -19.701 -22.158  0.00  0.00    +0.173 C 
ATOM     25  C   UNL     1      35.268 -19.343 -23.482  0.00  0.00    +0.177 C 
ATOM     26  C   UNL     1      35.081 -18.744 -21.149  0.00  0.00    +0.042 C 
ATOM     27  C   UNL     1      35.570 -18.018 -23.798  0.00  0.00    +0.062 C 
ATOM     28  C   UNL     1      35.383 -17.419 -21.464  0.00  0.00    +0.033 C 
ATOM     29  C   UNL     1      35.626 -17.057 -22.789  0.00  0.00    +0.143 C 
ENDBRANCH  21  24
ENDBRANCH  12  21
TORSDOF 3
ENDMDL
MODEL 4
REMARK VINA RESULT:      -9.3      2.300      3.441
REMARK  Name = 11406590
REMARK  3 active torsions:
REMARK  status: ('A' for Active; 'I' for Inactive)
REMARK    1  A    between atoms: N_2  and  C_16
REMARK    2  A    between atoms: C_12  and  O_21
REMARK    3  A    between atoms: O_21  and  C_24
REMARK                            x       y       z     vdW  Elec       q    Type
REMARK                         _______ _______ _______ _____ _____    ______ ____
ROOT
ATOM      1  O   UNL     1      31.159 -11.910 -19.873  0.00  0.00    -0.266 OA
ATOM      2  N   UNL     1      35.468 -16.419 -23.229  0.00  0.00    -0.270 N 
ATOM      3  N   UNL     1      34.038 -14.950 -22.088  0.00  0.00    -0.322 NA
ATOM      4  N   UNL     1      32.569 -13.436 -20.923  0.00  0.00    -0.225 N 
ATOM      5  N   UNL     1      34.984 -14.349 -24.218  0.00  0.00    -0.170 NA
ATOM      6  C   UNL     1      34.798 -15.178 -23.177  0.00  0.00    +0.146 C 
ATOM      7  C   UNL     1      33.396 -13.758 -22.042  0.00  0.00    +0.204 C 
ATOM      8  C   UNL     1      33.516 -12.825 -23.062  0.00  0.00    +0.068 C 
ATOM      9  C   UNL     1      34.326 -13.176 -24.130  0.00  0.00    +0.116 C 
ATOM     10  C   UNL     1      32.822 -11.552 -22.998  0.00  0.00    +0.048 C 
ATOM     11  C   UNL     1      31.882 -12.224 -20.820  0.00  0.00    +0.289 C 
ATOM     12  C   UNL     1      32.048 -11.257 -21.947  0.00  0.00    +0.199 C 
ATOM     13  C   UNL     1      32.461 -14.435 -19.864  0.00  0.00    +0.123 C 
ATOM     14  H   UNL     1      36.031 -16.617 -24.012  0.00  0.00    +0.159 HD
ENDROOT
BRANCH   2  16
ATOM     15  O   UNL     1      36.629 -19.875 -23.016  0.00  0.00    -0.354 OA
ATOM     16  C   UNL     1      35.364 -17.413 -22.179  0.00  0.00    +0.084 C 
ATOM     17  C   UNL     1      34.572 -18.624 -22.673  0.00  0.00    +0.052 C 
ATOM     18  C   UNL     1      36.762 -17.827 -21.715  0.00  0.00    +0.052 C 
ATOM     19  C   UNL     1      35.391 -19.502 -23.616  0.00  0.00    +0.144 C 
ATOM     20  C   UNL     1      37.447 -18.743 -22.724  0.00  0.00    +0.144 C 
ENDBRANCH   2  16
BRANCH  12  21
ATOM     21  O   UNL     1      31.369 -10.060 -21.842  0.00  0.00    -0.447 OA
BRANCH  21  24
ATOM     22  F   UNL     1      33.169  -8.745 -20.228  0.00  0.00    -0.201 F 
ATOM     23  F   UNL     1      33.961  -5.570 -23.647  0.00  0.00    -0.204 F 
ATOM     24  C   UNL     1      32.014  -8.943 -22.290  0.00  0.00    +0.173 C 
ATOM     25  C   UNL     1      32.923  -8.288 -21.462  0.00  0.00    +0.177 C 
ATOM     26  C   UNL     1      31.760  -8.465 -23.573  0.00  0.00    +0.042 C 
ATOM     27  C   UNL     1      33.581  -7.147 -21.922  0.00  0.00    +0.062 C 
ATOM     28  C   UNL     1      32.418  -7.324 -24.032  0.00  0.00    +0.033 C 
ATOM     29  C   UNL     1      33.329  -6.666 -23.206  0.00  0.00    +0.143 C 
ENDBRANCH  21  24
ENDBRANCH  12  21
TORSDOF 3
ENDMDL
MODEL 5
REMARK VINA RESULT:      -9.2      7.540     10.602
REMARK  Name = 11406590
REMARK  3 active torsions:
REMARK  status: ('A' for Active; 'I' for Inactive)
REMARK    1  A    between atoms: N_2  and  C_16
REMARK    2  A    between atoms: C_12  and  O_21
REMARK    3  A    between atoms: O_21  and  C_24
REMARK                            x       y       z     vdW  Elec       q    Type
REMARK                         _______ _______ _______ _____ _____    ______ ____
ROOT
ATOM      1  O   UNL     1      32.636 -22.403 -19.208  0.00  0.00    -0.266 OA
ATOM      2  N   UNL     1      37.508 -24.155 -14.375  0.00  0.00    -0.270 N 
ATOM      3  N   UNL     1      35.867 -23.594 -15.956  0.00  0.00    -0.322 NA
ATOM      4  N   UNL     1      34.189 -23.013 -17.585  0.00  0.00    -0.225 N 
ATOM      5  N   UNL     1      38.127 -22.796 -16.183  0.00  0.00    -0.170 NA
ATOM      6  C   UNL     1      37.152 -23.481 -15.564  0.00  0.00    +0.146 C 
ATOM      7  C   UNL     1      35.529 -22.946 -17.097  0.00  0.00    +0.204 C 
ATOM      8  C   UNL     1      36.457 -22.207 -17.819  0.00  0.00    +0.068 C 
ATOM      9  C   UNL     1      37.746 -22.168 -17.313  0.00  0.00    +0.116 C 
ATOM     10  C   UNL     1      36.078 -21.519 -19.039  0.00  0.00    +0.048 C 
ATOM     11  C   UNL     1      33.781 -22.367 -18.754  0.00  0.00    +0.289 C 
ATOM     12  C   UNL     1      34.821 -21.586 -19.491  0.00  0.00    +0.199 C 
ATOM     13  C   UNL     1      33.234 -23.796 -16.806  0.00  0.00    +0.123 C 
ATOM     14  H   UNL     1      38.439 -24.094 -14.061  0.00  0.00    +0.159 HD
ENDROOT
BRANCH   2  16
ATOM     15  O   UNL     1      37.166 -24.698 -10.780  0.00  0.00    -0.354 OA
ATOM     16  C   UNL     1      36.563 -24.932 -13.599  0.00  0.00    +0.084 C 
ATOM     17  C   UNL     1      37.293 -26.024 -12.815  0.00  0.00    +0.052 C 
ATOM     18  C   UNL     1      35.783 -24.012 -12.657  0.00  0.00    +0.052 C 
ATOM     19  C   UNL     1      38.039 -25.464 -11.606  0.00  0.00    +0.144 C 
ATOM     20  C   UNL     1      36.629 -23.569 -11.468  0.00  0.00    +0.144 C 
ENDBRANCH   2  16
BRANCH  12  21
ATOM     21  O   UNL     1      34.414 -20.949 -20.645  0.00  0.00    -0.447 OA
BRANCH  21  24
ATOM     22  F   UNL     1      33.862 -19.836 -23.101  0.00  0.00    -0.201 F 
ATOM     23  F   UNL     1      38.125 -17.781 -23.163  0.00  0.00    -0.204 F 
ATOM     24  C   UNL     1      35.337 -20.160 -21.272  0.00  0.00    +0.173 C 
ATOM     25  C   UNL     1      35.044 -19.604 -22.515  0.00  0.00    +0.177 C 
ATOM     26  C   UNL     1      36.566 -19.918 -20.665  0.00  0.00    +0.042 C 
ATOM     27  C   UNL     1      35.987 -18.799 -23.154  0.00  0.00    +0.062 C 
ATOM     28  C   UNL     1      37.510 -19.113 -21.304  0.00  0.00    +0.033 C 
ATOM     29  C   UNL     1      37.219 -18.553 -22.548  0.00  0.00    +0.143 C 
ENDBRANCH  21  24
ENDBRANCH  12  21
TORSDOF 3
ENDMDL
MODEL 6
REMARK VINA RESULT:      -9.2      3.975      8.712
REMARK  Name = 11406590
REMARK  3 active torsions:
REMARK  status: ('A' for Active; 'I' for Inactive)
REMARK    1  A    between atoms: N_2  and  C_16
REMARK    2  A    between atoms: C_12  and  O_21
REMARK    3  A    between atoms: O_21  and  C_24
REMARK                            x       y       z     vdW  Elec       q    Type
REMARK                         _______ _______ _______ _____ _____    ______ ____
ROOT
ATOM      1  O   UNL     1      34.536 -15.063 -27.007  0.00  0.00    -0.266 OA
ATOM      2  N   UNL     1      32.548  -9.982 -22.491  0.00  0.00    -0.270 N 
ATOM      3  N   UNL     1      33.205 -11.640 -24.016  0.00  0.00    -0.322 NA
ATOM      4  N   UNL     1      33.880 -13.349 -25.575  0.00  0.00    -0.225 N 
ATOM      5  N   UNL     1      33.024 -12.125 -21.665  0.00  0.00    -0.170 NA
ATOM      6  C   UNL     1      32.945 -11.315 -22.734  0.00  0.00    +0.146 C 
ATOM      7  C   UNL     1      33.586 -12.920 -24.246  0.00  0.00    +0.204 C 
ATOM      8  C   UNL     1      33.700 -13.843 -23.215  0.00  0.00    +0.068 C 
ATOM      9  C   UNL     1      33.405 -13.387 -21.940  0.00  0.00    +0.116 C 
ATOM     10  C   UNL     1      34.109 -15.210 -23.478  0.00  0.00    +0.048 C 
ATOM     11  C   UNL     1      34.276 -14.655 -25.874  0.00  0.00    +0.289 C 
ATOM     12  C   UNL     1      34.383 -15.606 -24.726  0.00  0.00    +0.199 C 
ATOM     13  C   UNL     1      33.752 -12.358 -26.639  0.00  0.00    +0.123 C 
ATOM     14  H   UNL     1      32.350  -9.712 -21.565  0.00  0.00    +0.159 HD
ENDROOT
BRANCH   2  16
ATOM     15  O   UNL     1      32.920  -6.349 -22.490  0.00  0.00    -0.354 OA
ATOM     16  C   UNL     1      32.421  -8.995 -23.544  0.00  0.00    +0.084 C 
ATOM     17  C   UNL     1      31.298  -8.010 -23.215  0.00  0.00    +0.052 C 
ATOM     18  C   UNL     1      33.751  -8.263 -23.734  0.00  0.00    +0.052 C 
ATOM     19  C   UNL     1      31.707  -7.011 -22.136  0.00  0.00    +0.144 C 
ATOM     20  C   UNL     1      34.011  -7.259 -22.616  0.00  0.00    +0.144 C 
ENDBRANCH   2  16
BRANCH  12  21
ATOM     21  O   UNL     1      34.775 -16.895 -25.025  0.00  0.00    -0.447 OA
BRANCH  21  24
ATOM     22  F   UNL     1      33.954 -19.521 -24.961  0.00  0.00    -0.201 F 
ATOM     23  F   UNL     1      36.103 -20.124 -20.788  0.00  0.00    -0.204 F 
ATOM     24  C   UNL     1      35.105 -17.699 -23.970  0.00  0.00    +0.173 C 
ATOM     25  C   UNL     1      34.682 -19.026 -23.952  0.00  0.00    +0.177 C 
ATOM     26  C   UNL     1      35.862 -17.187 -22.921  0.00  0.00    +0.042 C 
ATOM     27  C   UNL     1      35.020 -19.846 -22.875  0.00  0.00    +0.062 C 
ATOM     28  C   UNL     1      36.200 -18.007 -21.844  0.00  0.00    +0.033 C 
ATOM     29  C   UNL     1      35.779 -19.336 -21.822  0.00  0.00    +0.143 C 
ENDBRANCH  21  24
ENDBRANCH  12  21
TORSDOF 3
ENDMDL
MODEL 7
REMARK VINA RESULT:      -9.1      4.022      9.107
REMARK  Name = 11406590
REMARK  3 active torsions:
REMARK  status: ('A' for Active; 'I' for Inactive)
REMARK    1  A    between atoms: N_2  and  C_16
REMARK    2  A    between atoms: C_12  and  O_21
REMARK    3  A    between atoms: O_21  and  C_24
REMARK                            x       y       z     vdW  Elec       q    Type
REMARK                         _______ _______ _______ _____ _____    ______ ____
ROOT
ATOM      1  O   UNL     1      33.492 -15.119 -20.026  0.00  0.00    -0.266 OA
ATOM      2  N   UNL     1      32.512  -9.325 -23.981  0.00  0.00    -0.270 N 
ATOM      3  N   UNL     1      32.810 -11.232 -22.645  0.00  0.00    -0.322 NA
ATOM      4  N   UNL     1      33.124 -13.192 -21.280  0.00  0.00    -0.225 N 
ATOM      5  N   UNL     1      33.996 -10.981 -24.725  0.00  0.00    -0.170 NA
ATOM      6  C   UNL     1      33.138 -10.574 -23.775  0.00  0.00    +0.146 C 
ATOM      7  C   UNL     1      33.414 -12.429 -22.452  0.00  0.00    +0.204 C 
ATOM      8  C   UNL     1      34.317 -12.947 -23.369  0.00  0.00    +0.068 C 
ATOM      9  C   UNL     1      34.572 -12.176 -24.491  0.00  0.00    +0.116 C 
ATOM     10  C   UNL     1      34.955 -14.232 -23.146  0.00  0.00    +0.048 C 
ATOM     11  C   UNL     1      33.714 -14.432 -21.025  0.00  0.00    +0.289 C 
ATOM     12  C   UNL     1      34.680 -14.942 -22.046  0.00  0.00    +0.199 C 
ATOM     13  C   UNL     1      32.170 -12.624 -20.333  0.00  0.00    +0.123 C 
ATOM     14  H   UNL     1      32.729  -8.819 -24.796  0.00  0.00    +0.159 HD
ENDROOT
BRANCH   2  16
ATOM     15  O   UNL     1      32.254  -6.009 -22.472  0.00  0.00    -0.354 OA
ATOM     16  C   UNL     1      31.563  -8.758 -23.044  0.00  0.00    +0.084 C 
ATOM     17  C   UNL     1      32.275  -8.335 -21.759  0.00  0.00    +0.052 C 
ATOM     18  C   UNL     1      30.844  -7.570 -23.687  0.00  0.00    +0.052 C 
ATOM     19  C   UNL     1      33.075  -7.047 -21.942  0.00  0.00    +0.144 C 
ATOM     20  C   UNL     1      31.738  -6.338 -23.761  0.00  0.00    +0.144 C 
ENDBRANCH   2  16
BRANCH  12  21
ATOM     21  O   UNL     1      35.261 -16.167 -21.792  0.00  0.00    -0.447 OA
BRANCH  21  24
ATOM     22  F   UNL     1      35.250 -18.830 -21.095  0.00  0.00    -0.201 F 
ATOM     23  F   UNL     1      34.643 -20.045 -25.629  0.00  0.00    -0.204 F 
ATOM     24  C   UNL     1      35.107 -17.133 -22.746  0.00  0.00    +0.173 C 
ATOM     25  C   UNL     1      35.104 -18.477 -22.378  0.00  0.00    +0.177 C 
ATOM     26  C   UNL     1      34.955 -16.768 -24.081  0.00  0.00    +0.042 C 
ATOM     27  C   UNL     1      34.947 -19.461 -23.354  0.00  0.00    +0.062 C 
ATOM     28  C   UNL     1      34.798 -17.753 -25.056  0.00  0.00    +0.033 C 
ATOM     29  C   UNL     1      34.793 -19.099 -24.692  0.00  0.00    +0.143 C 
ENDBRANCH  21  24
ENDBRANCH  12  21
TORSDOF 3
ENDMDL
MODEL 8
REMARK VINA RESULT:      -9.1      3.587      5.834
REMARK  Name = 11406590
REMARK  3 active torsions:
REMARK  status: ('A' for Active; 'I' for Inactive)
REMARK    1  A    between atoms: N_2  and  C_16
REMARK    2  A    between atoms: C_12  and  O_21
REMARK    3  A    between atoms: O_21  and  C_24
REMARK                            x       y       z     vdW  Elec       q    Type
REMARK                         _______ _______ _______ _____ _____    ______ ____
ROOT
ATOM      1  O   UNL     1      31.638  -8.247 -21.087  0.00  0.00    -0.266 OA
ATOM      2  N   UNL     1      34.423 -13.214 -25.298  0.00  0.00    -0.270 N 
ATOM      3  N   UNL     1      33.478 -11.595 -23.887  0.00  0.00    -0.322 NA
ATOM      4  N   UNL     1      32.512  -9.926 -22.442  0.00  0.00    -0.225 N 
ATOM      5  N   UNL     1      35.241 -11.020 -25.421  0.00  0.00    -0.170 NA
ATOM      6  C   UNL     1      34.380 -11.877 -24.847  0.00  0.00    +0.146 C 
ATOM      7  C   UNL     1      33.439 -10.310 -23.457  0.00  0.00    +0.204 C 
ATOM      8  C   UNL     1      34.284  -9.341 -23.980  0.00  0.00    +0.068 C 
ATOM      9  C   UNL     1      35.167  -9.755 -24.964  0.00  0.00    +0.116 C 
ATOM     10  C   UNL     1      34.230  -7.970 -23.509  0.00  0.00    +0.048 C 
ATOM     11  C   UNL     1      32.425  -8.618 -21.959  0.00  0.00    +0.289 C 
ATOM     12  C   UNL     1      33.358  -7.615 -22.557  0.00  0.00    +0.199 C 
ATOM     13  C   UNL     1      31.636 -10.966 -21.910  0.00  0.00    +0.123 C 
ATOM     14  H   UNL     1      35.071 -13.453 -26.000  0.00  0.00    +0.159 HD
ENDROOT
BRANCH   2  16
ATOM     15  O   UNL     1      35.056 -16.689 -24.369  0.00  0.00    -0.354 OA
ATOM     16  C   UNL     1      33.557 -14.249 -24.771  0.00  0.00    +0.084 C 
ATOM     17  C   UNL     1      33.492 -15.430 -25.742  0.00  0.00    +0.052 C 
ATOM     18  C   UNL     1      34.058 -14.698 -23.397  0.00  0.00    +0.052 C 
ATOM     19  C   UNL     1      34.761 -16.278 -25.702  0.00  0.00    +0.144 C 
ATOM     20  C   UNL     1      35.298 -15.579 -23.506  0.00  0.00    +0.144 C 
ENDBRANCH   2  16
BRANCH  12  21
ATOM     21  O   UNL     1      33.270  -6.325 -22.078  0.00  0.00    -0.447 OA
BRANCH  21  24
ATOM     22  F   UNL     1      30.877  -5.204 -21.309  0.00  0.00    -0.201 F 
ATOM     23  F   UNL     1      30.756  -2.653 -25.294  0.00  0.00    -0.204 F 
ATOM     24  C   UNL     1      32.644  -5.411 -22.878  0.00  0.00    +0.173 C 
ATOM     25  C   UNL     1      31.433  -4.852 -22.476  0.00  0.00    +0.177 C 
ATOM     26  C   UNL     1      33.220  -5.044 -24.091  0.00  0.00    +0.042 C 
ATOM     27  C   UNL     1      30.795  -3.919 -23.293  0.00  0.00    +0.062 C 
ATOM     28  C   UNL     1      32.582  -4.111 -24.908  0.00  0.00    +0.033 C 
ATOM     29  C   UNL     1      31.370  -3.549 -24.509  0.00  0.00    +0.143 C 
ENDBRANCH  21  24
ENDBRANCH  12  21
TORSDOF 3
ENDMDL
MODEL 9
REMARK VINA RESULT:      -8.9      7.143     12.197
REMARK  Name = 11406590
REMARK  3 active torsions:
REMARK  status: ('A' for Active; 'I' for Inactive)
REMARK    1  A    between atoms: N_2  and  C_16
REMARK    2  A    between atoms: C_12  and  O_21
REMARK    3  A    between atoms: O_21  and  C_24
REMARK                            x       y       z     vdW  Elec       q    Type
REMARK                         _______ _______ _______ _____ _____    ______ ____
ROOT
ATOM      1  O   UNL     1      36.641 -23.200 -16.307  0.00  0.00    -0.266 OA
ATOM      2  N   UNL     1      34.448 -19.675 -22.046  0.00  0.00    -0.270 N 
ATOM      3  N   UNL     1      35.210 -20.830 -20.150  0.00  0.00    -0.322 NA
ATOM      4  N   UNL     1      35.984 -22.020 -18.203  0.00  0.00    -0.225 N 
ATOM      5  N   UNL     1      32.883 -20.863 -20.766  0.00  0.00    -0.170 NA
ATOM      6  C   UNL     1      34.165 -20.497 -20.933  0.00  0.00    +0.146 C 
ATOM      7  C   UNL     1      34.934 -21.619 -19.084  0.00  0.00    +0.204 C 
ATOM      8  C   UNL     1      33.646 -22.057 -18.815  0.00  0.00    +0.068 C 
ATOM      9  C   UNL     1      32.656 -21.647 -19.694  0.00  0.00    +0.116 C 
ATOM     10  C   UNL     1      33.367 -22.902 -17.668  0.00  0.00    +0.048 C 
ATOM     11  C   UNL     1      35.762 -22.831 -17.088  0.00  0.00    +0.289 C 
ATOM     12  C   UNL     1      34.355 -23.274 -16.847  0.00  0.00    +0.199 C 
ATOM     13  C   UNL     1      37.330 -21.543 -18.509  0.00  0.00    +0.123 C 
ATOM     14  H   UNL     1      33.706 -19.413 -22.638  0.00  0.00    +0.159 HD
ENDROOT
BRANCH   2  16
ATOM     15  O   UNL     1      35.657 -16.515 -23.421  0.00  0.00    -0.354 OA
ATOM     16  C   UNL     1      35.782 -19.199 -22.352  0.00  0.00    +0.084 C 
ATOM     17  C   UNL     1      35.906 -18.897 -23.847  0.00  0.00    +0.052 C 
ATOM     18  C   UNL     1      36.096 -17.957 -21.516  0.00  0.00    +0.052 C 
ATOM     19  C   UNL     1      35.204 -17.597 -24.231  0.00  0.00    +0.144 C 
ATOM     20  C   UNL     1      35.371 -16.722 -22.038  0.00  0.00    +0.144 C 
ENDBRANCH   2  16
BRANCH  12  21
ATOM     21  O   UNL     1      34.139 -24.076 -15.745  0.00  0.00    -0.447 OA
BRANCH  21  24
ATOM     22  F   UNL     1      33.499 -24.969 -13.221  0.00  0.00    -0.201 F 
ATOM     23  F   UNL     1      28.911 -25.054 -14.381  0.00  0.00    -0.204 F 
ATOM     24  C   UNL     1      32.838 -24.319 -15.405  0.00  0.00    +0.173 C 
ATOM     25  C   UNL     1      32.530 -24.771 -14.124  0.00  0.00    +0.177 C 
ATOM     26  C   UNL     1      31.829 -24.115 -16.341  0.00  0.00    +0.042 C 
ATOM     27  C   UNL     1      31.201 -25.019 -13.778  0.00  0.00    +0.062 C 
ATOM     28  C   UNL     1      30.500 -24.363 -15.995  0.00  0.00    +0.033 C 
ATOM     29  C   UNL     1      30.187 -24.815 -14.714  0.00  0.00    +0.143 C 
ENDBRANCH  21  24
ENDBRANCH  12  21
TORSDOF 3
ENDMDL
