MODEL 1
REMARK VINA RESULT:     -12.6      0.000      0.000
REMARK  Name = 10138993
REMARK  4 active torsions:
REMARK  status: ('A' for Active; 'I' for Inactive)
REMARK    1  A    between atoms: C_5  and  N_18
REMARK    2  A    between atoms: C_12  and  C_22
REMARK    3  A    between atoms: C_22  and  C_26
REMARK    4  A    between atoms: C_23  and  N_29
REMARK                            x       y       z     vdW  Elec       q    Type
REMARK                         _______ _______ _______ _____ _____    ______ ____
ROOT
ATOM      1  O   UNL     1      33.641 -21.114 -20.949  0.00  0.00    -0.274 OA
ATOM      2  N   UNL     1      32.485 -23.312 -17.557  0.00  0.00    -0.275 N 
ATOM      3  N   UNL     1      35.050 -21.669 -19.153  0.00  0.00    -0.268 N 
ATOM      4  N   UNL     1      32.925 -22.605 -18.611  0.00  0.00    -0.157 NA
ATOM      5  C   UNL     1      35.736 -23.674 -15.088  0.00  0.00    +0.069 C 
ATOM      6  C   UNL     1      35.769 -22.996 -16.313  0.00  0.00    +0.020 C 
ATOM      7  C   UNL     1      34.561 -24.276 -14.631  0.00  0.00    +0.018 C 
ATOM      8  C   UNL     1      34.592 -22.935 -17.079  0.00  0.00    +0.052 A 
ATOM      9  C   UNL     1      33.437 -23.545 -16.601  0.00  0.00    +0.077 A 
ATOM     10  C   UNL     1      33.382 -24.225 -15.382  0.00  0.00    +0.020 C 
ATOM     11  C   UNL     1      34.196 -22.387 -18.306  0.00  0.00    +0.155 A 
ATOM     12  C   UNL     1      34.728 -21.097 -20.381  0.00  0.00    +0.232 C 
ATOM     13  H   UNL     1      31.559 -23.636 -17.479  0.00  0.00    +0.189 HD
ATOM     14  H   UNL     1      35.978 -21.556 -18.847  0.00  0.00    +0.156 HD
ENDROOT
BRANCH   5  18
ATOM     15  S   UNL     1      38.223 -24.800 -14.807  0.00  0.00    +0.057 S 
ATOM     16  O   UNL     1      37.682 -26.046 -15.314  0.00  0.00    -0.154 OA
ATOM     17  O   UNL     1      39.203 -24.029 -15.544  0.00  0.00    -0.154 OA
ATOM     18  N   UNL     1      36.941 -23.748 -14.280  0.00  0.00    -0.194 N 
ATOM     19  C   UNL     1      38.836 -25.097 -13.156  0.00  0.00    +0.174 C 
ATOM     20  C   UNL     1      38.293 -23.953 -12.317  0.00  0.00    +0.051 C 
ATOM     21  C   UNL     1      36.859 -23.725 -12.792  0.00  0.00    +0.117 C 
ENDBRANCH   5  18
BRANCH  12  22
ATOM     22  C   UNL     1      35.941 -20.398 -20.989  0.00  0.00    +0.112 C 
BRANCH  22  26
ATOM     23  C   UNL     1      34.952 -17.013 -23.463  0.00  0.00    +0.048 C 
ATOM     24  C   UNL     1      34.927 -18.322 -23.983  0.00  0.00    +0.014 C 
ATOM     25  C   UNL     1      35.309 -16.842 -22.112  0.00  0.00    +0.014 C 
ATOM     26  C   UNL     1      35.599 -19.226 -21.845  0.00  0.00    -0.013 C 
ATOM     27  C   UNL     1      35.248 -19.418 -23.182  0.00  0.00    -0.003 C 
ATOM     28  C   UNL     1      35.630 -17.938 -21.311  0.00  0.00    -0.003 C 
BRANCH  23  29
ATOM     29  N   UNL     1      34.630 -15.913 -24.268  0.00  0.00    -0.307 N 
ATOM     30  C   UNL     1      34.093 -13.666 -25.998  0.00  0.00    +0.004 C 
ATOM     31  C   UNL     1      34.025 -13.535 -24.482  0.00  0.00    +0.021 C 
ATOM     32  C   UNL     1      33.752 -15.091 -26.419  0.00  0.00    +0.021 C 
ATOM     33  C   UNL     1      34.922 -14.558 -23.786  0.00  0.00    +0.091 C 
ATOM     34  C   UNL     1      34.655 -16.108 -25.725  0.00  0.00    +0.091 C 
ENDBRANCH  23  29
ENDBRANCH  22  26
ENDBRANCH  12  22
TORSDOF 4
ENDMDL
MODEL 2
REMARK VINA RESULT:     -11.9      1.368      1.548
REMARK  Name = 10138993
REMARK  4 active torsions:
REMARK  status: ('A' for Active; 'I' for Inactive)
REMARK    1  A    between atoms: C_5  and  N_18
REMARK    2  A    between atoms: C_12  and  C_22
REMARK    3  A    between atoms: C_22  and  C_26
REMARK    4  A    between atoms: C_23  and  N_29
REMARK                            x       y       z     vdW  Elec       q    Type
REMARK                         _______ _______ _______ _____ _____    ______ ____
ROOT
ATOM      1  O   UNL     1      33.223 -21.205 -20.334  0.00  0.00    -0.274 OA
ATOM      2  N   UNL     1      32.045 -23.292 -16.880  0.00  0.00    -0.275 N 
ATOM      3  N   UNL     1      34.688 -22.167 -18.770  0.00  0.00    -0.268 N 
ATOM      4  N   UNL     1      32.495 -22.638 -17.964  0.00  0.00    -0.157 NA
ATOM      5  C   UNL     1      35.419 -24.516 -14.902  0.00  0.00    +0.069 C 
ATOM      6  C   UNL     1      35.446 -23.790 -16.099  0.00  0.00    +0.020 C 
ATOM      7  C   UNL     1      34.207 -24.869 -14.304  0.00  0.00    +0.018 C 
ATOM      8  C   UNL     1      34.226 -23.423 -16.690  0.00  0.00    +0.052 A 
ATOM      9  C   UNL     1      33.034 -23.788 -16.074  0.00  0.00    +0.077 A 
ATOM     10  C   UNL     1      32.984 -24.511 -14.880  0.00  0.00    +0.020 C 
ATOM     11  C   UNL     1      33.810 -22.727 -17.833  0.00  0.00    +0.155 A 
ATOM     12  C   UNL     1      34.349 -21.464 -19.923  0.00  0.00    +0.232 C 
ATOM     13  H   UNL     1      31.087 -23.406 -16.683  0.00  0.00    +0.189 HD
ATOM     14  H   UNL     1      35.649 -22.282 -18.594  0.00  0.00    +0.156 HD
ENDROOT
BRANCH   5  18
ATOM     15  S   UNL     1      36.840 -24.666 -12.559  0.00  0.00    +0.057 S 
ATOM     16  O   UNL     1      36.262 -23.397 -12.163  0.00  0.00    -0.154 OA
ATOM     17  O   UNL     1      36.531 -25.902 -11.870  0.00  0.00    -0.154 OA
ATOM     18  N   UNL     1      36.669 -24.906 -14.274  0.00  0.00    -0.194 N 
ATOM     19  C   UNL     1      38.613 -24.466 -12.630  0.00  0.00    +0.174 C 
ATOM     20  C   UNL     1      39.032 -25.090 -13.950  0.00  0.00    +0.051 C 
ATOM     21  C   UNL     1      37.969 -24.681 -14.967  0.00  0.00    +0.117 C 
ENDBRANCH   5  18
BRANCH  12  22
ATOM     22  C   UNL     1      35.601 -21.017 -20.675  0.00  0.00    +0.112 C 
BRANCH  22  26
ATOM     23  C   UNL     1      34.986 -17.596 -23.218  0.00  0.00    +0.048 C 
ATOM     24  C   UNL     1      34.736 -18.901 -23.687  0.00  0.00    +0.014 C 
ATOM     25  C   UNL     1      35.441 -17.441 -21.895  0.00  0.00    +0.014 C 
ATOM     26  C   UNL     1      35.388 -19.832 -21.555  0.00  0.00    -0.013 C 
ATOM     27  C   UNL     1      34.936 -20.009 -22.864  0.00  0.00    -0.003 C 
ATOM     28  C   UNL     1      35.640 -18.549 -21.072  0.00  0.00    -0.003 C 
BRANCH  23  29
ATOM     29  N   UNL     1      34.785 -16.483 -24.046  0.00  0.00    -0.307 N 
ATOM     30  C   UNL     1      34.500 -14.222 -25.816  0.00  0.00    +0.004 C 
ATOM     31  C   UNL     1      34.367 -14.070 -24.306  0.00  0.00    +0.021 C 
ATOM     32  C   UNL     1      34.076 -15.623 -26.243  0.00  0.00    +0.021 C 
ATOM     33  C   UNL     1      35.152 -15.148 -23.560  0.00  0.00    +0.091 C 
ATOM     34  C   UNL     1      34.867 -16.696 -25.498  0.00  0.00    +0.091 C 
ENDBRANCH  23  29
ENDBRANCH  22  26
ENDBRANCH  12  22
TORSDOF 4
ENDMDL
MODEL 3
REMARK VINA RESULT:     -10.3      3.047      4.912
REMARK  Name = 10138993
REMARK  4 active torsions:
REMARK  status: ('A' for Active; 'I' for Inactive)
REMARK    1  A    between atoms: C_5  and  N_18
REMARK    2  A    between atoms: C_12  and  C_22
REMARK    3  A    between atoms: C_22  and  C_26
REMARK    4  A    between atoms: C_23  and  N_29
REMARK                            x       y       z     vdW  Elec       q    Type
REMARK                         _______ _______ _______ _____ _____    ______ ____
ROOT
ATOM      1  O   UNL     1      37.753 -21.712 -18.380  0.00  0.00    -0.274 OA
ATOM      2  N   UNL     1      35.953 -22.784 -14.736  0.00  0.00    -0.275 N 
ATOM      3  N   UNL     1      35.542 -22.465 -18.135  0.00  0.00    -0.268 N 
ATOM      4  N   UNL     1      36.462 -22.458 -15.936  0.00  0.00    -0.157 NA
ATOM      5  C   UNL     1      32.096 -23.942 -15.496  0.00  0.00    +0.069 C 
ATOM      6  C   UNL     1      32.986 -23.519 -16.491  0.00  0.00    +0.020 C 
ATOM      7  C   UNL     1      32.489 -23.994 -14.157  0.00  0.00    +0.018 C 
ATOM      8  C   UNL     1      34.287 -23.145 -16.115  0.00  0.00    +0.052 A 
ATOM      9  C   UNL     1      34.651 -23.204 -14.774  0.00  0.00    +0.077 A 
ATOM     10  C   UNL     1      33.780 -23.623 -13.766  0.00  0.00    +0.020 C 
ATOM     11  C   UNL     1      35.444 -22.681 -16.754  0.00  0.00    +0.155 A 
ATOM     12  C   UNL     1      36.654 -22.008 -18.837  0.00  0.00    +0.232 C 
ATOM     13  H   UNL     1      36.472 -22.725 -13.901  0.00  0.00    +0.189 HD
ATOM     14  H   UNL     1      34.736 -22.656 -18.667  0.00  0.00    +0.156 HD
ENDROOT
BRANCH   5  18
ATOM     15  S   UNL     1      29.564 -23.083 -16.113  0.00  0.00    +0.057 S 
ATOM     16  O   UNL     1      29.706 -22.042 -15.115  0.00  0.00    -0.154 OA
ATOM     17  O   UNL     1      29.471 -22.788 -17.528  0.00  0.00    -0.154 OA
ATOM     18  N   UNL     1      30.747 -24.334 -15.863  0.00  0.00    -0.194 N 
ATOM     19  C   UNL     1      28.182 -24.113 -15.641  0.00  0.00    +0.174 C 
ATOM     20  C   UNL     1      28.683 -25.541 -15.783  0.00  0.00    +0.051 C 
ATOM     21  C   UNL     1      30.116 -25.540 -15.255  0.00  0.00    +0.117 C 
ENDBRANCH   5  18
BRANCH  12  22
ATOM     22  C   UNL     1      36.351 -21.909 -20.330  0.00  0.00    +0.112 C 
BRANCH  22  26
ATOM     23  C   UNL     1      35.413 -17.922 -21.663  0.00  0.00    +0.048 C 
ATOM     24  C   UNL     1      34.395 -18.869 -21.441  0.00  0.00    +0.014 C 
ATOM     25  C   UNL     1      36.746 -18.314 -21.436  0.00  0.00    +0.014 C 
ATOM     26  C   UNL     1      36.027 -20.528 -20.791  0.00  0.00    -0.013 C 
ATOM     27  C   UNL     1      34.698 -20.160 -21.010  0.00  0.00    -0.003 C 
ATOM     28  C   UNL     1      37.050 -19.605 -21.005  0.00  0.00    -0.003 C 
BRANCH  23  29
ATOM     29  N   UNL     1      35.108 -16.624 -22.096  0.00  0.00    -0.307 N 
ATOM     30  C   UNL     1      34.625 -13.931 -23.014  0.00  0.00    +0.004 C 
ATOM     31  C   UNL     1      34.098 -14.419 -21.670  0.00  0.00    +0.021 C 
ATOM     32  C   UNL     1      34.730 -15.096 -23.991  0.00  0.00    +0.021 C 
ATOM     33  C   UNL     1      34.955 -15.552 -21.106  0.00  0.00    +0.091 C 
ATOM     34  C   UNL     1      35.591 -16.223 -23.425  0.00  0.00    +0.091 C 
ENDBRANCH  23  29
ENDBRANCH  22  26
ENDBRANCH  12  22
TORSDOF 4
ENDMDL
MODEL 4
REMARK VINA RESULT:     -10.1      8.748     15.837
REMARK  Name = 10138993
REMARK  4 active torsions:
REMARK  status: ('A' for Active; 'I' for Inactive)
REMARK    1  A    between atoms: C_5  and  N_18
REMARK    2  A    between atoms: C_12  and  C_22
REMARK    3  A    between atoms: C_22  and  C_26
REMARK    4  A    between atoms: C_23  and  N_29
REMARK                            x       y       z     vdW  Elec       q    Type
REMARK                         _______ _______ _______ _____ _____    ______ ____
ROOT
ATOM      1  O   UNL     1      32.844 -11.363 -22.650  0.00  0.00    -0.274 OA
ATOM      2  N   UNL     1      31.626  -7.548 -21.372  0.00  0.00    -0.275 N 
ATOM      3  N   UNL     1      33.037  -9.390 -23.909  0.00  0.00    -0.268 N 
ATOM      4  N   UNL     1      32.038  -8.736 -21.846  0.00  0.00    -0.157 NA
ATOM      5  C   UNL     1      32.435  -4.868 -24.365  0.00  0.00    +0.069 C 
ATOM      6  C   UNL     1      32.715  -6.237 -24.457  0.00  0.00    +0.020 C 
ATOM      7  C   UNL     1      31.847  -4.332 -23.216  0.00  0.00    +0.018 C 
ATOM      8  C   UNL     1      32.394  -7.064 -23.368  0.00  0.00    +0.052 A 
ATOM      9  C   UNL     1      31.812  -6.504 -22.236  0.00  0.00    +0.077 A 
ATOM     10  C   UNL     1      31.523  -5.142 -22.123  0.00  0.00    +0.020 C 
ATOM     11  C   UNL     1      32.498  -8.425 -23.049  0.00  0.00    +0.155 A 
ATOM     12  C   UNL     1      33.171 -10.753 -23.662  0.00  0.00    +0.232 C 
ATOM     13  H   UNL     1      31.226  -7.439 -20.479  0.00  0.00    +0.189 HD
ATOM     14  H   UNL     1      33.356  -9.070 -24.783  0.00  0.00    +0.156 HD
ENDROOT
BRANCH   5  18
ATOM     15  S   UNL     1      34.104  -4.421 -26.497  0.00  0.00    +0.057 S 
ATOM     16  O   UNL     1      35.207  -4.917 -25.698  0.00  0.00    -0.154 OA
ATOM     17  O   UNL     1      33.618  -5.127 -27.664  0.00  0.00    -0.154 OA
ATOM     18  N   UNL     1      32.757  -3.996 -25.480  0.00  0.00    -0.194 N 
ATOM     19  C   UNL     1      34.467  -2.730 -26.947  0.00  0.00    +0.174 C 
ATOM     20  C   UNL     1      33.191  -1.958 -26.655  0.00  0.00    +0.051 C 
ATOM     21  C   UNL     1      32.652  -2.515 -25.340  0.00  0.00    +0.117 C 
ENDBRANCH   5  18
BRANCH  12  22
ATOM     22  C   UNL     1      33.806 -11.462 -24.856  0.00  0.00    +0.112 C 
BRANCH  22  26
ATOM     23  C   UNL     1      34.589 -15.646 -24.196  0.00  0.00    +0.048 C 
ATOM     24  C   UNL     1      34.023 -15.197 -25.405  0.00  0.00    +0.014 C 
ATOM     25  C   UNL     1      34.892 -14.688 -23.209  0.00  0.00    +0.014 C 
ATOM     26  C   UNL     1      34.078 -12.910 -24.627  0.00  0.00    -0.013 C 
ATOM     27  C   UNL     1      33.769 -13.843 -25.619  0.00  0.00    -0.003 C 
ATOM     28  C   UNL     1      34.639 -13.333 -23.423  0.00  0.00    -0.003 C 
BRANCH  23  29
ATOM     29  N   UNL     1      34.844 -17.006 -23.981  0.00  0.00    -0.307 N 
ATOM     30  C   UNL     1      35.516 -19.779 -23.546  0.00  0.00    +0.004 C 
ATOM     31  C   UNL     1      34.533 -19.361 -24.632  0.00  0.00    +0.021 C 
ATOM     32  C   UNL     1      35.484 -18.781 -22.395  0.00  0.00    +0.021 C 
ATOM     33  C   UNL     1      34.800 -17.936 -25.116  0.00  0.00    +0.091 C 
ATOM     34  C   UNL     1      35.756 -17.359 -22.883  0.00  0.00    +0.091 C 
ENDBRANCH  23  29
ENDBRANCH  22  26
ENDBRANCH  12  22
TORSDOF 4
ENDMDL
