MODEL 1
REMARK VINA RESULT:     -11.0      0.000      0.000
REMARK  Name = 3152
REMARK  6 active torsions:
REMARK  status: ('A' for Active; 'I' for Inactive)
REMARK    1  A    between atoms: C_1  and  C_3
REMARK    2  A    between atoms: C_1  and  C_17
REMARK    3  A    between atoms: C_10  and  O_12
REMARK    4  A    between atoms: C_11  and  O_14
REMARK    5  A    between atoms: N_16  and  C_23
REMARK    6  A    between atoms: C_23  and  C_24
REMARK                            x       y       z     vdW  Elec       q    Type
REMARK                         _______ _______ _______ _____ _____    ______ ____
ROOT
ATOM      1  C   UNL     1      35.110 -19.862 -23.058  0.00  0.00    +0.008 C 
ENDROOT
BRANCH   1   3
ATOM      2  O   UNL     1      32.645 -20.434 -21.409  0.00  0.00    -0.291 OA
ATOM      3  C   UNL     1      34.963 -19.662 -21.562  0.00  0.00    +0.066 C 
ATOM      4  C   UNL     1      36.194 -20.162 -20.772  0.00  0.00    +0.034 C 
ATOM      5  C   UNL     1      33.796 -20.462 -21.012  0.00  0.00    +0.173 C 
ATOM      6  C   UNL     1      35.622 -21.104 -19.761  0.00  0.00    -0.016 C 
ATOM      7  C   UNL     1      34.253 -21.286 -19.903  0.00  0.00    +0.034 C 
ATOM      8  C   UNL     1      36.305 -21.785 -18.765  0.00  0.00    +0.036 C 
ATOM      9  C   UNL     1      33.515 -22.125 -19.090  0.00  0.00    +0.043 C 
ATOM     10  C   UNL     1      35.585 -22.639 -17.924  0.00  0.00    +0.172 C 
ATOM     11  C   UNL     1      34.200 -22.809 -18.085  0.00  0.00    +0.172 C 
BRANCH  10  12
ATOM     12  O   UNL     1      36.247 -23.314 -16.940  0.00  0.00    -0.468 OA
ATOM     13  C   UNL     1      37.312 -22.626 -16.287  0.00  0.00    +0.253 C 
ENDBRANCH  10  12
BRANCH  11  14
ATOM     14  O   UNL     1      33.510 -23.647 -17.260  0.00  0.00    -0.468 OA
ATOM     15  C   UNL     1      32.238 -23.198 -16.798  0.00  0.00    +0.253 C 
ENDBRANCH  11  14
ENDBRANCH   1   3
BRANCH   1  17
ATOM     16  N   UNL     1      34.472 -15.861 -24.554  0.00  0.00    +0.390 N 
ATOM     17  C   UNL     1      35.371 -18.541 -23.774  0.00  0.00    -0.004 C 
ATOM     18  C   UNL     1      34.348 -18.309 -24.892  0.00  0.00    -0.023 C 
ATOM     19  C   UNL     1      35.337 -17.365 -22.791  0.00  0.00    -0.023 C 
ATOM     20  C   UNL     1      34.542 -16.940 -25.548  0.00  0.00    -0.077 C 
ATOM     21  C   UNL     1      35.499 -16.028 -23.517  0.00  0.00    -0.077 C 
ATOM     22  H   UNL     1      33.558 -15.908 -24.103  0.00  0.00    -0.079 HD
BRANCH  16  23
ATOM     23  C   UNL     1      34.606 -14.557 -25.203  0.00  0.00    -0.050 C 
BRANCH  23  24
ATOM     24  C   UNL     1      33.981 -13.457 -24.387  0.00  0.00    -0.043 C 
ATOM     25  C   UNL     1      33.164 -13.781 -23.314  0.00  0.00    -0.006 C 
ATOM     26  C   UNL     1      34.233 -12.132 -24.720  0.00  0.00    -0.006 C 
ATOM     27  C   UNL     1      32.585 -12.761 -22.559  0.00  0.00    -0.000 C 
ATOM     28  C   UNL     1      33.654 -11.112 -23.964  0.00  0.00    -0.000 C 
ATOM     29  C   UNL     1      32.831 -11.427 -22.883  0.00  0.00    -0.000 C 
ENDBRANCH  23  24
ENDBRANCH  16  23
ENDBRANCH   1  17
TORSDOF 6
ENDMDL
MODEL 2
REMARK VINA RESULT:     -10.9      1.995      3.839
REMARK  Name = 3152
REMARK  6 active torsions:
REMARK  status: ('A' for Active; 'I' for Inactive)
REMARK    1  A    between atoms: C_1  and  C_3
REMARK    2  A    between atoms: C_1  and  C_17
REMARK    3  A    between atoms: C_10  and  O_12
REMARK    4  A    between atoms: C_11  and  O_14
REMARK    5  A    between atoms: N_16  and  C_23
REMARK    6  A    between atoms: C_23  and  C_24
REMARK                            x       y       z     vdW  Elec       q    Type
REMARK                         _______ _______ _______ _____ _____    ______ ____
ROOT
ATOM      1  C   UNL     1      36.544 -20.534 -19.560  0.00  0.00    +0.008 C 
ENDROOT
BRANCH   1   3
ATOM      2  O   UNL     1      37.479 -22.262 -17.265  0.00  0.00    -0.291 OA
ATOM      3  C   UNL     1      36.090 -21.949 -19.258  0.00  0.00    +0.066 C 
ATOM      4  C   UNL     1      34.561 -22.126 -19.399  0.00  0.00    +0.034 C 
ATOM      5  C   UNL     1      36.396 -22.330 -17.820  0.00  0.00    +0.173 C 
ATOM      6  C   UNL     1      34.138 -22.705 -18.086  0.00  0.00    -0.016 C 
ATOM      7  C   UNL     1      35.184 -22.812 -17.178  0.00  0.00    +0.034 C 
ATOM      8  C   UNL     1      32.863 -23.103 -17.714  0.00  0.00    +0.036 C 
ATOM      9  C   UNL     1      35.023 -23.306 -15.897  0.00  0.00    +0.043 C 
ATOM     10  C   UNL     1      32.669 -23.609 -16.425  0.00  0.00    +0.172 C 
ATOM     11  C   UNL     1      33.741 -23.709 -15.522  0.00  0.00    +0.172 C 
BRANCH  10  12
ATOM     12  O   UNL     1      31.418 -24.003 -16.049  0.00  0.00    -0.468 OA
ATOM     13  C   UNL     1      30.343 -23.115 -16.345  0.00  0.00    +0.253 C 
ENDBRANCH  10  12
BRANCH  11  14
ATOM     14  O   UNL     1      33.537 -24.201 -14.267  0.00  0.00    -0.468 OA
ATOM     15  C   UNL     1      34.673 -24.274 -13.409  0.00  0.00    +0.253 C 
ENDBRANCH  11  14
ENDBRANCH   1   3
BRANCH   1  17
ATOM     16  N   UNL     1      35.630 -18.281 -23.129  0.00  0.00    +0.390 N 
ATOM     17  C   UNL     1      36.371 -20.197 -21.037  0.00  0.00    -0.004 C 
ATOM     18  C   UNL     1      34.913 -19.850 -21.357  0.00  0.00    -0.023 C 
ATOM     19  C   UNL     1      37.281 -19.033 -21.447  0.00  0.00    -0.023 C 
ATOM     20  C   UNL     1      34.751 -19.414 -22.815  0.00  0.00    -0.077 C 
ATOM     21  C   UNL     1      37.041 -18.624 -22.902  0.00  0.00    -0.077 C 
ATOM     22  H   UNL     1      35.390 -17.511 -22.504  0.00  0.00    -0.079 HD
BRANCH  16  23
ATOM     23  C   UNL     1      35.427 -17.842 -24.510  0.00  0.00    -0.050 C 
BRANCH  23  24
ATOM     24  C   UNL     1      34.871 -16.444 -24.579  0.00  0.00    -0.043 C 
ATOM     25  C   UNL     1      35.080 -15.572 -23.520  0.00  0.00    -0.006 C 
ATOM     26  C   UNL     1      34.158 -16.048 -25.702  0.00  0.00    -0.006 C 
ATOM     27  C   UNL     1      34.566 -14.278 -23.585  0.00  0.00    -0.000 C 
ATOM     28  C   UNL     1      33.643 -14.752 -25.767  0.00  0.00    -0.000 C 
ATOM     29  C   UNL     1      33.847 -13.868 -24.708  0.00  0.00    -0.000 C 
ENDBRANCH  23  24
ENDBRANCH  16  23
ENDBRANCH   1  17
TORSDOF 6
ENDMDL
MODEL 3
REMARK VINA RESULT:     -10.4      2.231      3.799
REMARK  Name = 3152
REMARK  6 active torsions:
REMARK  status: ('A' for Active; 'I' for Inactive)
REMARK    1  A    between atoms: C_1  and  C_3
REMARK    2  A    between atoms: C_1  and  C_17
REMARK    3  A    between atoms: C_10  and  O_12
REMARK    4  A    between atoms: C_11  and  O_14
REMARK    5  A    between atoms: N_16  and  C_23
REMARK    6  A    between atoms: C_23  and  C_24
REMARK                            x       y       z     vdW  Elec       q    Type
REMARK                         _______ _______ _______ _____ _____    ______ ____
ROOT
ATOM      1  C   UNL     1      36.180 -16.724 -22.262  0.00  0.00    +0.008 C 
ENDROOT
BRANCH   1   3
ATOM      2  O   UNL     1      38.050 -18.896 -21.309  0.00  0.00    -0.291 OA
ATOM      3  C   UNL     1      36.029 -18.212 -22.510  0.00  0.00    +0.066 C 
ATOM      4  C   UNL     1      34.578 -18.704 -22.304  0.00  0.00    +0.034 C 
ATOM      5  C   UNL     1      36.859 -19.021 -21.528  0.00  0.00    +0.173 C 
ATOM      6  C   UNL     1      34.709 -19.827 -21.323  0.00  0.00    -0.016 C 
ATOM      7  C   UNL     1      36.010 -20.002 -20.871  0.00  0.00    +0.034 C 
ATOM      8  C   UNL     1      33.699 -20.646 -20.843  0.00  0.00    +0.036 C 
ATOM      9  C   UNL     1      36.364 -20.970 -19.949  0.00  0.00    +0.043 C 
ATOM     10  C   UNL     1      34.026 -21.636 -19.912  0.00  0.00    +0.172 C 
ATOM     11  C   UNL     1      35.349 -21.797 -19.467  0.00  0.00    +0.172 C 
BRANCH  10  12
ATOM     12  O   UNL     1      33.040 -22.449 -19.433  0.00  0.00    -0.468 OA
ATOM     13  C   UNL     1      32.782 -22.395 -18.032  0.00  0.00    +0.253 C 
ENDBRANCH  10  12
BRANCH  11  14
ATOM     14  O   UNL     1      35.654 -22.764 -18.556  0.00  0.00    -0.468 OA
ATOM     15  C   UNL     1      36.386 -22.358 -17.402  0.00  0.00    +0.253 C 
ENDBRANCH  11  14
ENDBRANCH   1   3
BRANCH   1  17
ATOM     16  N   UNL     1      33.283 -13.521 -22.254  0.00  0.00    +0.390 N 
ATOM     17  C   UNL     1      34.838 -16.004 -22.351  0.00  0.00    -0.004 C 
ATOM     18  C   UNL     1      34.506 -15.293 -21.035  0.00  0.00    -0.023 C 
ATOM     19  C   UNL     1      34.830 -14.993 -23.502  0.00  0.00    -0.023 C 
ATOM     20  C   UNL     1      33.210 -14.486 -21.150  0.00  0.00    -0.077 C 
ATOM     21  C   UNL     1      33.523 -14.197 -23.536  0.00  0.00    -0.077 C 
ATOM     22  H   UNL     1      34.070 -12.896 -22.075  0.00  0.00    -0.079 HD
BRANCH  16  23
ATOM     23  C   UNL     1      32.059 -12.723 -22.319  0.00  0.00    -0.050 C 
BRANCH  23  24
ATOM     24  C   UNL     1      32.019 -11.667 -21.246  0.00  0.00    -0.043 C 
ATOM     25  C   UNL     1      32.234 -10.339 -21.586  0.00  0.00    -0.006 C 
ATOM     26  C   UNL     1      31.767 -12.037 -19.932  0.00  0.00    -0.006 C 
ATOM     27  C   UNL     1      32.196  -9.361 -20.593  0.00  0.00    -0.000 C 
ATOM     28  C   UNL     1      31.729 -11.058 -18.938  0.00  0.00    -0.000 C 
ATOM     29  C   UNL     1      31.944  -9.721 -19.269  0.00  0.00    -0.000 C 
ENDBRANCH  23  24
ENDBRANCH  16  23
ENDBRANCH   1  17
TORSDOF 6
ENDMDL
MODEL 4
REMARK VINA RESULT:     -10.3      2.308      4.006
REMARK  Name = 3152
REMARK  6 active torsions:
REMARK  status: ('A' for Active; 'I' for Inactive)
REMARK    1  A    between atoms: C_1  and  C_3
REMARK    2  A    between atoms: C_1  and  C_17
REMARK    3  A    between atoms: C_10  and  O_12
REMARK    4  A    between atoms: C_11  and  O_14
REMARK    5  A    between atoms: N_16  and  C_23
REMARK    6  A    between atoms: C_23  and  C_24
REMARK                            x       y       z     vdW  Elec       q    Type
REMARK                         _______ _______ _______ _____ _____    ______ ____
ROOT
ATOM      1  C   UNL     1      34.947 -22.594 -19.845  0.00  0.00    +0.008 C 
ENDROOT
BRANCH   1   3
ATOM      2  O   UNL     1      32.344 -22.645 -18.313  0.00  0.00    -0.291 OA
ATOM      3  C   UNL     1      34.712 -22.040 -18.453  0.00  0.00    +0.066 C 
ATOM      4  C   UNL     1      35.853 -22.396 -17.472  0.00  0.00    +0.034 C 
ATOM      5  C   UNL     1      33.461 -22.632 -17.828  0.00  0.00    +0.173 C 
ATOM      6  C   UNL     1      35.154 -23.046 -16.319  0.00  0.00    -0.016 C 
ATOM      7  C   UNL     1      33.788 -23.191 -16.526  0.00  0.00    +0.034 C 
ATOM      8  C   UNL     1      35.723 -23.503 -15.141  0.00  0.00    +0.036 C 
ATOM      9  C   UNL     1      32.944 -23.779 -15.602  0.00  0.00    +0.043 C 
ATOM     10  C   UNL     1      34.894 -24.100 -14.186  0.00  0.00    +0.172 C 
ATOM     11  C   UNL     1      33.515 -24.237 -14.415  0.00  0.00    +0.172 C 
BRANCH  10  12
ATOM     12  O   UNL     1      35.443 -24.554 -13.022  0.00  0.00    -0.468 OA
ATOM     13  C   UNL     1      36.550 -23.822 -12.501  0.00  0.00    +0.253 C 
ENDBRANCH  10  12
BRANCH  11  14
ATOM     14  O   UNL     1      32.718 -24.824 -13.476  0.00  0.00    -0.468 OA
ATOM     15  C   UNL     1      31.362 -25.069 -13.840  0.00  0.00    +0.253 C 
ENDBRANCH  11  14
ENDBRANCH   1   3
BRANCH   1  17
ATOM     16  N   UNL     1      35.869 -18.680 -21.420  0.00  0.00    +0.390 N 
ATOM     17  C   UNL     1      35.448 -21.514 -20.798  0.00  0.00    -0.004 C 
ATOM     18  C   UNL     1      34.306 -20.589 -21.233  0.00  0.00    -0.023 C 
ATOM     19  C   UNL     1      36.567 -20.688 -20.154  0.00  0.00    -0.023 C 
ATOM     20  C   UNL     1      34.821 -19.444 -22.108  0.00  0.00    -0.077 C 
ATOM     21  C   UNL     1      37.007 -19.540 -21.065  0.00  0.00    -0.077 C 
ATOM     22  H   UNL     1      35.473 -18.310 -20.555  0.00  0.00    -0.079 HD
BRANCH  16  23
ATOM     23  C   UNL     1      36.314 -17.559 -22.247  0.00  0.00    -0.050 C 
BRANCH  23  24
ATOM     24  C   UNL     1      35.395 -16.372 -22.126  0.00  0.00    -0.043 C 
ATOM     25  C   UNL     1      34.933 -15.990 -20.875  0.00  0.00    -0.006 C 
ATOM     26  C   UNL     1      35.023 -15.677 -23.269  0.00  0.00    -0.006 C 
ATOM     27  C   UNL     1      34.083 -14.890 -20.764  0.00  0.00    -0.000 C 
ATOM     28  C   UNL     1      34.173 -14.577 -23.158  0.00  0.00    -0.000 C 
ATOM     29  C   UNL     1      33.702 -14.183 -21.905  0.00  0.00    -0.000 C 
ENDBRANCH  23  24
ENDBRANCH  16  23
ENDBRANCH   1  17
TORSDOF 6
ENDMDL
MODEL 5
REMARK VINA RESULT:     -10.2      2.286      4.129
REMARK  Name = 3152
REMARK  6 active torsions:
REMARK  status: ('A' for Active; 'I' for Inactive)
REMARK    1  A    between atoms: C_1  and  C_3
REMARK    2  A    between atoms: C_1  and  C_17
REMARK    3  A    between atoms: C_10  and  O_12
REMARK    4  A    between atoms: C_11  and  O_14
REMARK    5  A    between atoms: N_16  and  C_23
REMARK    6  A    between atoms: C_23  and  C_24
REMARK                            x       y       z     vdW  Elec       q    Type
REMARK                         _______ _______ _______ _____ _____    ______ ____
ROOT
ATOM      1  C   UNL     1      35.288 -22.365 -19.756  0.00  0.00    +0.008 C 
ENDROOT
BRANCH   1   3
ATOM      2  O   UNL     1      33.479 -22.860 -17.387  0.00  0.00    -0.291 OA
ATOM      3  C   UNL     1      35.502 -21.863 -18.341  0.00  0.00    +0.066 C 
ATOM      4  C   UNL     1      36.965 -22.025 -17.868  0.00  0.00    +0.034 C 
ATOM      5  C   UNL     1      34.680 -22.660 -17.343  0.00  0.00    +0.173 C 
ATOM      6  C   UNL     1      36.853 -22.786 -16.586  0.00  0.00    -0.016 C 
ATOM      7  C   UNL     1      35.548 -23.160 -16.289  0.00  0.00    +0.034 C 
ATOM      8  C   UNL     1      37.882 -23.145 -15.728  0.00  0.00    +0.036 C 
ATOM      9  C   UNL     1      35.209 -23.885 -15.162  0.00  0.00    +0.043 C 
ATOM     10  C   UNL     1      37.569 -23.876 -14.578  0.00  0.00    +0.172 C 
ATOM     11  C   UNL     1      36.243 -24.244 -14.297  0.00  0.00    +0.172 C 
BRANCH  10  12
ATOM     12  O   UNL     1      38.574 -24.235 -13.727  0.00  0.00    -0.468 OA
ATOM     13  C   UNL     1      39.272 -25.442 -14.022  0.00  0.00    +0.253 C 
ENDBRANCH  10  12
BRANCH  11  14
ATOM     14  O   UNL     1      35.952 -24.960 -13.173  0.00  0.00    -0.468 OA
ATOM     15  C   UNL     1      35.621 -24.218 -12.002  0.00  0.00    +0.253 C 
ENDBRANCH  11  14
ENDBRANCH   1   3
BRANCH   1  17
ATOM     16  N   UNL     1      35.842 -18.486 -21.572  0.00  0.00    +0.390 N 
ATOM     17  C   UNL     1      35.663 -21.305 -20.786  0.00  0.00    -0.004 C 
ATOM     18  C   UNL     1      34.436 -20.490 -21.210  0.00  0.00    -0.023 C 
ATOM     19  C   UNL     1      36.746 -20.367 -20.242  0.00  0.00    -0.023 C 
ATOM     20  C   UNL     1      34.824 -19.360 -22.167  0.00  0.00    -0.077 C 
ATOM     21  C   UNL     1      37.056 -19.242 -21.232  0.00  0.00    -0.077 C 
ATOM     22  H   UNL     1      35.461 -18.099 -20.708  0.00  0.00    -0.079 HD
BRANCH  16  23
ATOM     23  C   UNL     1      36.163 -17.383 -22.476  0.00  0.00    -0.050 C 
BRANCH  23  24
ATOM     24  C   UNL     1      35.273 -16.190 -22.247  0.00  0.00    -0.043 C 
ATOM     25  C   UNL     1      34.874 -15.874 -20.956  0.00  0.00    -0.006 C 
ATOM     26  C   UNL     1      34.865 -15.424 -23.330  0.00  0.00    -0.006 C 
ATOM     27  C   UNL     1      34.049 -14.769 -20.744  0.00  0.00    -0.000 C 
ATOM     28  C   UNL     1      34.040 -14.319 -23.118  0.00  0.00    -0.000 C 
ATOM     29  C   UNL     1      33.633 -13.992 -21.825  0.00  0.00    -0.000 C 
ENDBRANCH  23  24
ENDBRANCH  16  23
ENDBRANCH   1  17
TORSDOF 6
ENDMDL
MODEL 6
REMARK VINA RESULT:     -10.1      4.289      9.667
REMARK  Name = 3152
REMARK  6 active torsions:
REMARK  status: ('A' for Active; 'I' for Inactive)
REMARK    1  A    between atoms: C_1  and  C_3
REMARK    2  A    between atoms: C_1  and  C_17
REMARK    3  A    between atoms: C_10  and  O_12
REMARK    4  A    between atoms: C_11  and  O_14
REMARK    5  A    between atoms: N_16  and  C_23
REMARK    6  A    between atoms: C_23  and  C_24
REMARK                            x       y       z     vdW  Elec       q    Type
REMARK                         _______ _______ _______ _____ _____    ______ ____
ROOT
ATOM      1  C   UNL     1      34.581 -15.239 -24.276  0.00  0.00    +0.008 C 
ENDROOT
BRANCH   1   3
ATOM      2  O   UNL     1      34.674 -12.343 -25.132  0.00  0.00    -0.291 OA
ATOM      3  C   UNL     1      34.764 -14.038 -23.368  0.00  0.00    +0.066 C 
ATOM      4  C   UNL     1      33.911 -14.131 -22.082  0.00  0.00    +0.034 C 
ATOM      5  C   UNL     1      34.309 -12.759 -24.047  0.00  0.00    +0.173 C 
ATOM      6  C   UNL     1      33.136 -12.851 -22.065  0.00  0.00    -0.016 C 
ATOM      7  C   UNL     1      33.354 -12.071 -23.193  0.00  0.00    +0.034 C 
ATOM      8  C   UNL     1      32.257 -12.414 -21.086  0.00  0.00    +0.036 C 
ATOM      9  C   UNL     1      32.731 -10.854 -23.400  0.00  0.00    +0.043 C 
ATOM     10  C   UNL     1      31.614 -11.185 -21.266  0.00  0.00    +0.172 C 
ATOM     11  C   UNL     1      31.849 -10.411 -22.414  0.00  0.00    +0.172 C 
BRANCH  10  12
ATOM     12  O   UNL     1      30.748 -10.744 -20.309  0.00  0.00    -0.468 OA
ATOM     13  C   UNL     1      31.083 -11.027 -18.952  0.00  0.00    +0.253 C 
ENDBRANCH  10  12
BRANCH  11  14
ATOM     14  O   UNL     1      31.213  -9.216 -22.578  0.00  0.00    -0.468 OA
ATOM     15  C   UNL     1      32.003  -8.038 -22.437  0.00  0.00    +0.253 C 
ENDBRANCH  11  14
ENDBRANCH   1   3
BRANCH   1  17
ATOM     16  N   UNL     1      35.426 -18.962 -22.257  0.00  0.00    +0.390 N 
ATOM     17  C   UNL     1      35.356 -16.449 -23.766  0.00  0.00    -0.004 C 
ATOM     18  C   UNL     1      35.369 -16.488 -22.233  0.00  0.00    -0.023 C 
ATOM     19  C   UNL     1      34.765 -17.753 -24.312  0.00  0.00    -0.023 C 
ATOM     20  C   UNL     1      36.059 -17.753 -21.716  0.00  0.00    -0.077 C 
ATOM     21  C   UNL     1      35.476 -18.975 -23.725  0.00  0.00    -0.077 C 
ATOM     22  H   UNL     1      34.445 -18.957 -21.976  0.00  0.00    -0.079 HD
BRANCH  16  23
ATOM     23  C   UNL     1      36.062 -20.161 -21.713  0.00  0.00    -0.050 C 
BRANCH  23  24
ATOM     24  C   UNL     1      35.172 -20.871 -20.727  0.00  0.00    -0.043 C 
ATOM     25  C   UNL     1      35.718 -21.817 -19.872  0.00  0.00    -0.006 C 
ATOM     26  C   UNL     1      33.817 -20.569 -20.689  0.00  0.00    -0.006 C 
ATOM     27  C   UNL     1      34.894 -22.475 -18.959  0.00  0.00    -0.000 C 
ATOM     28  C   UNL     1      32.993 -21.227 -19.775  0.00  0.00    -0.000 C 
ATOM     29  C   UNL     1      33.531 -22.179 -18.911  0.00  0.00    -0.000 C 
ENDBRANCH  23  24
ENDBRANCH  16  23
ENDBRANCH   1  17
TORSDOF 6
ENDMDL
MODEL 7
REMARK VINA RESULT:      -9.9      2.245      4.923
REMARK  Name = 3152
REMARK  6 active torsions:
REMARK  status: ('A' for Active; 'I' for Inactive)
REMARK    1  A    between atoms: C_1  and  C_3
REMARK    2  A    between atoms: C_1  and  C_17
REMARK    3  A    between atoms: C_10  and  O_12
REMARK    4  A    between atoms: C_11  and  O_14
REMARK    5  A    between atoms: N_16  and  C_23
REMARK    6  A    between atoms: C_23  and  C_24
REMARK                            x       y       z     vdW  Elec       q    Type
REMARK                         _______ _______ _______ _____ _____    ______ ____
ROOT
ATOM      1  C   UNL     1      35.694 -21.881 -18.519  0.00  0.00    +0.008 C 
ENDROOT
BRANCH   1   3
ATOM      2  O   UNL     1      35.438 -24.140 -16.529  0.00  0.00    -0.291 OA
ATOM      3  C   UNL     1      34.588 -22.917 -18.472  0.00  0.00    +0.066 C 
ATOM      4  C   UNL     1      33.186 -22.299 -18.678  0.00  0.00    +0.034 C 
ATOM      5  C   UNL     1      34.521 -23.592 -17.114  0.00  0.00    +0.173 C 
ATOM      6  C   UNL     1      32.402 -22.768 -17.493  0.00  0.00    -0.016 C 
ATOM      7  C   UNL     1      33.167 -23.498 -16.592  0.00  0.00    +0.034 C 
ATOM      8  C   UNL     1      31.062 -22.535 -17.226  0.00  0.00    +0.036 C 
ATOM      9  C   UNL     1      32.656 -24.018 -15.418  0.00  0.00    +0.043 C 
ATOM     10  C   UNL     1      30.516 -23.051 -16.047  0.00  0.00    +0.172 C 
ATOM     11  C   UNL     1      31.307 -23.787 -15.149  0.00  0.00    +0.172 C 
BRANCH  10  12
ATOM     12  O   UNL     1      29.198 -22.827 -15.773  0.00  0.00    -0.468 OA
ATOM     13  C   UNL     1      28.323 -22.671 -16.888  0.00  0.00    +0.253 C 
ENDBRANCH  10  12
BRANCH  11  14
ATOM     14  O   UNL     1      30.762 -24.281 -14.001  0.00  0.00    -0.468 OA
ATOM     15  C   UNL     1      30.154 -25.569 -14.076  0.00  0.00    +0.253 C 
ENDBRANCH  11  14
ENDBRANCH   1   3
BRANCH   1  17
ATOM     16  N   UNL     1      35.778 -18.886 -21.629  0.00  0.00    +0.390 N 
ATOM     17  C   UNL     1      35.817 -21.257 -19.905  0.00  0.00    -0.004 C 
ATOM     18  C   UNL     1      34.515 -20.557 -20.311  0.00  0.00    -0.023 C 
ATOM     19  C   UNL     1      36.980 -20.261 -19.960  0.00  0.00    -0.023 C 
ATOM     20  C   UNL     1      34.665 -19.843 -21.657  0.00  0.00    -0.077 C 
ATOM     21  C   UNL     1      37.047 -19.558 -21.318  0.00  0.00    -0.077 C 
ATOM     22  H   UNL     1      35.592 -18.207 -20.891  0.00  0.00    -0.079 HD
BRANCH  16  23
ATOM     23  C   UNL     1      35.875 -18.175 -22.904  0.00  0.00    -0.050 C 
BRANCH  23  24
ATOM     24  C   UNL     1      35.397 -16.752 -22.791  0.00  0.00    -0.043 C 
ATOM     25  C   UNL     1      35.245 -15.990 -23.940  0.00  0.00    -0.006 C 
ATOM     26  C   UNL     1      35.116 -16.223 -21.539  0.00  0.00    -0.006 C 
ATOM     27  C   UNL     1      34.802 -14.671 -23.836  0.00  0.00    -0.000 C 
ATOM     28  C   UNL     1      34.672 -14.904 -21.435  0.00  0.00    -0.000 C 
ATOM     29  C   UNL     1      34.516 -14.128 -22.583  0.00  0.00    -0.000 C 
ENDBRANCH  23  24
ENDBRANCH  16  23
ENDBRANCH   1  17
TORSDOF 6
ENDMDL
MODEL 8
REMARK VINA RESULT:      -9.9      4.203      7.558
REMARK  Name = 3152
REMARK  6 active torsions:
REMARK  status: ('A' for Active; 'I' for Inactive)
REMARK    1  A    between atoms: C_1  and  C_3
REMARK    2  A    between atoms: C_1  and  C_17
REMARK    3  A    between atoms: C_10  and  O_12
REMARK    4  A    between atoms: C_11  and  O_14
REMARK    5  A    between atoms: N_16  and  C_23
REMARK    6  A    between atoms: C_23  and  C_24
REMARK                            x       y       z     vdW  Elec       q    Type
REMARK                         _______ _______ _______ _____ _____    ______ ____
ROOT
ATOM      1  C   UNL     1      34.331 -12.339 -25.262  0.00  0.00    +0.008 C 
ENDROOT
BRANCH   1   3
ATOM      2  O   UNL     1      33.762 -15.013 -26.546  0.00  0.00    -0.291 OA
ATOM      3  C   UNL     1      33.695 -13.541 -24.591  0.00  0.00    +0.066 C 
ATOM      4  C   UNL     1      34.259 -13.800 -23.175  0.00  0.00    +0.034 C 
ATOM      5  C   UNL     1      33.978 -14.817 -25.364  0.00  0.00    +0.173 C 
ATOM      6  C   UNL     1      34.703 -15.228 -23.215  0.00  0.00    -0.016 C 
ATOM      7  C   UNL     1      34.553 -15.808 -24.468  0.00  0.00    +0.034 C 
ATOM      8  C   UNL     1      35.236 -15.972 -22.173  0.00  0.00    +0.036 C 
ATOM      9  C   UNL     1      34.911 -17.115 -24.742  0.00  0.00    +0.043 C 
ATOM     10  C   UNL     1      35.605 -17.298 -22.419  0.00  0.00    +0.172 C 
ATOM     11  C   UNL     1      35.445 -17.866 -23.694  0.00  0.00    +0.172 C 
BRANCH  10  12
ATOM     12  O   UNL     1      36.130 -18.040 -21.401  0.00  0.00    -0.468 OA
ATOM     13  C   UNL     1      37.392 -18.660 -21.637  0.00  0.00    +0.253 C 
ENDBRANCH  10  12
BRANCH  11  14
ATOM     14  O   UNL     1      35.813 -19.159 -23.921  0.00  0.00    -0.468 OA
ATOM     15  C   UNL     1      34.953 -19.940 -24.747  0.00  0.00    +0.253 C 
ENDBRANCH  11  14
ENDBRANCH   1   3
BRANCH   1  17
ATOM     16  N   UNL     1      33.926  -8.322 -23.730  0.00  0.00    +0.390 N 
ATOM     17  C   UNL     1      34.424 -11.153 -24.308  0.00  0.00    -0.004 C 
ATOM     18  C   UNL     1      35.275 -10.028 -24.909  0.00  0.00    -0.023 C 
ATOM     19  C   UNL     1      33.032 -10.617 -23.958  0.00  0.00    -0.023 C 
ATOM     20  C   UNL     1      35.289  -8.796 -24.001  0.00  0.00    -0.077 C 
ATOM     21  C   UNL     1      33.120  -9.365 -23.082  0.00  0.00    -0.077 C 
ATOM     22  H   UNL     1      33.488  -8.095 -24.623  0.00  0.00    -0.079 HD
BRANCH  16  23
ATOM     23  C   UNL     1      33.958  -7.114 -22.905  0.00  0.00    -0.050 C 
BRANCH  23  24
ATOM     24  C   UNL     1      33.381  -5.925 -23.626  0.00  0.00    -0.043 C 
ATOM     25  C   UNL     1      32.351  -5.204 -23.039  0.00  0.00    -0.006 C 
ATOM     26  C   UNL     1      33.888  -5.568 -24.868  0.00  0.00    -0.006 C 
ATOM     27  C   UNL     1      31.817  -4.102 -23.708  0.00  0.00    -0.000 C 
ATOM     28  C   UNL     1      33.354  -4.465 -25.536  0.00  0.00    -0.000 C 
ATOM     29  C   UNL     1      32.319  -3.733 -24.956  0.00  0.00    -0.000 C 
ENDBRANCH  23  24
ENDBRANCH  16  23
ENDBRANCH   1  17
TORSDOF 6
ENDMDL
MODEL 9
REMARK VINA RESULT:      -9.6      1.811      3.331
REMARK  Name = 3152
REMARK  6 active torsions:
REMARK  status: ('A' for Active; 'I' for Inactive)
REMARK    1  A    between atoms: C_1  and  C_3
REMARK    2  A    between atoms: C_1  and  C_17
REMARK    3  A    between atoms: C_10  and  O_12
REMARK    4  A    between atoms: C_11  and  O_14
REMARK    5  A    between atoms: N_16  and  C_23
REMARK    6  A    between atoms: C_23  and  C_24
REMARK                            x       y       z     vdW  Elec       q    Type
REMARK                         _______ _______ _______ _____ _____    ______ ____
ROOT
ATOM      1  C   UNL     1      34.265 -20.400 -20.439  0.00  0.00    +0.008 C 
ENDROOT
BRANCH   1   3
ATOM      2  O   UNL     1      37.115 -20.638 -19.467  0.00  0.00    -0.291 OA
ATOM      3  C   UNL     1      34.974 -21.680 -20.037  0.00  0.00    +0.066 C 
ATOM      4  C   UNL     1      34.091 -22.598 -19.161  0.00  0.00    +0.034 C 
ATOM      5  C   UNL     1      36.197 -21.387 -19.186  0.00  0.00    +0.173 C 
ATOM      6  C   UNL     1      34.924 -22.855 -17.946  0.00  0.00    -0.016 C 
ATOM      7  C   UNL     1      36.124 -22.155 -17.953  0.00  0.00    +0.034 C 
ATOM      8  C   UNL     1      34.611 -23.670 -16.869  0.00  0.00    +0.036 C 
ATOM      9  C   UNL     1      37.045 -22.228 -16.925  0.00  0.00    +0.043 C 
ATOM     10  C   UNL     1      35.525 -23.766 -15.815  0.00  0.00    +0.172 C 
ATOM     11  C   UNL     1      36.733 -23.049 -15.842  0.00  0.00    +0.172 C 
BRANCH  10  12
ATOM     12  O   UNL     1      35.227 -24.565 -14.750  0.00  0.00    -0.468 OA
ATOM     13  C   UNL     1      34.065 -24.231 -13.995  0.00  0.00    +0.253 C 
ENDBRANCH  10  12
BRANCH  11  14
ATOM     14  O   UNL     1      37.613 -23.149 -14.805  0.00  0.00    -0.468 OA
ATOM     15  C   UNL     1      38.464 -24.293 -14.787  0.00  0.00    +0.253 C 
ENDBRANCH  11  14
ENDBRANCH   1   3
BRANCH   1  17
ATOM     16  N   UNL     1      34.924 -17.689 -23.735  0.00  0.00    +0.390 N 
ATOM     17  C   UNL     1      34.908 -19.770 -21.670  0.00  0.00    -0.004 C 
ATOM     18  C   UNL     1      33.948 -19.789 -22.864  0.00  0.00    -0.023 C 
ATOM     19  C   UNL     1      35.350 -18.331 -21.384  0.00  0.00    -0.023 C 
ATOM     20  C   UNL     1      34.549 -19.067 -24.073  0.00  0.00    -0.077 C 
ATOM     21  C   UNL     1      35.906 -17.658 -22.642  0.00  0.00    -0.077 C 
ATOM     22  H   UNL     1      34.085 -17.202 -23.418  0.00  0.00    -0.079 HD
BRANCH  16  23
ATOM     23  C   UNL     1      35.449 -16.997 -24.912  0.00  0.00    -0.050 C 
BRANCH  23  24
ATOM     24  C   UNL     1      34.782 -15.664 -25.124  0.00  0.00    -0.043 C 
ATOM     25  C   UNL     1      34.079 -15.430 -26.298  0.00  0.00    -0.006 C 
ATOM     26  C   UNL     1      34.880 -14.687 -24.142  0.00  0.00    -0.006 C 
ATOM     27  C   UNL     1      33.461 -14.195 -26.494  0.00  0.00    -0.000 C 
ATOM     28  C   UNL     1      34.261 -13.452 -24.338  0.00  0.00    -0.000 C 
ATOM     29  C   UNL     1      33.552 -13.206 -25.514  0.00  0.00    -0.000 C 
ENDBRANCH  23  24
ENDBRANCH  16  23
ENDBRANCH   1  17
TORSDOF 6
ENDMDL
