MODEL 1
REMARK VINA RESULT:     -10.9      0.000      0.000
REMARK  Name = 4369285
REMARK  9 active torsions:
REMARK  status: ('A' for Active; 'I' for Inactive)
REMARK    1  A    between atoms: N_1  and  C_18
REMARK    2  A    between atoms: N_2  and  C_8
REMARK    3  A    between atoms: C_11  and  C_17
REMARK    4  A    between atoms: C_18  and  C_19
REMARK    5  A    between atoms: C_19  and  C_21
REMARK    6  A    between atoms: C_21  and  C_22
REMARK    7  A    between atoms: C_25  and  N_30
REMARK    8  A    between atoms: C_26  and  O_31
REMARK    9  A    between atoms: C_27  and  O_33
REMARK                            x       y       z     vdW  Elec       q    Type
REMARK                         _______ _______ _______ _____ _____    ______ ____
ROOT
ATOM      1  N   UNL     1      33.727 -23.072 -18.197  0.00  0.00    +0.390 N 
ATOM      2  N   UNL     1      34.959 -21.176 -19.943  0.00  0.00    -0.312 N 
ATOM      3  C   UNL     1      35.063 -22.542 -17.895  0.00  0.00    -0.055 C 
ATOM      4  C   UNL     1      32.920 -22.041 -18.862  0.00  0.00    -0.055 C 
ATOM      5  C   UNL     1      35.786 -22.113 -19.175  0.00  0.00    +0.068 C 
ATOM      6  C   UNL     1      33.571 -21.595 -20.174  0.00  0.00    +0.068 C 
ATOM      7  H   UNL     1      33.824 -23.870 -18.823  0.00  0.00    -0.080 HD
ENDROOT
BRANCH   2   8
ATOM      8  C   UNL     1      35.558 -20.336 -20.889  0.00  0.00    +0.048 C 
ATOM      9  C   UNL     1      34.951 -20.100 -22.138  0.00  0.00    +0.018 C 
ATOM     10  C   UNL     1      36.787 -19.700 -20.619  0.00  0.00    +0.015 C 
ATOM     11  C   UNL     1      35.549 -19.263 -23.080  0.00  0.00    +0.073 C 
ATOM     12  C   UNL     1      37.385 -18.862 -21.561  0.00  0.00    +0.001 C 
ATOM     13  C   UNL     1      36.765 -18.644 -22.792  0.00  0.00    +0.004 C 
BRANCH  11  17
ATOM     14  F   UNL     1      33.526 -19.139 -24.353  0.00  0.00    -0.166 F 
ATOM     15  F   UNL     1      35.130 -17.792 -24.919  0.00  0.00    -0.166 F 
ATOM     16  F   UNL     1      35.295 -19.916 -25.352  0.00  0.00    -0.166 F 
ATOM     17  C   UNL     1      34.888 -19.030 -24.396  0.00  0.00    +0.419 C 
ENDBRANCH  11  17
ENDBRANCH   2   8
BRANCH   1  18
ATOM     18  C   UNL     1      33.069 -23.528 -16.974  0.00  0.00    -0.069 C 
BRANCH  18  19
ATOM     19  C   UNL     1      33.787 -22.999 -15.732  0.00  0.00    +0.046 C 
BRANCH  19  21
ATOM     20  O   UNL     1      33.033 -24.471 -13.977  0.00  0.00    -0.291 OA
ATOM     21  C   UNL     1      33.967 -24.077 -14.673  0.00  0.00    +0.171 C 
BRANCH  21  22
ATOM     22  C   UNL     1      35.322 -24.672 -14.478  0.00  0.00    +0.039 C 
ATOM     23  C   UNL     1      36.061 -24.286 -13.383  0.00  0.00    +0.030 C 
ATOM     24  C   UNL     1      35.780 -25.584 -15.401  0.00  0.00    +0.043 C 
ATOM     25  C   UNL     1      37.327 -24.840 -13.203  0.00  0.00    +0.179 C 
ATOM     26  C   UNL     1      37.046 -26.140 -15.220  0.00  0.00    +0.169 C 
ATOM     27  C   UNL     1      37.820 -25.769 -14.120  0.00  0.00    +0.190 C 
BRANCH  25  30
ATOM     28  O   UNL     1      39.220 -23.916 -12.264  0.00  0.00    -0.126 OA
ATOM     29  O   UNL     1      37.643 -24.652 -10.926  0.00  0.00    -0.126 OA
ATOM     30  N   UNL     1      38.102 -24.450 -12.075  0.00  0.00    +0.061 N 
ENDBRANCH  25  30
BRANCH  26  31
ATOM     31  O   UNL     1      37.515 -27.044 -16.124  0.00  0.00    -0.503 OA
ATOM     32  H   UNL     1      37.013 -27.810 -16.325  0.00  0.00    +0.292 HD
ENDBRANCH  26  31
BRANCH  27  33
ATOM     33  O   UNL     1      39.058 -26.318 -13.953  0.00  0.00    -0.502 OA
ATOM     34  H   UNL     1      39.214 -26.918 -13.250  0.00  0.00    +0.292 HD
ENDBRANCH  27  33
ENDBRANCH  21  22
ENDBRANCH  19  21
ENDBRANCH  18  19
ENDBRANCH   1  18
TORSDOF 9
ENDMDL
MODEL 2
REMARK VINA RESULT:     -10.8      3.894      5.892
REMARK  Name = 4369285
REMARK  9 active torsions:
REMARK  status: ('A' for Active; 'I' for Inactive)
REMARK    1  A    between atoms: N_1  and  C_18
REMARK    2  A    between atoms: N_2  and  C_8
REMARK    3  A    between atoms: C_11  and  C_17
REMARK    4  A    between atoms: C_18  and  C_19
REMARK    5  A    between atoms: C_19  and  C_21
REMARK    6  A    between atoms: C_21  and  C_22
REMARK    7  A    between atoms: C_25  and  N_30
REMARK    8  A    between atoms: C_26  and  O_31
REMARK    9  A    between atoms: C_27  and  O_33
REMARK                            x       y       z     vdW  Elec       q    Type
REMARK                         _______ _______ _______ _____ _____    ______ ____
ROOT
ATOM      1  N   UNL     1      35.298 -21.724 -19.876  0.00  0.00    +0.390 N 
ATOM      2  N   UNL     1      35.280 -19.283 -21.358  0.00  0.00    -0.312 N 
ATOM      3  C   UNL     1      36.431 -20.795 -19.791  0.00  0.00    -0.055 C 
ATOM      4  C   UNL     1      34.048 -20.973 -20.054  0.00  0.00    -0.055 C 
ATOM      5  C   UNL     1      36.550 -19.955 -21.066  0.00  0.00    +0.068 C 
ATOM      6  C   UNL     1      34.087 -20.139 -21.337  0.00  0.00    +0.068 C 
ATOM      7  H   UNL     1      35.433 -22.336 -20.681  0.00  0.00    -0.080 HD
ENDROOT
BRANCH   2   8
ATOM      8  C   UNL     1      35.265 -18.157 -22.190  0.00  0.00    +0.048 C 
ATOM      9  C   UNL     1      34.970 -16.878 -21.676  0.00  0.00    +0.018 C 
ATOM     10  C   UNL     1      35.546 -18.269 -23.567  0.00  0.00    +0.015 C 
ATOM     11  C   UNL     1      34.957 -15.757 -22.505  0.00  0.00    +0.073 C 
ATOM     12  C   UNL     1      35.532 -17.147 -24.396  0.00  0.00    +0.001 C 
ATOM     13  C   UNL     1      35.237 -15.891 -23.865  0.00  0.00    +0.004 C 
BRANCH  11  17
ATOM     14  F   UNL     1      35.009 -13.377 -22.749  0.00  0.00    -0.166 F 
ATOM     15  F   UNL     1      33.310 -14.222 -21.697  0.00  0.00    -0.166 F 
ATOM     16  F   UNL     1      35.266 -14.187 -20.747  0.00  0.00    -0.166 F 
ATOM     17  C   UNL     1      34.640 -14.415 -21.939  0.00  0.00    +0.419 C 
ENDBRANCH  11  17
ENDBRANCH   2   8
BRANCH   1  18
ATOM     18  C   UNL     1      35.228 -22.558 -18.677  0.00  0.00    -0.069 C 
BRANCH  18  19
ATOM     19  C   UNL     1      33.777 -22.797 -18.256  0.00  0.00    +0.046 C 
BRANCH  19  21
ATOM     20  O   UNL     1      34.603 -22.949 -15.996  0.00  0.00    -0.291 OA
ATOM     21  C   UNL     1      33.653 -23.078 -16.766  0.00  0.00    +0.171 C 
BRANCH  21  22
ATOM     22  C   UNL     1      32.334 -23.524 -16.228  0.00  0.00    +0.039 C 
ATOM     23  C   UNL     1      31.195 -23.207 -16.930  0.00  0.00    +0.030 C 
ATOM     24  C   UNL     1      32.310 -24.235 -15.049  0.00  0.00    +0.043 C 
ATOM     25  C   UNL     1      29.962 -23.622 -16.426  0.00  0.00    +0.179 C 
ATOM     26  C   UNL     1      31.078 -24.652 -14.546  0.00  0.00    +0.169 C 
ATOM     27  C   UNL     1      29.904 -24.346 -15.234  0.00  0.00    +0.190 C 
BRANCH  25  30
ATOM     28  O   UNL     1      28.072 -24.234 -17.595  0.00  0.00    -0.126 OA
ATOM     29  O   UNL     1      28.469 -22.096 -17.298  0.00  0.00    -0.126 OA
ATOM     30  N   UNL     1      28.776 -23.301 -17.142  0.00  0.00    +0.061 N 
ENDBRANCH  25  30
BRANCH  26  31
ATOM     31  O   UNL     1      31.036 -25.356 -13.381  0.00  0.00    -0.503 OA
ATOM     32  H   UNL     1      30.379 -26.013 -13.253  0.00  0.00    +0.292 HD
ENDBRANCH  26  31
BRANCH  27  33
ATOM     33  O   UNL     1      28.704 -24.758 -14.732  0.00  0.00    -0.502 OA
ATOM     34  H   UNL     1      28.647 -25.069 -13.850  0.00  0.00    +0.292 HD
ENDBRANCH  27  33
ENDBRANCH  21  22
ENDBRANCH  19  21
ENDBRANCH  18  19
ENDBRANCH   1  18
TORSDOF 9
ENDMDL
MODEL 3
REMARK VINA RESULT:     -10.8      5.668      8.049
REMARK  Name = 4369285
REMARK  9 active torsions:
REMARK  status: ('A' for Active; 'I' for Inactive)
REMARK    1  A    between atoms: N_1  and  C_18
REMARK    2  A    between atoms: N_2  and  C_8
REMARK    3  A    between atoms: C_11  and  C_17
REMARK    4  A    between atoms: C_18  and  C_19
REMARK    5  A    between atoms: C_19  and  C_21
REMARK    6  A    between atoms: C_21  and  C_22
REMARK    7  A    between atoms: C_25  and  N_30
REMARK    8  A    between atoms: C_26  and  O_31
REMARK    9  A    between atoms: C_27  and  O_33
REMARK                            x       y       z     vdW  Elec       q    Type
REMARK                         _______ _______ _______ _____ _____    ______ ____
ROOT
ATOM      1  N   UNL     1      35.798 -17.084 -23.351  0.00  0.00    +0.390 N 
ATOM      2  N   UNL     1      34.336 -14.647 -23.065  0.00  0.00    -0.312 N 
ATOM      3  C   UNL     1      35.117 -16.769 -22.088  0.00  0.00    -0.055 C 
ATOM      4  C   UNL     1      35.032 -16.541 -24.480  0.00  0.00    -0.055 C 
ATOM      5  C   UNL     1      34.984 -15.256 -21.898  0.00  0.00    +0.068 C 
ATOM      6  C   UNL     1      34.896 -15.020 -24.370  0.00  0.00    +0.068 C 
ATOM      7  H   UNL     1      36.723 -16.654 -23.342  0.00  0.00    -0.080 HD
ENDROOT
BRANCH   2   8
ATOM      8  C   UNL     1      33.729 -13.391 -22.945  0.00  0.00    +0.048 C 
ATOM      9  C   UNL     1      32.875 -13.097 -21.864  0.00  0.00    +0.018 C 
ATOM     10  C   UNL     1      33.955 -12.382 -23.903  0.00  0.00    +0.015 C 
ATOM     11  C   UNL     1      32.271 -11.846 -21.745  0.00  0.00    +0.073 C 
ATOM     12  C   UNL     1      33.351 -11.130 -23.784  0.00  0.00    +0.001 C 
ATOM     13  C   UNL     1      32.508 -10.862 -22.705  0.00  0.00    +0.004 C 
BRANCH  11  17
ATOM     14  F   UNL     1      30.041 -11.691 -20.890  0.00  0.00    -0.166 F 
ATOM     15  F   UNL     1      31.576 -12.377 -19.519  0.00  0.00    -0.166 F 
ATOM     16  F   UNL     1      31.512 -10.287 -20.118  0.00  0.00    -0.166 F 
ATOM     17  C   UNL     1      31.369 -11.560 -20.593  0.00  0.00    +0.419 C 
ENDBRANCH  11  17
ENDBRANCH   2   8
BRANCH   1  18
ATOM     18  C   UNL     1      35.968 -18.529 -23.494  0.00  0.00    -0.069 C 
BRANCH  18  19
ATOM     19  C   UNL     1      35.481 -19.267 -22.247  0.00  0.00    +0.046 C 
BRANCH  19  21
ATOM     20  O   UNL     1      37.742 -19.102 -21.425  0.00  0.00    -0.291 OA
ATOM     21  C   UNL     1      36.622 -19.590 -21.292  0.00  0.00    +0.171 C 
BRANCH  21  22
ATOM     22  C   UNL     1      36.366 -20.531 -20.161  0.00  0.00    +0.039 C 
ATOM     23  C   UNL     1      35.226 -21.300 -20.189  0.00  0.00    +0.030 C 
ATOM     24  C   UNL     1      37.281 -20.591 -19.135  0.00  0.00    +0.043 C 
ATOM     25  C   UNL     1      34.987 -22.177 -19.132  0.00  0.00    +0.179 C 
ATOM     26  C   UNL     1      37.042 -21.469 -18.078  0.00  0.00    +0.169 C 
ATOM     27  C   UNL     1      35.896 -22.263 -18.077  0.00  0.00    +0.190 C 
BRANCH  25  30
ATOM     28  O   UNL     1      32.709 -22.443 -18.891  0.00  0.00    -0.126 OA
ATOM     29  O   UNL     1      33.915 -24.200 -19.417  0.00  0.00    -0.126 OA
ATOM     30  N   UNL     1      33.812 -22.980 -19.148  0.00  0.00    +0.061 N 
ENDBRANCH  25  30
BRANCH  26  31
ATOM     31  O   UNL     1      37.937 -21.541 -17.054  0.00  0.00    -0.503 OA
ATOM     32  H   UNL     1      37.917 -20.902 -16.368  0.00  0.00    +0.292 HD
ENDBRANCH  26  31
BRANCH  27  33
ATOM     33  O   UNL     1      35.672 -23.118 -17.036  0.00  0.00    -0.502 OA
ATOM     34  H   UNL     1      35.366 -23.988 -17.202  0.00  0.00    +0.292 HD
ENDBRANCH  27  33
ENDBRANCH  21  22
ENDBRANCH  19  21
ENDBRANCH  18  19
ENDBRANCH   1  18
TORSDOF 9
ENDMDL
MODEL 4
REMARK VINA RESULT:     -10.7      6.556     10.616
REMARK  Name = 4369285
REMARK  9 active torsions:
REMARK  status: ('A' for Active; 'I' for Inactive)
REMARK    1  A    between atoms: N_1  and  C_18
REMARK    2  A    between atoms: N_2  and  C_8
REMARK    3  A    between atoms: C_11  and  C_17
REMARK    4  A    between atoms: C_18  and  C_19
REMARK    5  A    between atoms: C_19  and  C_21
REMARK    6  A    between atoms: C_21  and  C_22
REMARK    7  A    between atoms: C_25  and  N_30
REMARK    8  A    between atoms: C_26  and  O_31
REMARK    9  A    between atoms: C_27  and  O_33
REMARK                            x       y       z     vdW  Elec       q    Type
REMARK                         _______ _______ _______ _____ _____    ______ ____
ROOT
ATOM      1  N   UNL     1      35.752 -22.114 -19.458  0.00  0.00    +0.390 N 
ATOM      2  N   UNL     1      33.864 -22.745 -17.409  0.00  0.00    -0.312 N 
ATOM      3  C   UNL     1      34.336 -21.759 -19.616  0.00  0.00    -0.055 C 
ATOM      4  C   UNL     1      36.134 -22.022 -18.043  0.00  0.00    -0.055 C 
ATOM      5  C   UNL     1      33.439 -22.703 -18.812  0.00  0.00    +0.068 C 
ATOM      6  C   UNL     1      35.297 -22.975 -17.185  0.00  0.00    +0.068 C 
ATOM      7  H   UNL     1      35.888 -23.073 -19.775  0.00  0.00    -0.080 HD
ENDROOT
BRANCH   2   8
ATOM      8  C   UNL     1      32.968 -23.176 -16.424  0.00  0.00    +0.048 C 
ATOM      9  C   UNL     1      31.575 -23.109 -16.630  0.00  0.00    +0.018 C 
ATOM     10  C   UNL     1      33.431 -23.690 -15.197  0.00  0.00    +0.015 C 
ATOM     11  C   UNL     1      30.683 -23.539 -15.649  0.00  0.00    +0.073 C 
ATOM     12  C   UNL     1      32.538 -24.121 -14.215  0.00  0.00    +0.001 C 
ATOM     13  C   UNL     1      31.164 -24.045 -14.441  0.00  0.00    +0.004 C 
BRANCH  11  17
ATOM     14  F   UNL     1      28.638 -22.326 -15.382  0.00  0.00    -0.166 F 
ATOM     15  F   UNL     1      28.873 -23.467 -17.212  0.00  0.00    -0.166 F 
ATOM     16  F   UNL     1      28.531 -24.498 -15.328  0.00  0.00    -0.166 F 
ATOM     17  C   UNL     1      29.214 -23.457 -15.889  0.00  0.00    +0.419 C 
ENDBRANCH  11  17
ENDBRANCH   2   8
BRANCH   1  18
ATOM     18  C   UNL     1      36.594 -21.240 -20.273  0.00  0.00    -0.069 C 
BRANCH  18  19
ATOM     19  C   UNL     1      35.755 -20.189 -21.001  0.00  0.00    +0.046 C 
BRANCH  19  21
ATOM     20  O   UNL     1      37.833 -19.051 -21.448  0.00  0.00    -0.291 OA
ATOM     21  C   UNL     1      36.607 -19.051 -21.542  0.00  0.00    +0.171 C 
BRANCH  21  22
ATOM     22  C   UNL     1      35.928 -17.900 -22.209  0.00  0.00    +0.039 C 
ATOM     23  C   UNL     1      35.632 -17.996 -23.549  0.00  0.00    +0.030 C 
ATOM     24  C   UNL     1      35.625 -16.789 -21.456  0.00  0.00    +0.043 C 
ATOM     25  C   UNL     1      34.999 -16.921 -24.171  0.00  0.00    +0.179 C 
ATOM     26  C   UNL     1      34.991 -15.714 -22.078  0.00  0.00    +0.169 C 
ATOM     27  C   UNL     1      34.677 -15.780 -23.436  0.00  0.00    +0.190 C 
BRANCH  25  30
ATOM     28  O   UNL     1      34.010 -17.979 -25.965  0.00  0.00    -0.126 OA
ATOM     29  O   UNL     1      35.097 -16.107 -26.327  0.00  0.00    -0.126 OA
ATOM     30  N   UNL     1      34.687 -17.006 -25.556  0.00  0.00    +0.061 N 
ENDBRANCH  25  30
BRANCH  26  31
ATOM     31  O   UNL     1      34.684 -14.605 -21.348  0.00  0.00    -0.503 OA
ATOM     32  H   UNL     1      34.451 -13.808 -21.782  0.00  0.00    +0.292 HD
ENDBRANCH  26  31
BRANCH  27  33
ATOM     33  O   UNL     1      34.058 -14.721 -24.034  0.00  0.00    -0.502 OA
ATOM     34  H   UNL     1      34.309 -14.458 -24.898  0.00  0.00    +0.292 HD
ENDBRANCH  27  33
ENDBRANCH  21  22
ENDBRANCH  19  21
ENDBRANCH  18  19
ENDBRANCH   1  18
TORSDOF 9
ENDMDL
MODEL 5
REMARK VINA RESULT:     -10.6      6.514     10.415
REMARK  Name = 4369285
REMARK  9 active torsions:
REMARK  status: ('A' for Active; 'I' for Inactive)
REMARK    1  A    between atoms: N_1  and  C_18
REMARK    2  A    between atoms: N_2  and  C_8
REMARK    3  A    between atoms: C_11  and  C_17
REMARK    4  A    between atoms: C_18  and  C_19
REMARK    5  A    between atoms: C_19  and  C_21
REMARK    6  A    between atoms: C_21  and  C_22
REMARK    7  A    between atoms: C_25  and  N_30
REMARK    8  A    between atoms: C_26  and  O_31
REMARK    9  A    between atoms: C_27  and  O_33
REMARK                            x       y       z     vdW  Elec       q    Type
REMARK                         _______ _______ _______ _____ _____    ______ ____
ROOT
ATOM      1  N   UNL     1      35.757 -22.063 -19.476  0.00  0.00    +0.390 N 
ATOM      2  N   UNL     1      33.886 -22.747 -17.429  0.00  0.00    -0.312 N 
ATOM      3  C   UNL     1      34.341 -21.703 -19.613  0.00  0.00    -0.055 C 
ATOM      4  C   UNL     1      36.151 -22.011 -18.063  0.00  0.00    -0.055 C 
ATOM      5  C   UNL     1      33.449 -22.667 -18.827  0.00  0.00    +0.068 C 
ATOM      6  C   UNL     1      35.320 -22.985 -17.224  0.00  0.00    +0.068 C 
ATOM      7  H   UNL     1      35.889 -23.014 -19.820  0.00  0.00    -0.080 HD
ENDROOT
BRANCH   2   8
ATOM      8  C   UNL     1      32.997 -23.203 -16.449  0.00  0.00    +0.048 C 
ATOM      9  C   UNL     1      31.603 -23.120 -16.637  0.00  0.00    +0.018 C 
ATOM     10  C   UNL     1      33.470 -23.761 -15.244  0.00  0.00    +0.015 C 
ATOM     11  C   UNL     1      30.718 -23.575 -15.660  0.00  0.00    +0.073 C 
ATOM     12  C   UNL     1      32.585 -24.216 -14.266  0.00  0.00    +0.001 C 
ATOM     13  C   UNL     1      31.209 -24.123 -14.474  0.00  0.00    +0.004 C 
BRANCH  11  17
ATOM     14  F   UNL     1      28.888 -23.496 -17.199  0.00  0.00    -0.166 F 
ATOM     15  F   UNL     1      28.536 -24.486 -15.301  0.00  0.00    -0.166 F 
ATOM     16  F   UNL     1      28.718 -22.320 -15.377  0.00  0.00    -0.166 F 
ATOM     17  C   UNL     1      29.247 -23.474 -15.880  0.00  0.00    +0.419 C 
ENDBRANCH  11  17
ENDBRANCH   2   8
BRANCH   1  18
ATOM     18  C   UNL     1      36.593 -21.169 -20.275  0.00  0.00    -0.069 C 
BRANCH  18  19
ATOM     19  C   UNL     1      35.740 -20.177 -21.065  0.00  0.00    +0.046 C 
BRANCH  19  21
ATOM     20  O   UNL     1      37.634 -18.687 -20.973  0.00  0.00    -0.291 OA
ATOM     21  C   UNL     1      36.513 -18.916 -21.423  0.00  0.00    +0.171 C 
BRANCH  21  22
ATOM     22  C   UNL     1      35.885 -17.928 -22.350  0.00  0.00    +0.039 C 
ATOM     23  C   UNL     1      35.559 -16.683 -21.863  0.00  0.00    +0.030 C 
ATOM     24  C   UNL     1      35.656 -18.302 -23.654  0.00  0.00    +0.043 C 
ATOM     25  C   UNL     1      34.971 -15.761 -22.729  0.00  0.00    +0.179 C 
ATOM     26  C   UNL     1      35.069 -17.380 -24.520  0.00  0.00    +0.169 C 
ATOM     27  C   UNL     1      34.727 -16.109 -24.058  0.00  0.00    +0.190 C 
BRANCH  25  30
ATOM     28  O   UNL     1      34.834 -13.472 -22.971  0.00  0.00    -0.126 OA
ATOM     29  O   UNL     1      34.134 -14.367 -21.093  0.00  0.00    -0.126 OA
ATOM     30  N   UNL     1      34.629 -14.470 -22.240  0.00  0.00    +0.061 N 
ENDBRANCH  25  30
BRANCH  26  31
ATOM     31  O   UNL     1      34.835 -17.734 -25.814  0.00  0.00    -0.503 OA
ATOM     32  H   UNL     1      35.552 -17.836 -26.409  0.00  0.00    +0.292 HD
ENDBRANCH  26  31
BRANCH  27  33
ATOM     33  O   UNL     1      34.151 -15.215 -24.914  0.00  0.00    -0.502 OA
ATOM     34  H   UNL     1      33.541 -15.511 -25.560  0.00  0.00    +0.292 HD
ENDBRANCH  27  33
ENDBRANCH  21  22
ENDBRANCH  19  21
ENDBRANCH  18  19
ENDBRANCH   1  18
TORSDOF 9
ENDMDL
MODEL 6
REMARK VINA RESULT:     -10.6      2.747      4.180
REMARK  Name = 4369285
REMARK  9 active torsions:
REMARK  status: ('A' for Active; 'I' for Inactive)
REMARK    1  A    between atoms: N_1  and  C_18
REMARK    2  A    between atoms: N_2  and  C_8
REMARK    3  A    between atoms: C_11  and  C_17
REMARK    4  A    between atoms: C_18  and  C_19
REMARK    5  A    between atoms: C_19  and  C_21
REMARK    6  A    between atoms: C_21  and  C_22
REMARK    7  A    between atoms: C_25  and  N_30
REMARK    8  A    between atoms: C_26  and  O_31
REMARK    9  A    between atoms: C_27  and  O_33
REMARK                            x       y       z     vdW  Elec       q    Type
REMARK                         _______ _______ _______ _____ _____    ______ ____
ROOT
ATOM      1  N   UNL     1      36.278 -20.430 -20.115  0.00  0.00    +0.390 N 
ATOM      2  N   UNL     1      35.594 -18.654 -22.245  0.00  0.00    -0.312 N 
ATOM      3  C   UNL     1      35.152 -20.736 -21.006  0.00  0.00    -0.055 C 
ATOM      4  C   UNL     1      37.329 -19.728 -20.863  0.00  0.00    -0.055 C 
ATOM      5  C   UNL     1      34.553 -19.457 -21.595  0.00  0.00    +0.068 C 
ATOM      6  C   UNL     1      36.803 -18.415 -21.448  0.00  0.00    +0.068 C 
ATOM      7  H   UNL     1      35.948 -19.825 -19.363  0.00  0.00    -0.080 HD
ENDROOT
BRANCH   2   8
ATOM      8  C   UNL     1      35.236 -17.695 -23.200  0.00  0.00    +0.048 C 
ATOM      9  C   UNL     1      35.026 -16.350 -22.836  0.00  0.00    +0.018 C 
ATOM     10  C   UNL     1      35.076 -18.047 -24.556  0.00  0.00    +0.015 C 
ATOM     11  C   UNL     1      34.670 -15.396 -23.789  0.00  0.00    +0.073 C 
ATOM     12  C   UNL     1      34.720 -17.092 -25.509  0.00  0.00    +0.001 C 
ATOM     13  C   UNL     1      34.516 -15.767 -25.125  0.00  0.00    +0.004 C 
BRANCH  11  17
ATOM     14  F   UNL     1      34.912 -13.068 -24.288  0.00  0.00    -0.166 F 
ATOM     15  F   UNL     1      33.136 -13.660 -23.192  0.00  0.00    -0.166 F 
ATOM     16  F   UNL     1      35.073 -13.670 -22.204  0.00  0.00    -0.166 F 
ATOM     17  C   UNL     1      34.450 -13.979 -23.379  0.00  0.00    +0.419 C 
ENDBRANCH  11  17
ENDBRANCH   2   8
BRANCH   1  18
ATOM     18  C   UNL     1      36.806 -21.655 -19.517  0.00  0.00    -0.069 C 
BRANCH  18  19
ATOM     19  C   UNL     1      36.069 -21.997 -18.222  0.00  0.00    +0.046 C 
BRANCH  19  21
ATOM     20  O   UNL     1      37.799 -21.113 -16.794  0.00  0.00    -0.291 OA
ATOM     21  C   UNL     1      37.004 -22.022 -17.021  0.00  0.00    +0.171 C 
BRANCH  21  22
ATOM     22  C   UNL     1      36.949 -23.191 -16.094  0.00  0.00    +0.039 C 
ATOM     23  C   UNL     1      38.124 -23.825 -15.763  0.00  0.00    +0.030 C 
ATOM     24  C   UNL     1      35.725 -23.588 -15.607  0.00  0.00    +0.043 C 
ATOM     25  C   UNL     1      38.072 -24.918 -14.898  0.00  0.00    +0.179 C 
ATOM     26  C   UNL     1      35.673 -24.680 -14.741  0.00  0.00    +0.169 C 
ATOM     27  C   UNL     1      36.847 -25.345 -14.385  0.00  0.00    +0.190 C 
BRANCH  25  30
ATOM     28  O   UNL     1      40.161 -24.947 -13.921  0.00  0.00    -0.126 OA
ATOM     29  O   UNL     1      39.427 -26.784 -14.871  0.00  0.00    -0.126 OA
ATOM     30  N   UNL     1      39.280 -25.583 -14.546  0.00  0.00    +0.061 N 
ENDBRANCH  25  30
BRANCH  26  31
ATOM     31  O   UNL     1      34.470 -25.087 -14.249  0.00  0.00    -0.503 OA
ATOM     32  H   UNL     1      33.680 -24.673 -14.541  0.00  0.00    +0.292 HD
ENDBRANCH  26  31
BRANCH  27  33
ATOM     33  O   UNL     1      36.784 -26.413 -13.538  0.00  0.00    -0.502 OA
ATOM     34  H   UNL     1      35.971 -26.642 -13.133  0.00  0.00    +0.292 HD
ENDBRANCH  27  33
ENDBRANCH  21  22
ENDBRANCH  19  21
ENDBRANCH  18  19
ENDBRANCH   1  18
TORSDOF 9
ENDMDL
MODEL 7
REMARK VINA RESULT:     -10.6     11.272     14.222
REMARK  Name = 4369285
REMARK  9 active torsions:
REMARK  status: ('A' for Active; 'I' for Inactive)
REMARK    1  A    between atoms: N_1  and  C_18
REMARK    2  A    between atoms: N_2  and  C_8
REMARK    3  A    between atoms: C_11  and  C_17
REMARK    4  A    between atoms: C_18  and  C_19
REMARK    5  A    between atoms: C_19  and  C_21
REMARK    6  A    between atoms: C_21  and  C_22
REMARK    7  A    between atoms: C_25  and  N_30
REMARK    8  A    between atoms: C_26  and  O_31
REMARK    9  A    between atoms: C_27  and  O_33
REMARK                            x       y       z     vdW  Elec       q    Type
REMARK                         _______ _______ _______ _____ _____    ______ ____
ROOT
ATOM      1  N   UNL     1      32.487 -10.996 -20.977  0.00  0.00    +0.390 N 
ATOM      2  N   UNL     1      32.085  -8.370 -22.026  0.00  0.00    -0.312 N 
ATOM      3  C   UNL     1      32.136  -9.884 -20.084  0.00  0.00    -0.055 C 
ATOM      4  C   UNL     1      31.844 -10.809 -22.283  0.00  0.00    -0.055 C 
ATOM      5  C   UNL     1      32.600  -8.545 -20.664  0.00  0.00    +0.068 C 
ATOM      6  C   UNL     1      32.297  -9.501 -22.937  0.00  0.00    +0.068 C 
ATOM      7  H   UNL     1      33.499 -11.007 -21.106  0.00  0.00    -0.080 HD
ENDROOT
BRANCH   2   8
ATOM      8  C   UNL     1      32.008  -7.086 -22.579  0.00  0.00    +0.048 C 
ATOM      9  C   UNL     1      32.855  -6.699 -23.637  0.00  0.00    +0.018 C 
ATOM     10  C   UNL     1      31.081  -6.142 -22.093  0.00  0.00    +0.015 C 
ATOM     11  C   UNL     1      32.778  -5.420 -24.187  0.00  0.00    +0.073 C 
ATOM     12  C   UNL     1      31.004  -4.862 -22.644  0.00  0.00    +0.001 C 
ATOM     13  C   UNL     1      31.853  -4.501 -23.691  0.00  0.00    +0.004 C 
BRANCH  11  17
ATOM     14  F   UNL     1      33.688  -3.692 -25.570  0.00  0.00    -0.166 F 
ATOM     15  F   UNL     1      34.994  -5.355 -25.085  0.00  0.00    -0.166 F 
ATOM     16  F   UNL     1      33.354  -5.637 -26.484  0.00  0.00    -0.166 F 
ATOM     17  C   UNL     1      33.685  -5.033 -25.305  0.00  0.00    +0.419 C 
ENDBRANCH  11  17
ENDBRANCH   2   8
BRANCH   1  18
ATOM     18  C   UNL     1      32.088 -12.272 -20.387  0.00  0.00    -0.069 C 
BRANCH  18  19
ATOM     19  C   UNL     1      32.256 -13.417 -21.386  0.00  0.00    +0.046 C 
BRANCH  19  21
ATOM     20  O   UNL     1      34.509 -13.695 -20.571  0.00  0.00    -0.291 OA
ATOM     21  C   UNL     1      33.700 -13.891 -21.476  0.00  0.00    +0.171 C 
BRANCH  21  22
ATOM     22  C   UNL     1      34.142 -14.616 -22.704  0.00  0.00    +0.039 C 
ATOM     23  C   UNL     1      33.729 -14.148 -23.930  0.00  0.00    +0.030 C 
ATOM     24  C   UNL     1      34.944 -15.725 -22.561  0.00  0.00    +0.043 C 
ATOM     25  C   UNL     1      34.141 -14.826 -25.077  0.00  0.00    +0.179 C 
ATOM     26  C   UNL     1      35.356 -16.403 -23.708  0.00  0.00    +0.169 C 
ATOM     27  C   UNL     1      34.956 -15.953 -24.966  0.00  0.00    +0.190 C 
BRANCH  25  30
ATOM     28  O   UNL     1      33.639 -13.116 -26.540  0.00  0.00    -0.126 OA
ATOM     29  O   UNL     1      33.449 -15.185 -27.247  0.00  0.00    -0.126 OA
ATOM     30  N   UNL     1      33.723 -14.352 -26.351  0.00  0.00    +0.061 N 
ENDBRANCH  25  30
BRANCH  26  31
ATOM     31  O   UNL     1      36.150 -17.503 -23.585  0.00  0.00    -0.503 OA
ATOM     32  H   UNL     1      36.236 -18.102 -24.301  0.00  0.00    +0.292 HD
ENDBRANCH  26  31
BRANCH  27  33
ATOM     33  O   UNL     1      35.364 -16.625 -26.082  0.00  0.00    -0.502 OA
ATOM     34  H   UNL     1      34.797 -16.689 -26.825  0.00  0.00    +0.292 HD
ENDBRANCH  27  33
ENDBRANCH  21  22
ENDBRANCH  19  21
ENDBRANCH  18  19
ENDBRANCH   1  18
TORSDOF 9
ENDMDL
MODEL 8
REMARK VINA RESULT:     -10.5      0.908      2.096
REMARK  Name = 4369285
REMARK  9 active torsions:
REMARK  status: ('A' for Active; 'I' for Inactive)
REMARK    1  A    between atoms: N_1  and  C_18
REMARK    2  A    between atoms: N_2  and  C_8
REMARK    3  A    between atoms: C_11  and  C_17
REMARK    4  A    between atoms: C_18  and  C_19
REMARK    5  A    between atoms: C_19  and  C_21
REMARK    6  A    between atoms: C_21  and  C_22
REMARK    7  A    between atoms: C_25  and  N_30
REMARK    8  A    between atoms: C_26  and  O_31
REMARK    9  A    between atoms: C_27  and  O_33
REMARK                            x       y       z     vdW  Elec       q    Type
REMARK                         _______ _______ _______ _____ _____    ______ ____
ROOT
ATOM      1  N   UNL     1      34.033 -22.973 -18.081  0.00  0.00    +0.390 N 
ATOM      2  N   UNL     1      35.122 -21.100 -19.943  0.00  0.00    -0.312 N 
ATOM      3  C   UNL     1      35.327 -22.331 -17.819  0.00  0.00    -0.055 C 
ATOM      4  C   UNL     1      33.152 -22.045 -18.801  0.00  0.00    -0.055 C 
ATOM      5  C   UNL     1      36.015 -21.927 -19.126  0.00  0.00    +0.068 C 
ATOM      6  C   UNL     1      33.767 -21.631 -20.141  0.00  0.00    +0.068 C 
ATOM      7  H   UNL     1      34.186 -23.798 -18.660  0.00  0.00    -0.080 HD
ENDROOT
BRANCH   2   8
ATOM      8  C   UNL     1      35.657 -20.276 -20.940  0.00  0.00    +0.048 C 
ATOM      9  C   UNL     1      35.000 -20.110 -22.175  0.00  0.00    +0.018 C 
ATOM     10  C   UNL     1      36.870 -19.587 -20.738  0.00  0.00    +0.015 C 
ATOM     11  C   UNL     1      35.533 -19.289 -23.168  0.00  0.00    +0.073 C 
ATOM     12  C   UNL     1      37.404 -18.765 -21.731  0.00  0.00    +0.001 C 
ATOM     13  C   UNL     1      36.735 -18.617 -22.946  0.00  0.00    +0.004 C 
BRANCH  11  17
ATOM     14  F   UNL     1      35.135 -20.094 -25.386  0.00  0.00    -0.166 F 
ATOM     15  F   UNL     1      33.461 -19.176 -24.356  0.00  0.00    -0.166 F 
ATOM     16  F   UNL     1      35.098 -17.941 -25.078  0.00  0.00    -0.166 F 
ATOM     17  C   UNL     1      34.821 -19.131 -24.468  0.00  0.00    +0.419 C 
ENDBRANCH  11  17
ENDBRANCH   2   8
BRANCH   1  18
ATOM     18  C   UNL     1      33.411 -23.403 -16.830  0.00  0.00    -0.069 C 
BRANCH  18  19
ATOM     19  C   UNL     1      34.328 -24.351 -16.057  0.00  0.00    +0.046 C 
BRANCH  19  21
ATOM     20  O   UNL     1      33.126 -23.832 -14.032  0.00  0.00    -0.291 OA
ATOM     21  C   UNL     1      34.183 -24.187 -14.551  0.00  0.00    +0.171 C 
BRANCH  21  22
ATOM     22  C   UNL     1      35.364 -24.467 -13.682  0.00  0.00    +0.039 C 
ATOM     23  C   UNL     1      36.513 -24.948 -14.266  0.00  0.00    +0.030 C 
ATOM     24  C   UNL     1      35.256 -24.234 -12.330  0.00  0.00    +0.043 C 
ATOM     25  C   UNL     1      37.615 -25.211 -13.453  0.00  0.00    +0.179 C 
ATOM     26  C   UNL     1      36.359 -24.496 -11.517  0.00  0.00    +0.169 C 
ATOM     27  C   UNL     1      37.539 -24.984 -12.078  0.00  0.00    +0.190 C 
BRANCH  25  30
ATOM     28  O   UNL     1      39.868 -25.047 -13.915  0.00  0.00    -0.126 OA
ATOM     29  O   UNL     1      38.770 -26.789 -14.675  0.00  0.00    -0.126 OA
ATOM     30  N   UNL     1      38.810 -25.707 -14.043  0.00  0.00    +0.061 N 
ENDBRANCH  25  30
BRANCH  26  31
ATOM     31  O   UNL     1      36.269 -24.271 -10.176  0.00  0.00    -0.503 OA
ATOM     32  H   UNL     1      36.647 -23.498  -9.804  0.00  0.00    +0.292 HD
ENDBRANCH  26  31
BRANCH  27  33
ATOM     33  O   UNL     1      38.611 -25.238 -11.273  0.00  0.00    -0.502 OA
ATOM     34  H   UNL     1      38.528 -25.836 -10.557  0.00  0.00    +0.292 HD
ENDBRANCH  27  33
ENDBRANCH  21  22
ENDBRANCH  19  21
ENDBRANCH  18  19
ENDBRANCH   1  18
TORSDOF 9
ENDMDL
MODEL 9
REMARK VINA RESULT:     -10.4      7.152     11.145
REMARK  Name = 4369285
REMARK  9 active torsions:
REMARK  status: ('A' for Active; 'I' for Inactive)
REMARK    1  A    between atoms: N_1  and  C_18
REMARK    2  A    between atoms: N_2  and  C_8
REMARK    3  A    between atoms: C_11  and  C_17
REMARK    4  A    between atoms: C_18  and  C_19
REMARK    5  A    between atoms: C_19  and  C_21
REMARK    6  A    between atoms: C_21  and  C_22
REMARK    7  A    between atoms: C_25  and  N_30
REMARK    8  A    between atoms: C_26  and  O_31
REMARK    9  A    between atoms: C_27  and  O_33
REMARK                            x       y       z     vdW  Elec       q    Type
REMARK                         _______ _______ _______ _____ _____    ______ ____
ROOT
ATOM      1  N   UNL     1      34.941 -20.043 -21.388  0.00  0.00    +0.390 N 
ATOM      2  N   UNL     1      34.237 -21.760 -19.216  0.00  0.00    -0.312 N 
ATOM      3  C   UNL     1      35.897 -21.037 -20.886  0.00  0.00    -0.055 C 
ATOM      4  C   UNL     1      33.572 -20.560 -21.264  0.00  0.00    -0.055 C 
ATOM      5  C   UNL     1      35.634 -21.360 -19.413  0.00  0.00    +0.068 C 
ATOM      6  C   UNL     1      33.231 -20.867 -19.803  0.00  0.00    +0.068 C 
ATOM      7  H   UNL     1      35.025 -19.194 -20.828  0.00  0.00    -0.080 HD
ENDROOT
BRANCH   2   8
ATOM      8  C   UNL     1      33.879 -22.497 -18.081  0.00  0.00    +0.048 C 
ATOM      9  C   UNL     1      32.527 -22.658 -17.716  0.00  0.00    +0.018 C 
ATOM     10  C   UNL     1      34.860 -23.101 -17.270  0.00  0.00    +0.015 C 
ATOM     11  C   UNL     1      32.172 -23.392 -16.585  0.00  0.00    +0.073 C 
ATOM     12  C   UNL     1      34.504 -23.836 -16.138  0.00  0.00    +0.001 C 
ATOM     13  C   UNL     1      33.160 -23.981 -15.796  0.00  0.00    +0.004 C 
BRANCH  11  17
ATOM     14  F   UNL     1      30.292 -24.839 -16.269  0.00  0.00    -0.166 F 
ATOM     15  F   UNL     1      30.444 -23.121 -14.954  0.00  0.00    -0.166 F 
ATOM     16  F   UNL     1      29.904 -22.843 -17.041  0.00  0.00    -0.166 F 
ATOM     17  C   UNL     1      30.735 -23.547 -16.218  0.00  0.00    +0.419 C 
ENDBRANCH  11  17
ENDBRANCH   2   8
BRANCH   1  18
ATOM     18  C   UNL     1      35.237 -19.703 -22.778  0.00  0.00    -0.069 C 
BRANCH  18  19
ATOM     19  C   UNL     1      36.189 -18.510 -22.863  0.00  0.00    +0.046 C 
BRANCH  19  21
ATOM     20  O   UNL     1      35.507 -16.994 -21.117  0.00  0.00    -0.291 OA
ATOM     21  C   UNL     1      35.559 -17.236 -22.321  0.00  0.00    +0.171 C 
BRANCH  21  22
ATOM     22  C   UNL     1      34.987 -16.251 -23.287  0.00  0.00    +0.039 C 
ATOM     23  C   UNL     1      34.642 -15.002 -22.827  0.00  0.00    +0.030 C 
ATOM     24  C   UNL     1      34.826 -16.634 -24.599  0.00  0.00    +0.043 C 
ATOM     25  C   UNL     1      34.106 -14.083 -23.729  0.00  0.00    +0.179 C 
ATOM     26  C   UNL     1      34.292 -15.714 -25.502  0.00  0.00    +0.169 C 
ATOM     27  C   UNL     1      33.932 -14.439 -25.067  0.00  0.00    +0.190 C 
BRANCH  25  30
ATOM     28  O   UNL     1      33.079 -12.684 -22.212  0.00  0.00    -0.126 OA
ATOM     29  O   UNL     1      34.106 -11.786 -23.932  0.00  0.00    -0.126 OA
ATOM     30  N   UNL     1      33.746 -12.786 -23.268  0.00  0.00    +0.061 N 
ENDBRANCH  25  30
BRANCH  26  31
ATOM     31  O   UNL     1      34.126 -16.076 -26.804  0.00  0.00    -0.503 OA
ATOM     32  H   UNL     1      34.735 -15.783 -27.454  0.00  0.00    +0.292 HD
ENDBRANCH  26  31
BRANCH  27  33
ATOM     33  O   UNL     1      33.409 -13.548 -25.959  0.00  0.00    -0.502 OA
ATOM     34  H   UNL     1      33.840 -13.395 -26.777  0.00  0.00    +0.292 HD
ENDBRANCH  27  33
ENDBRANCH  21  22
ENDBRANCH  19  21
ENDBRANCH  18  19
ENDBRANCH   1  18
TORSDOF 9
ENDMDL
