MODEL 1
REMARK VINA RESULT:     -12.1      0.000      0.000
REMARK  Name = 3822
REMARK  5 active torsions:
REMARK  status: ('A' for Active; 'I' for Inactive)
REMARK    1  A    between atoms: N_1  and  C_17
REMARK    2  A    between atoms: C_2  and  C_9
REMARK    3  A    between atoms: C_9  and  C_11
REMARK    4  A    between atoms: C_17  and  C_18
REMARK    5  A    between atoms: C_18  and  N_21
REMARK                            x       y       z     vdW  Elec       q    Type
REMARK                         _______ _______ _______ _____ _____    ______ ____
ROOT
ATOM      1  N   UNL     1      36.161 -20.221 -21.170  0.00  0.00    +0.388 N 
ATOM      2  C   UNL     1      36.008 -18.292 -23.379  0.00  0.00    +0.058 C 
ATOM      3  C   UNL     1      37.323 -18.639 -22.681  0.00  0.00    -0.015 C 
ATOM      4  C   UNL     1      34.953 -19.375 -23.156  0.00  0.00    -0.015 C 
ATOM      5  C   UNL     1      37.126 -19.117 -21.240  0.00  0.00    -0.077 C 
ATOM      6  C   UNL     1      34.852 -19.808 -21.690  0.00  0.00    -0.077 C 
ATOM      7  H   UNL     1      36.508 -20.984 -21.752  0.00  0.00    -0.080 HD
ENDROOT
BRANCH   2   9
ATOM      8  O   UNL     1      35.571 -16.616 -21.750  0.00  0.00    -0.291 OA
ATOM      9  C   UNL     1      35.488 -16.959 -22.926  0.00  0.00    +0.172 C 
BRANCH   9  11
ATOM     10  F   UNL     1      33.155 -13.544 -26.679  0.00  0.00    -0.204 F 
ATOM     11  C   UNL     1      34.864 -16.047 -23.927  0.00  0.00    +0.035 C 
ATOM     12  C   UNL     1      34.498 -14.780 -23.531  0.00  0.00    +0.005 C 
ATOM     13  C   UNL     1      34.680 -16.506 -25.213  0.00  0.00    +0.005 C 
ATOM     14  C   UNL     1      33.915 -13.927 -24.469  0.00  0.00    +0.030 C 
ATOM     15  C   UNL     1      34.097 -15.653 -26.151  0.00  0.00    +0.030 C 
ATOM     16  C   UNL     1      33.715 -14.364 -25.779  0.00  0.00    +0.140 C 
ENDBRANCH   9  11
ENDBRANCH   2   9
BRANCH   1  17
ATOM     17  C   UNL     1      36.034 -20.703 -19.794  0.00  0.00    -0.052 C 
BRANCH  17  18
ATOM     18  C   UNL     1      35.685 -22.184 -19.782  0.00  0.00    +0.091 C 
BRANCH  18  21
ATOM     19  O   UNL     1      36.275 -23.019 -17.206  0.00  0.00    -0.267 OA
ATOM     20  O   UNL     1      32.934 -21.938 -20.292  0.00  0.00    -0.246 OA
ATOM     21  N   UNL     1      34.665 -22.470 -18.810  0.00  0.00    -0.251 N 
ATOM     22  N   UNL     1      32.368 -22.607 -18.191  0.00  0.00    -0.306 N 
ATOM     23  C   UNL     1      35.096 -22.892 -17.527  0.00  0.00    +0.265 A 
ATOM     24  C   UNL     1      33.299 -22.313 -19.174  0.00  0.00    +0.330 A 
ATOM     25  C   UNL     1      34.039 -23.185 -16.539  0.00  0.00    +0.072 A 
ATOM     26  C   UNL     1      32.705 -23.033 -16.903  0.00  0.00    +0.065 A 
ATOM     27  C   UNL     1      34.369 -23.611 -15.249  0.00  0.00    +0.006 C 
ATOM     28  C   UNL     1      31.690 -23.306 -15.982  0.00  0.00    +0.017 C 
ATOM     29  C   UNL     1      33.355 -23.884 -14.328  0.00  0.00    +0.000 C 
ATOM     30  C   UNL     1      32.018 -23.731 -14.695  0.00  0.00    +0.001 C 
ATOM     31  H   UNL     1      31.414 -22.509 -18.412  0.00  0.00    +0.170 HD
ENDBRANCH  18  21
ENDBRANCH  17  18
ENDBRANCH   1  17
TORSDOF 5
ENDMDL
MODEL 2
REMARK VINA RESULT:     -11.9      0.749      2.050
REMARK  Name = 3822
REMARK  5 active torsions:
REMARK  status: ('A' for Active; 'I' for Inactive)
REMARK    1  A    between atoms: N_1  and  C_17
REMARK    2  A    between atoms: C_2  and  C_9
REMARK    3  A    between atoms: C_9  and  C_11
REMARK    4  A    between atoms: C_17  and  C_18
REMARK    5  A    between atoms: C_18  and  N_21
REMARK                            x       y       z     vdW  Elec       q    Type
REMARK                         _______ _______ _______ _____ _____    ______ ____
ROOT
ATOM      1  N   UNL     1      36.327 -20.370 -20.973  0.00  0.00    +0.388 N 
ATOM      2  C   UNL     1      36.100 -18.390 -23.130  0.00  0.00    +0.058 C 
ATOM      3  C   UNL     1      37.426 -18.699 -22.435  0.00  0.00    -0.015 C 
ATOM      4  C   UNL     1      35.092 -19.522 -22.941  0.00  0.00    -0.015 C 
ATOM      5  C   UNL     1      37.245 -19.224 -21.009  0.00  0.00    -0.077 C 
ATOM      6  C   UNL     1      35.004 -19.999 -21.489  0.00  0.00    -0.077 C 
ATOM      7  H   UNL     1      36.709 -21.101 -21.575  0.00  0.00    -0.080 HD
ENDROOT
BRANCH   2   9
ATOM      8  O   UNL     1      35.519 -16.812 -21.448  0.00  0.00    -0.291 OA
ATOM      9  C   UNL     1      35.521 -17.093 -22.644  0.00  0.00    +0.172 C 
BRANCH   9  11
ATOM     10  F   UNL     1      33.362 -13.524 -26.356  0.00  0.00    -0.204 F 
ATOM     11  C   UNL     1      34.945 -16.140 -23.635  0.00  0.00    +0.035 C 
ATOM     12  C   UNL     1      34.763 -16.565 -24.932  0.00  0.00    +0.005 C 
ATOM     13  C   UNL     1      34.614 -14.870 -23.216  0.00  0.00    +0.005 C 
ATOM     14  C   UNL     1      34.224 -15.673 -25.860  0.00  0.00    +0.030 C 
ATOM     15  C   UNL     1      34.075 -13.979 -24.144  0.00  0.00    +0.030 C 
ATOM     16  C   UNL     1      33.880 -14.380 -25.465  0.00  0.00    +0.140 C 
ENDBRANCH   9  11
ENDBRANCH   2   9
BRANCH   1  17
ATOM     17  C   UNL     1      36.216 -20.894 -19.611  0.00  0.00    -0.052 C 
BRANCH  17  18
ATOM     18  C   UNL     1      35.584 -22.278 -19.628  0.00  0.00    +0.091 C 
BRANCH  18  21
ATOM     19  O   UNL     1      32.823 -22.432 -19.427  0.00  0.00    -0.267 OA
ATOM     20  O   UNL     1      36.925 -22.738 -17.203  0.00  0.00    -0.246 OA
ATOM     21  N   UNL     1      34.914 -22.559 -18.387  0.00  0.00    -0.251 N 
ATOM     22  N   UNL     1      34.983 -23.040 -16.055  0.00  0.00    -0.306 N 
ATOM     23  C   UNL     1      33.498 -22.609 -18.415  0.00  0.00    +0.265 A 
ATOM     24  C   UNL     1      35.691 -22.776 -17.216  0.00  0.00    +0.330 A 
ATOM     25  C   UNL     1      32.822 -22.896 -17.134  0.00  0.00    +0.072 A 
ATOM     26  C   UNL     1      33.588 -23.103 -15.991  0.00  0.00    +0.065 A 
ATOM     27  C   UNL     1      31.427 -22.961 -17.063  0.00  0.00    +0.006 C 
ATOM     28  C   UNL     1      32.967 -23.376 -14.769  0.00  0.00    +0.017 C 
ATOM     29  C   UNL     1      30.807 -23.233 -15.843  0.00  0.00    +0.000 C 
ATOM     30  C   UNL     1      31.576 -23.441 -14.698  0.00  0.00    +0.001 C 
ATOM     31  H   UNL     1      35.492 -23.194 -15.226  0.00  0.00    +0.170 HD
ENDBRANCH  18  21
ENDBRANCH  17  18
ENDBRANCH   1  17
TORSDOF 5
ENDMDL
MODEL 3
REMARK VINA RESULT:     -11.2      4.253      9.216
REMARK  Name = 3822
REMARK  5 active torsions:
REMARK  status: ('A' for Active; 'I' for Inactive)
REMARK    1  A    between atoms: N_1  and  C_17
REMARK    2  A    between atoms: C_2  and  C_9
REMARK    3  A    between atoms: C_9  and  C_11
REMARK    4  A    between atoms: C_17  and  C_18
REMARK    5  A    between atoms: C_18  and  N_21
REMARK                            x       y       z     vdW  Elec       q    Type
REMARK                         _______ _______ _______ _____ _____    ______ ____
ROOT
ATOM      1  N   UNL     1      35.400 -17.250 -23.945  0.00  0.00    +0.388 N 
ATOM      2  C   UNL     1      35.867 -19.817 -22.596  0.00  0.00    +0.058 C 
ATOM      3  C   UNL     1      35.363 -19.726 -24.036  0.00  0.00    -0.015 C 
ATOM      4  C   UNL     1      36.545 -18.520 -22.157  0.00  0.00    -0.015 C 
ATOM      5  C   UNL     1      34.606 -18.426 -24.323  0.00  0.00    -0.077 C 
ATOM      6  C   UNL     1      35.727 -17.276 -22.514  0.00  0.00    -0.077 C 
ATOM      7  H   UNL     1      36.275 -17.276 -24.471  0.00  0.00    -0.080 HD
ENDROOT
BRANCH   2   9
ATOM      8  O   UNL     1      33.597 -19.827 -21.887  0.00  0.00    -0.291 OA
ATOM      9  C   UNL     1      34.753 -20.167 -21.652  0.00  0.00    +0.172 C 
BRANCH   9  11
ATOM     10  F   UNL     1      35.930 -23.053 -17.019  0.00  0.00    -0.204 F 
ATOM     11  C   UNL     1      35.068 -20.938 -20.415  0.00  0.00    +0.035 C 
ATOM     12  C   UNL     1      36.358 -20.919 -19.934  0.00  0.00    +0.005 C 
ATOM     13  C   UNL     1      34.056 -21.639 -19.798  0.00  0.00    +0.005 C 
ATOM     14  C   UNL     1      36.652 -21.640 -18.777  0.00  0.00    +0.030 C 
ATOM     15  C   UNL     1      34.350 -22.360 -18.641  0.00  0.00    +0.030 C 
ATOM     16  C   UNL     1      35.648 -22.361 -18.130  0.00  0.00    +0.140 C 
ENDBRANCH   9  11
ENDBRANCH   2   9
BRANCH   1  17
ATOM     17  C   UNL     1      34.685 -16.020 -24.284  0.00  0.00    -0.052 C 
BRANCH  17  18
ATOM     18  C   UNL     1      35.332 -14.826 -23.597  0.00  0.00    +0.091 C 
BRANCH  18  21
ATOM     19  O   UNL     1      34.355 -14.805 -21.003  0.00  0.00    -0.267 OA
ATOM     20  O   UNL     1      34.226 -12.835 -25.241  0.00  0.00    -0.246 OA
ATOM     21  N   UNL     1      34.343 -13.883 -23.152  0.00  0.00    -0.251 N 
ATOM     22  N   UNL     1      32.897 -12.037 -23.575  0.00  0.00    -0.306 N 
ATOM     23  C   UNL     1      33.923 -13.976 -21.801  0.00  0.00    +0.265 A 
ATOM     24  C   UNL     1      33.849 -12.914 -24.069  0.00  0.00    +0.330 A 
ATOM     25  C   UNL     1      32.906 -13.003 -21.357  0.00  0.00    +0.072 A 
ATOM     26  C   UNL     1      32.424 -12.061 -22.261  0.00  0.00    +0.065 A 
ATOM     27  C   UNL     1      32.428 -13.021 -20.043  0.00  0.00    +0.006 C 
ATOM     28  C   UNL     1      31.461 -11.132 -21.859  0.00  0.00    +0.017 C 
ATOM     29  C   UNL     1      31.466 -12.093 -19.642  0.00  0.00    +0.000 C 
ATOM     30  C   UNL     1      30.984 -11.149 -20.549  0.00  0.00    +0.001 C 
ATOM     31  H   UNL     1      32.535 -11.355 -24.186  0.00  0.00    +0.170 HD
ENDBRANCH  18  21
ENDBRANCH  17  18
ENDBRANCH   1  17
TORSDOF 5
ENDMDL
MODEL 4
REMARK VINA RESULT:     -11.0      1.098      1.663
REMARK  Name = 3822
REMARK  5 active torsions:
REMARK  status: ('A' for Active; 'I' for Inactive)
REMARK    1  A    between atoms: N_1  and  C_17
REMARK    2  A    between atoms: C_2  and  C_9
REMARK    3  A    between atoms: C_9  and  C_11
REMARK    4  A    between atoms: C_17  and  C_18
REMARK    5  A    between atoms: C_18  and  N_21
REMARK                            x       y       z     vdW  Elec       q    Type
REMARK                         _______ _______ _______ _____ _____    ______ ____
ROOT
ATOM      1  N   UNL     1      35.439 -20.195 -21.564  0.00  0.00    +0.388 N 
ATOM      2  C   UNL     1      35.966 -18.098 -23.551  0.00  0.00    +0.058 C 
ATOM      3  C   UNL     1      37.038 -18.600 -22.584  0.00  0.00    -0.015 C 
ATOM      4  C   UNL     1      34.828 -19.106 -23.699  0.00  0.00    -0.015 C 
ATOM      5  C   UNL     1      36.453 -19.169 -21.288  0.00  0.00    -0.077 C 
ATOM      6  C   UNL     1      34.333 -19.640 -22.352  0.00  0.00    -0.077 C 
ATOM      7  H   UNL     1      35.878 -20.936 -22.110  0.00  0.00    -0.080 HD
ENDROOT
BRANCH   2   9
ATOM      8  O   UNL     1      35.497 -16.406 -21.947  0.00  0.00    -0.291 OA
ATOM      9  C   UNL     1      35.426 -16.765 -23.119  0.00  0.00    +0.172 C 
BRANCH   9  11
ATOM     10  F   UNL     1      33.072 -13.429 -26.927  0.00  0.00    -0.204 F 
ATOM     11  C   UNL     1      34.798 -15.875 -24.136  0.00  0.00    +0.035 C 
ATOM     12  C   UNL     1      34.648 -16.342 -25.422  0.00  0.00    +0.005 C 
ATOM     13  C   UNL     1      34.390 -14.617 -23.750  0.00  0.00    +0.005 C 
ATOM     14  C   UNL     1      34.059 -15.508 -26.374  0.00  0.00    +0.030 C 
ATOM     15  C   UNL     1      33.801 -13.783 -24.702  0.00  0.00    +0.030 C 
ATOM     16  C   UNL     1      33.636 -14.228 -26.013  0.00  0.00    +0.140 C 
ENDBRANCH   9  11
ENDBRANCH   2   9
BRANCH   1  17
ATOM     17  C   UNL     1      34.939 -20.768 -20.314  0.00  0.00    -0.052 C 
BRANCH  17  18
ATOM     18  C   UNL     1      35.882 -21.852 -19.815  0.00  0.00    +0.091 C 
BRANCH  18  21
ATOM     19  O   UNL     1      37.510 -21.959 -17.573  0.00  0.00    -0.267 OA
ATOM     20  O   UNL     1      33.301 -22.877 -19.391  0.00  0.00    -0.246 OA
ATOM     21  N   UNL     1      35.435 -22.394 -18.560  0.00  0.00    -0.251 N 
ATOM     22  N   UNL     1      33.741 -23.397 -17.219  0.00  0.00    -0.306 N 
ATOM     23  C   UNL     1      36.364 -22.394 -17.489  0.00  0.00    +0.265 A 
ATOM     24  C   UNL     1      34.106 -22.888 -18.455  0.00  0.00    +0.330 A 
ATOM     25  C   UNL     1      35.894 -22.955 -16.207  0.00  0.00    +0.072 A 
ATOM     26  C   UNL     1      34.593 -23.440 -16.113  0.00  0.00    +0.065 A 
ATOM     27  C   UNL     1      36.741 -23.001 -15.096  0.00  0.00    +0.006 C 
ATOM     28  C   UNL     1      34.130 -23.976 -14.908  0.00  0.00    +0.017 C 
ATOM     29  C   UNL     1      36.278 -23.536 -13.892  0.00  0.00    +0.000 C 
ATOM     30  C   UNL     1      34.974 -24.022 -13.799  0.00  0.00    +0.001 C 
ATOM     31  H   UNL     1      32.827 -23.748 -17.115  0.00  0.00    +0.170 HD
ENDBRANCH  18  21
ENDBRANCH  17  18
ENDBRANCH   1  17
TORSDOF 5
ENDMDL
MODEL 5
REMARK VINA RESULT:     -10.7      5.758      9.070
REMARK  Name = 3822
REMARK  5 active torsions:
REMARK  status: ('A' for Active; 'I' for Inactive)
REMARK    1  A    between atoms: N_1  and  C_17
REMARK    2  A    between atoms: C_2  and  C_9
REMARK    3  A    between atoms: C_9  and  C_11
REMARK    4  A    between atoms: C_17  and  C_18
REMARK    5  A    between atoms: C_18  and  N_21
REMARK                            x       y       z     vdW  Elec       q    Type
REMARK                         _______ _______ _______ _____ _____    ______ ____
ROOT
ATOM      1  N   UNL     1      32.304 -12.722 -21.147  0.00  0.00    +0.388 N 
ATOM      2  C   UNL     1      31.301  -9.963 -21.202  0.00  0.00    +0.058 C 
ATOM      3  C   UNL     1      31.634 -10.741 -22.475  0.00  0.00    -0.015 C 
ATOM      4  C   UNL     1      31.072 -10.899 -20.017  0.00  0.00    -0.015 C 
ATOM      5  C   UNL     1      32.685 -11.831 -22.251  0.00  0.00    -0.077 C 
ATOM      6  C   UNL     1      32.158 -11.972 -19.895  0.00  0.00    -0.077 C 
ATOM      7  H   UNL     1      31.402 -13.141 -21.374  0.00  0.00    -0.080 HD
ENDROOT
BRANCH   2   9
ATOM      8  O   UNL     1      33.003  -9.037 -19.824  0.00  0.00    -0.291 OA
ATOM      9  C   UNL     1      32.376  -8.967 -20.877  0.00  0.00    +0.172 C 
BRANCH   9  11
ATOM     10  F   UNL     1      33.504  -4.907 -24.541  0.00  0.00    -0.204 F 
ATOM     11  C   UNL     1      32.678  -7.883 -21.855  0.00  0.00    +0.035 C 
ATOM     12  C   UNL     1      33.940  -7.817 -22.402  0.00  0.00    +0.005 C 
ATOM     13  C   UNL     1      31.682  -6.988 -22.177  0.00  0.00    +0.005 C 
ATOM     14  C   UNL     1      34.221  -6.803 -23.317  0.00  0.00    +0.030 C 
ATOM     15  C   UNL     1      31.963  -5.973 -23.092  0.00  0.00    +0.030 C 
ATOM     16  C   UNL     1      33.233  -5.880 -23.662  0.00  0.00    +0.140 C 
ENDBRANCH   9  11
ENDBRANCH   2   9
BRANCH   1  17
ATOM     17  C   UNL     1      33.291 -13.792 -20.991  0.00  0.00    -0.052 C 
BRANCH  17  18
ATOM     18  C   UNL     1      34.392 -13.652 -22.032  0.00  0.00    +0.091 C 
BRANCH  18  21
ATOM     19  O   UNL     1      35.154 -16.049 -20.865  0.00  0.00    -0.267 OA
ATOM     20  O   UNL     1      33.946 -13.830 -24.799  0.00  0.00    -0.246 OA
ATOM     21  N   UNL     1      34.550 -14.864 -22.788  0.00  0.00    -0.251 N 
ATOM     22  N   UNL     1      34.470 -16.044 -24.857  0.00  0.00    -0.306 N 
ATOM     23  C   UNL     1      34.946 -16.024 -22.076  0.00  0.00    +0.265 A 
ATOM     24  C   UNL     1      34.298 -14.843 -24.188  0.00  0.00    +0.330 A 
ATOM     25  C   UNL     1      35.106 -17.261 -22.864  0.00  0.00    +0.072 A 
ATOM     26  C   UNL     1      34.863 -17.232 -24.234  0.00  0.00    +0.065 A 
ATOM     27  C   UNL     1      35.498 -18.453 -22.248  0.00  0.00    +0.006 C 
ATOM     28  C   UNL     1      35.010 -18.393 -24.998  0.00  0.00    +0.017 C 
ATOM     29  C   UNL     1      35.646 -19.613 -23.012  0.00  0.00    +0.000 C 
ATOM     30  C   UNL     1      35.401 -19.582 -24.384  0.00  0.00    +0.001 C 
ATOM     31  H   UNL     1      34.305 -16.061 -25.827  0.00  0.00    +0.170 HD
ENDBRANCH  18  21
ENDBRANCH  17  18
ENDBRANCH   1  17
TORSDOF 5
ENDMDL
MODEL 6
REMARK VINA RESULT:     -10.7      4.096      9.295
REMARK  Name = 3822
REMARK  5 active torsions:
REMARK  status: ('A' for Active; 'I' for Inactive)
REMARK    1  A    between atoms: N_1  and  C_17
REMARK    2  A    between atoms: C_2  and  C_9
REMARK    3  A    between atoms: C_9  and  C_11
REMARK    4  A    between atoms: C_17  and  C_18
REMARK    5  A    between atoms: C_18  and  N_21
REMARK                            x       y       z     vdW  Elec       q    Type
REMARK                         _______ _______ _______ _____ _____    ______ ____
ROOT
ATOM      1  N   UNL     1      33.485 -23.303 -14.649  0.00  0.00    +0.388 N 
ATOM      2  C   UNL     1      30.891 -24.451 -13.887  0.00  0.00    +0.058 C 
ATOM      3  C   UNL     1      32.210 -25.197 -13.685  0.00  0.00    -0.015 C 
ATOM      4  C   UNL     1      31.115 -22.947 -14.036  0.00  0.00    -0.015 C 
ATOM      5  C   UNL     1      33.300 -24.760 -14.668  0.00  0.00    -0.077 C 
ATOM      6  C   UNL     1      32.244 -22.612 -15.015  0.00  0.00    -0.077 C 
ATOM      7  H   UNL     1      33.733 -23.027 -13.698  0.00  0.00    -0.080 HD
ENDROOT
BRANCH   2   9
ATOM      8  O   UNL     1      30.327 -26.131 -15.473  0.00  0.00    -0.291 OA
ATOM      9  C   UNL     1      30.142 -24.985 -15.074  0.00  0.00    +0.172 C 
BRANCH   9  11
ATOM     10  F   UNL     1      26.469 -21.677 -17.672  0.00  0.00    -0.204 F 
ATOM     11  C   UNL     1      29.162 -24.102 -15.768  0.00  0.00    +0.035 C 
ATOM     12  C   UNL     1      28.997 -24.237 -17.128  0.00  0.00    +0.005 C 
ATOM     13  C   UNL     1      28.456 -23.183 -15.021  0.00  0.00    +0.005 C 
ATOM     14  C   UNL     1      28.079 -23.410 -17.777  0.00  0.00    +0.030 C 
ATOM     15  C   UNL     1      27.539 -22.357 -15.670  0.00  0.00    +0.030 C 
ATOM     16  C   UNL     1      27.350 -22.470 -17.048  0.00  0.00    +0.140 C 
ENDBRANCH   9  11
ENDBRANCH   2   9
BRANCH   1  17
ATOM     17  C   UNL     1      34.572 -22.915 -15.549  0.00  0.00    -0.052 C 
BRANCH  17  18
ATOM     18  C   UNL     1      34.463 -23.670 -16.865  0.00  0.00    +0.091 C 
BRANCH  18  21
ATOM     19  O   UNL     1      36.710 -22.490 -17.980  0.00  0.00    -0.267 OA
ATOM     20  O   UNL     1      32.059 -22.945 -18.125  0.00  0.00    -0.246 OA
ATOM     21  N   UNL     1      34.388 -22.765 -17.980  0.00  0.00    -0.251 N 
ATOM     22  N   UNL     1      33.116 -21.585 -19.613  0.00  0.00    -0.306 N 
ATOM     23  C   UNL     1      35.609 -22.226 -18.458  0.00  0.00    +0.265 A 
ATOM     24  C   UNL     1      33.117 -22.465 -18.543  0.00  0.00    +0.330 A 
ATOM     25  C   UNL     1      35.518 -21.297 -19.601  0.00  0.00    +0.072 A 
ATOM     26  C   UNL     1      34.271 -21.005 -20.144  0.00  0.00    +0.065 A 
ATOM     27  C   UNL     1      36.670 -20.713 -20.137  0.00  0.00    +0.006 C 
ATOM     28  C   UNL     1      34.165 -20.127 -21.227  0.00  0.00    +0.017 C 
ATOM     29  C   UNL     1      36.563 -19.835 -21.218  0.00  0.00    +0.000 C 
ATOM     30  C   UNL     1      35.313 -19.544 -21.762  0.00  0.00    +0.001 C 
ATOM     31  H   UNL     1      32.251 -21.357 -20.024  0.00  0.00    +0.170 HD
ENDBRANCH  18  21
ENDBRANCH  17  18
ENDBRANCH   1  17
TORSDOF 5
ENDMDL
MODEL 7
REMARK VINA RESULT:     -10.6      4.838     10.486
REMARK  Name = 3822
REMARK  5 active torsions:
REMARK  status: ('A' for Active; 'I' for Inactive)
REMARK    1  A    between atoms: N_1  and  C_17
REMARK    2  A    between atoms: C_2  and  C_9
REMARK    3  A    between atoms: C_9  and  C_11
REMARK    4  A    between atoms: C_17  and  C_18
REMARK    5  A    between atoms: C_18  and  N_21
REMARK                            x       y       z     vdW  Elec       q    Type
REMARK                         _______ _______ _______ _____ _____    ______ ____
ROOT
ATOM      1  N   UNL     1      34.737 -23.312 -14.182  0.00  0.00    +0.388 N 
ATOM      2  C   UNL     1      36.695 -24.030 -12.115  0.00  0.00    +0.058 C 
ATOM      3  C   UNL     1      37.049 -23.142 -13.307  0.00  0.00    -0.015 C 
ATOM      4  C   UNL     1      35.187 -24.064 -11.869  0.00  0.00    -0.015 C 
ATOM      5  C   UNL     1      36.161 -23.401 -14.528  0.00  0.00    -0.077 C 
ATOM      6  C   UNL     1      34.385 -24.296 -13.152  0.00  0.00    -0.077 C 
ATOM      7  H   UNL     1      34.559 -22.380 -13.805  0.00  0.00    -0.080 HD
ENDROOT
BRANCH   2   9
ATOM      8  O   UNL     1      36.811 -26.350 -11.606  0.00  0.00    -0.291 OA
ATOM      9  C   UNL     1      37.222 -25.424 -12.299  0.00  0.00    +0.172 C 
BRANCH   9  11
ATOM     10  F   UNL     1      41.105 -26.356 -16.203  0.00  0.00    -0.204 F 
ATOM     11  C   UNL     1      38.259 -25.673 -13.341  0.00  0.00    +0.035 C 
ATOM     12  C   UNL     1      37.931 -26.455 -14.426  0.00  0.00    +0.005 C 
ATOM     13  C   UNL     1      39.506 -25.110 -13.181  0.00  0.00    +0.005 C 
ATOM     14  C   UNL     1      38.901 -26.688 -15.401  0.00  0.00    +0.030 C 
ATOM     15  C   UNL     1      40.476 -25.343 -14.156  0.00  0.00    +0.030 C 
ATOM     16  C   UNL     1      40.174 -26.132 -15.266  0.00  0.00    +0.140 C 
ENDBRANCH   9  11
ENDBRANCH   2   9
BRANCH   1  17
ATOM     17  C   UNL     1      33.909 -23.501 -15.374  0.00  0.00    -0.052 C 
BRANCH  17  18
ATOM     18  C   UNL     1      34.779 -23.840 -16.574  0.00  0.00    +0.091 C 
BRANCH  18  21
ATOM     19  O   UNL     1      36.732 -22.453 -17.970  0.00  0.00    -0.267 OA
ATOM     20  O   UNL     1      32.182 -23.450 -17.568  0.00  0.00    -0.246 OA
ATOM     21  N   UNL     1      34.474 -22.995 -17.695  0.00  0.00    -0.251 N 
ATOM     22  N   UNL     1      32.896 -22.036 -19.202  0.00  0.00    -0.306 N 
ATOM     23  C   UNL     1      35.561 -22.337 -18.324  0.00  0.00    +0.265 A 
ATOM     24  C   UNL     1      33.121 -22.867 -18.116  0.00  0.00    +0.330 A 
ATOM     25  C   UNL     1      35.233 -21.470 -19.473  0.00  0.00    +0.072 A 
ATOM     26  C   UNL     1      33.907 -21.346 -19.877  0.00  0.00    +0.065 A 
ATOM     27  C   UNL     1      36.240 -20.778 -20.153  0.00  0.00    +0.006 C 
ATOM     28  C   UNL     1      33.577 -20.530 -20.962  0.00  0.00    +0.017 C 
ATOM     29  C   UNL     1      35.910 -19.962 -21.237  0.00  0.00    +0.000 C 
ATOM     30  C   UNL     1      34.581 -19.839 -21.641  0.00  0.00    +0.001 C 
ATOM     31  H   UNL     1      31.970 -21.926 -19.517  0.00  0.00    +0.170 HD
ENDBRANCH  18  21
ENDBRANCH  17  18
ENDBRANCH   1  17
TORSDOF 5
ENDMDL
MODEL 8
REMARK VINA RESULT:     -10.5      1.102      1.906
REMARK  Name = 3822
REMARK  5 active torsions:
REMARK  status: ('A' for Active; 'I' for Inactive)
REMARK    1  A    between atoms: N_1  and  C_17
REMARK    2  A    between atoms: C_2  and  C_9
REMARK    3  A    between atoms: C_9  and  C_11
REMARK    4  A    between atoms: C_17  and  C_18
REMARK    5  A    between atoms: C_18  and  N_21
REMARK                            x       y       z     vdW  Elec       q    Type
REMARK                         _______ _______ _______ _____ _____    ______ ____
ROOT
ATOM      1  N   UNL     1      35.047 -20.232 -21.466  0.00  0.00    +0.388 N 
ATOM      2  C   UNL     1      35.878 -18.201 -23.417  0.00  0.00    +0.058 C 
ATOM      3  C   UNL     1      36.833 -18.771 -22.368  0.00  0.00    -0.015 C 
ATOM      4  C   UNL     1      34.683 -19.125 -23.647  0.00  0.00    -0.015 C 
ATOM      5  C   UNL     1      36.111 -19.281 -21.118  0.00  0.00    -0.077 C 
ATOM      6  C   UNL     1      34.049 -19.606 -22.340  0.00  0.00    -0.077 C 
ATOM      7  H   UNL     1      35.470 -21.010 -21.974  0.00  0.00    -0.080 HD
ENDROOT
BRANCH   2   9
ATOM      8  O   UNL     1      35.524 -16.420 -21.882  0.00  0.00    -0.291 OA
ATOM      9  C   UNL     1      35.408 -16.828 -23.035  0.00  0.00    +0.172 C 
BRANCH   9  11
ATOM     10  F   UNL     1      33.108 -13.566 -26.941  0.00  0.00    -0.204 F 
ATOM     11  C   UNL     1      34.793 -15.957 -24.077  0.00  0.00    +0.035 C 
ATOM     12  C   UNL     1      34.388 -14.689 -23.725  0.00  0.00    +0.005 C 
ATOM     13  C   UNL     1      34.656 -16.453 -25.355  0.00  0.00    +0.005 C 
ATOM     14  C   UNL     1      33.813 -13.875 -24.701  0.00  0.00    +0.030 C 
ATOM     15  C   UNL     1      34.082 -15.638 -26.331  0.00  0.00    +0.030 C 
ATOM     16  C   UNL     1      33.660 -14.349 -26.004  0.00  0.00    +0.140 C 
ENDBRANCH   9  11
ENDBRANCH   2   9
BRANCH   1  17
ATOM     17  C   UNL     1      34.412 -20.753 -20.255  0.00  0.00    -0.052 C 
BRANCH  17  18
ATOM     18  C   UNL     1      34.807 -22.206 -20.034  0.00  0.00    +0.091 C 
BRANCH  18  21
ATOM     19  O   UNL     1      32.732 -23.182 -18.477  0.00  0.00    -0.267 OA
ATOM     20  O   UNL     1      37.215 -21.863 -18.628  0.00  0.00    -0.246 OA
ATOM     21  N   UNL     1      34.962 -22.496 -18.635  0.00  0.00    -0.251 N 
ATOM     22  N   UNL     1      36.306 -22.585 -16.670  0.00  0.00    -0.306 N 
ATOM     23  C   UNL     1      33.824 -22.989 -17.948  0.00  0.00    +0.265 A 
ATOM     24  C   UNL     1      36.227 -22.286 -18.020  0.00  0.00    +0.330 A 
ATOM     25  C   UNL     1      33.995 -23.282 -16.511  0.00  0.00    +0.072 A 
ATOM     26  C   UNL     1      35.235 -23.070 -15.916  0.00  0.00    +0.065 A 
ATOM     27  C   UNL     1      32.927 -23.768 -15.751  0.00  0.00    +0.006 C 
ATOM     28  C   UNL     1      35.416 -23.340 -14.557  0.00  0.00    +0.017 C 
ATOM     29  C   UNL     1      33.108 -24.038 -14.393  0.00  0.00    +0.000 C 
ATOM     30  C   UNL     1      34.351 -23.825 -13.798  0.00  0.00    +0.001 C 
ATOM     31  H   UNL     1      37.169 -22.448 -16.215  0.00  0.00    +0.170 HD
ENDBRANCH  18  21
ENDBRANCH  17  18
ENDBRANCH   1  17
TORSDOF 5
ENDMDL
MODEL 9
REMARK VINA RESULT:     -10.5      7.288     11.367
REMARK  Name = 3822
REMARK  5 active torsions:
REMARK  status: ('A' for Active; 'I' for Inactive)
REMARK    1  A    between atoms: N_1  and  C_17
REMARK    2  A    between atoms: C_2  and  C_9
REMARK    3  A    between atoms: C_9  and  C_11
REMARK    4  A    between atoms: C_17  and  C_18
REMARK    5  A    between atoms: C_18  and  N_21
REMARK                            x       y       z     vdW  Elec       q    Type
REMARK                         _______ _______ _______ _____ _____    ______ ____
ROOT
ATOM      1  N   UNL     1      31.948  -8.470 -21.579  0.00  0.00    +0.388 N 
ATOM      2  C   UNL     1      32.456  -6.128 -23.277  0.00  0.00    +0.058 C 
ATOM      3  C   UNL     1      31.591  -7.302 -23.735  0.00  0.00    -0.015 C 
ATOM      4  C   UNL     1      32.582  -6.085 -21.755  0.00  0.00    -0.015 C 
ATOM      5  C   UNL     1      31.954  -8.617 -23.041  0.00  0.00    -0.077 C 
ATOM      6  C   UNL     1      32.915  -7.453 -21.152  0.00  0.00    -0.077 C 
ATOM      7  H   UNL     1      31.018  -8.163 -21.295  0.00  0.00    -0.080 HD
ENDROOT
BRANCH   2   9
ATOM      8  O   UNL     1      34.718  -6.849 -23.416  0.00  0.00    -0.291 OA
ATOM      9  C   UNL     1      33.817  -6.176 -23.909  0.00  0.00    +0.172 C 
BRANCH   9  11
ATOM     10  F   UNL     1      34.744  -3.241 -28.568  0.00  0.00    -0.204 F 
ATOM     11  C   UNL     1      34.065  -5.392 -25.153  0.00  0.00    +0.035 C 
ATOM     12  C   UNL     1      35.242  -5.593 -25.838  0.00  0.00    +0.005 C 
ATOM     13  C   UNL     1      33.106  -4.496 -25.571  0.00  0.00    +0.005 C 
ATOM     14  C   UNL     1      35.474  -4.860 -27.002  0.00  0.00    +0.030 C 
ATOM     15  C   UNL     1      33.337  -3.763 -26.735  0.00  0.00    +0.030 C 
ATOM     16  C   UNL     1      34.521  -3.944 -27.450  0.00  0.00    +0.140 C 
ENDBRANCH   9  11
ENDBRANCH   2   9
BRANCH   1  17
ATOM     17  C   UNL     1      32.236  -9.752 -20.935  0.00  0.00    -0.052 C 
BRANCH  17  18
ATOM     18  C   UNL     1      31.570 -10.888 -21.698  0.00  0.00    +0.091 C 
BRANCH  18  21
ATOM     19  O   UNL     1      33.025 -11.891 -23.834  0.00  0.00    -0.267 OA
ATOM     20  O   UNL     1      31.765 -12.440 -19.365  0.00  0.00    -0.246 OA
ATOM     21  N   UNL     1      32.341 -12.098 -21.607  0.00  0.00    -0.251 N 
ATOM     22  N   UNL     1      33.130 -13.967 -20.358  0.00  0.00    -0.306 N 
ATOM     23  C   UNL     1      33.039 -12.507 -22.771  0.00  0.00    +0.265 A 
ATOM     24  C   UNL     1      32.370 -12.808 -20.376  0.00  0.00    +0.330 A 
ATOM     25  C   UNL     1      33.825 -13.752 -22.666  0.00  0.00    +0.072 A 
ATOM     26  C   UNL     1      33.846 -14.445 -21.459  0.00  0.00    +0.065 A 
ATOM     27  C   UNL     1      34.543 -14.237 -23.763  0.00  0.00    +0.006 C 
ATOM     28  C   UNL     1      34.583 -15.626 -21.340  0.00  0.00    +0.017 C 
ATOM     29  C   UNL     1      35.280 -15.417 -23.644  0.00  0.00    +0.000 C 
ATOM     30  C   UNL     1      35.300 -16.109 -22.434  0.00  0.00    +0.001 C 
ATOM     31  H   UNL     1      33.170 -14.482 -19.520  0.00  0.00    +0.170 HD
ENDBRANCH  18  21
ENDBRANCH  17  18
ENDBRANCH   1  17
TORSDOF 5
ENDMDL
