MODEL 1
REMARK VINA RESULT:     -13.0      0.000      0.000
REMARK  Name = 5287728
REMARK  9 active torsions:
REMARK  status: ('A' for Active; 'I' for Inactive)
REMARK    1  A    between atoms: S_1  and  N_4
REMARK    2  A    between atoms: S_1  and  N_22
REMARK    3  A    between atoms: C_5  and  N_10
REMARK    4  A    between atoms: N_10  and  C_13
REMARK    5  A    between atoms: C_13  and  C_14
REMARK    6  A    between atoms: C_15  and  O_20
REMARK    7  A    between atoms: N_22  and  C_24
REMARK    8  A    between atoms: C_27  and  O_30
REMARK    9  A    between atoms: O_30  and  C_32
REMARK                            x       y       z     vdW  Elec       q    Type
REMARK                         _______ _______ _______ _____ _____    ______ ____
ROOT
ATOM      1  S   UNL     1      36.326 -18.807 -21.514  0.00  0.00    +0.113 S 
ATOM      2  O   UNL     1      35.812 -17.520 -21.082  0.00  0.00    -0.138 OA
ATOM      3  O   UNL     1      37.756 -19.062 -21.500  0.00  0.00    -0.138 OA
ENDROOT
BRANCH   1   4
ATOM      4  N   UNL     1      35.547 -20.027 -20.595  0.00  0.00    -0.143 NA
ATOM      5  C   UNL     1      34.296 -22.459 -19.608  0.00  0.00    -0.059 C 
ATOM      6  C   UNL     1      33.476 -21.222 -19.987  0.00  0.00    -0.002 C 
ATOM      7  C   UNL     1      35.713 -22.050 -19.191  0.00  0.00    -0.002 C 
ATOM      8  C   UNL     1      34.183 -20.406 -21.067  0.00  0.00    +0.095 C 
ATOM      9  C   UNL     1      36.386 -21.222 -20.282  0.00  0.00    +0.095 C 
BRANCH   5  10
ATOM     10  N   UNL     1      33.641 -23.179 -18.518  0.00  0.00    +0.388 N 
ATOM     11  H   UNL     1      34.299 -23.287 -17.745  0.00  0.00    -0.084 HD
ATOM     12  H   UNL     1      33.342 -24.092 -18.860  0.00  0.00    -0.084 HD
BRANCH  10  13
ATOM     13  C   UNL     1      32.472 -22.451 -18.049  0.00  0.00    -0.051 C 
BRANCH  13  14
ATOM     14  C   UNL     1      32.007 -22.944 -16.704  0.00  0.00    -0.010 C 
ATOM     15  C   UNL     1      30.651 -22.988 -16.404  0.00  0.00    +0.128 C 
ATOM     16  C   UNL     1      32.956 -23.352 -15.776  0.00  0.00    -0.003 C 
ATOM     17  C   UNL     1      30.238 -23.448 -15.154  0.00  0.00    +0.036 C 
ATOM     18  C   UNL     1      32.542 -23.811 -14.525  0.00  0.00    -0.000 C 
ATOM     19  C   UNL     1      31.184 -23.859 -14.215  0.00  0.00    +0.003 C 
BRANCH  15  20
ATOM     20  O   UNL     1      29.715 -22.590 -17.310  0.00  0.00    -0.506 OA
ATOM     21  H   UNL     1      29.043 -23.184 -17.582  0.00  0.00    +0.292 HD
ENDBRANCH  15  20
ENDBRANCH  13  14
ENDBRANCH  10  13
ENDBRANCH   5  10
ENDBRANCH   1   4
BRANCH   1  22
ATOM     22  N   UNL     1      35.683 -19.128 -23.083  0.00  0.00    -0.205 N 
ATOM     23  H   UNL     1      35.618 -20.044 -23.438  0.00  0.00    +0.175 HD
BRANCH  22  24
ATOM     24  C   UNL     1      35.243 -17.991 -23.850  0.00  0.00    +0.069 C 
ATOM     25  C   UNL     1      35.428 -16.710 -23.344  0.00  0.00    +0.053 C 
ATOM     26  C   UNL     1      34.639 -18.188 -25.085  0.00  0.00    +0.016 C 
ATOM     27  C   UNL     1      35.001 -15.609 -24.087  0.00  0.00    +0.147 C 
ATOM     28  C   UNL     1      34.213 -17.087 -25.827  0.00  0.00    +0.004 C 
ATOM     29  C   UNL     1      34.394 -15.798 -25.328  0.00  0.00    +0.038 C 
BRANCH  27  30
ATOM     30  O   UNL     1      35.177 -14.350 -23.599  0.00  0.00    -0.453 OA
BRANCH  30  32
ATOM     31  F   UNL     1      31.270 -12.314 -20.323  0.00  0.00    -0.204 F 
ATOM     32  C   UNL     1      34.192 -13.836 -22.772  0.00  0.00    +0.145 C 
ATOM     33  C   UNL     1      34.065 -14.331 -21.487  0.00  0.00    +0.040 C 
ATOM     34  C   UNL     1      33.360 -12.842 -23.254  0.00  0.00    +0.040 C 
ATOM     35  C   UNL     1      33.073 -13.814 -20.655  0.00  0.00    +0.033 C 
ATOM     36  C   UNL     1      32.367 -12.325 -22.422  0.00  0.00    +0.033 C 
ATOM     37  C   UNL     1      32.224 -12.811 -21.122  0.00  0.00    +0.140 C 
ENDBRANCH  30  32
ENDBRANCH  27  30
ENDBRANCH  22  24
ENDBRANCH   1  22
TORSDOF 9
ENDMDL
MODEL 2
REMARK VINA RESULT:     -12.9      1.161      1.670
REMARK  Name = 5287728
REMARK  9 active torsions:
REMARK  status: ('A' for Active; 'I' for Inactive)
REMARK    1  A    between atoms: S_1  and  N_4
REMARK    2  A    between atoms: S_1  and  N_22
REMARK    3  A    between atoms: C_5  and  N_10
REMARK    4  A    between atoms: N_10  and  C_13
REMARK    5  A    between atoms: C_13  and  C_14
REMARK    6  A    between atoms: C_15  and  O_20
REMARK    7  A    between atoms: N_22  and  C_24
REMARK    8  A    between atoms: C_27  and  O_30
REMARK    9  A    between atoms: O_30  and  C_32
REMARK                            x       y       z     vdW  Elec       q    Type
REMARK                         _______ _______ _______ _____ _____    ______ ____
ROOT
ATOM      1  S   UNL     1      36.339 -18.840 -21.577  0.00  0.00    +0.113 S 
ATOM      2  O   UNL     1      35.944 -17.495 -21.198  0.00  0.00    -0.138 OA
ATOM      3  O   UNL     1      37.728 -19.247 -21.474  0.00  0.00    -0.138 OA
ENDROOT
BRANCH   1   4
ATOM      4  N   UNL     1      35.379 -19.946 -20.684  0.00  0.00    -0.143 NA
ATOM      5  C   UNL     1      33.808 -22.202 -19.735  0.00  0.00    -0.059 C 
ATOM      6  C   UNL     1      33.157 -20.884 -20.168  0.00  0.00    -0.002 C 
ATOM      7  C   UNL     1      35.241 -21.951 -19.252  0.00  0.00    -0.002 C 
ATOM      8  C   UNL     1      34.005 -20.173 -21.220  0.00  0.00    +0.095 C 
ATOM      9  C   UNL     1      36.058 -21.224 -20.317  0.00  0.00    +0.095 C 
BRANCH   5  10
ATOM     10  N   UNL     1      33.023 -22.823 -18.672  0.00  0.00    +0.388 N 
ATOM     11  H   UNL     1      32.514 -23.621 -19.054  0.00  0.00    -0.084 HD
ATOM     12  H   UNL     1      32.371 -22.132 -18.299  0.00  0.00    -0.084 HD
BRANCH  10  13
ATOM     13  C   UNL     1      33.886 -23.280 -17.593  0.00  0.00    -0.051 C 
BRANCH  13  14
ATOM     14  C   UNL     1      33.134 -23.427 -16.297  0.00  0.00    -0.010 C 
ATOM     15  C   UNL     1      33.738 -24.024 -15.199  0.00  0.00    +0.128 C 
ATOM     16  C   UNL     1      31.829 -22.955 -16.224  0.00  0.00    -0.003 C 
ATOM     17  C   UNL     1      33.027 -24.152 -14.006  0.00  0.00    +0.036 C 
ATOM     18  C   UNL     1      31.117 -23.085 -15.030  0.00  0.00    -0.000 C 
ATOM     19  C   UNL     1      31.716 -23.682 -13.923  0.00  0.00    +0.003 C 
BRANCH  15  20
ATOM     20  O   UNL     1      35.018 -24.488 -15.264  0.00  0.00    -0.506 OA
ATOM     21  H   UNL     1      35.208 -25.374 -15.024  0.00  0.00    +0.292 HD
ENDBRANCH  15  20
ENDBRANCH  13  14
ENDBRANCH  10  13
ENDBRANCH   5  10
ENDBRANCH   1   4
BRANCH   1  22
ATOM     22  N   UNL     1      35.754 -19.125 -23.175  0.00  0.00    -0.205 N 
ATOM     23  H   UNL     1      35.751 -20.027 -23.571  0.00  0.00    +0.175 HD
BRANCH  22  24
ATOM     24  C   UNL     1      35.270 -17.981 -23.903  0.00  0.00    +0.069 C 
ATOM     25  C   UNL     1      35.465 -16.706 -23.386  0.00  0.00    +0.053 C 
ATOM     26  C   UNL     1      34.614 -18.166 -25.114  0.00  0.00    +0.016 C 
ATOM     27  C   UNL     1      34.994 -15.599 -24.092  0.00  0.00    +0.147 C 
ATOM     28  C   UNL     1      34.144 -17.058 -25.819  0.00  0.00    +0.004 C 
ATOM     29  C   UNL     1      34.335 -15.775 -25.309  0.00  0.00    +0.038 C 
BRANCH  27  30
ATOM     30  O   UNL     1      35.179 -14.346 -23.593  0.00  0.00    -0.453 OA
BRANCH  30  32
ATOM     31  F   UNL     1      31.251 -12.281 -20.360  0.00  0.00    -0.204 F 
ATOM     32  C   UNL     1      34.188 -13.825 -22.777  0.00  0.00    +0.145 C 
ATOM     33  C   UNL     1      33.384 -12.807 -23.259  0.00  0.00    +0.040 C 
ATOM     34  C   UNL     1      34.027 -14.336 -21.503  0.00  0.00    +0.040 C 
ATOM     35  C   UNL     1      32.387 -12.283 -22.438  0.00  0.00    +0.033 C 
ATOM     36  C   UNL     1      33.030 -13.811 -20.681  0.00  0.00    +0.033 C 
ATOM     37  C   UNL     1      32.210 -12.785 -21.149  0.00  0.00    +0.140 C 
ENDBRANCH  30  32
ENDBRANCH  27  30
ENDBRANCH  22  24
ENDBRANCH   1  22
TORSDOF 9
ENDMDL
MODEL 3
REMARK VINA RESULT:     -12.3      3.736      6.475
REMARK  Name = 5287728
REMARK  9 active torsions:
REMARK  status: ('A' for Active; 'I' for Inactive)
REMARK    1  A    between atoms: S_1  and  N_4
REMARK    2  A    between atoms: S_1  and  N_22
REMARK    3  A    between atoms: C_5  and  N_10
REMARK    4  A    between atoms: N_10  and  C_13
REMARK    5  A    between atoms: C_13  and  C_14
REMARK    6  A    between atoms: C_15  and  O_20
REMARK    7  A    between atoms: N_22  and  C_24
REMARK    8  A    between atoms: C_27  and  O_30
REMARK    9  A    between atoms: O_30  and  C_32
REMARK                            x       y       z     vdW  Elec       q    Type
REMARK                         _______ _______ _______ _____ _____    ______ ____
ROOT
ATOM      1  S   UNL     1      33.689 -13.778 -23.575  0.00  0.00    +0.113 S 
ATOM      2  O   UNL     1      34.675 -12.760 -23.258  0.00  0.00    -0.138 OA
ATOM      3  O   UNL     1      33.122 -13.851 -24.909  0.00  0.00    -0.138 OA
ENDROOT
BRANCH   1   4
ATOM      4  N   UNL     1      34.358 -15.307 -23.182  0.00  0.00    -0.143 NA
ATOM      5  C   UNL     1      36.082 -17.558 -22.537  0.00  0.00    -0.059 C 
ATOM      6  C   UNL     1      35.444 -17.395 -23.921  0.00  0.00    -0.002 C 
ATOM      7  C   UNL     1      35.227 -16.860 -21.474  0.00  0.00    -0.002 C 
ATOM      8  C   UNL     1      35.207 -15.922 -24.245  0.00  0.00    +0.095 C 
ATOM      9  C   UNL     1      34.993 -15.396 -21.834  0.00  0.00    +0.095 C 
BRANCH   5  10
ATOM     10  N   UNL     1      36.225 -18.976 -22.216  0.00  0.00    +0.388 N 
ATOM     11  H   UNL     1      36.818 -19.074 -21.391  0.00  0.00    -0.084 HD
ATOM     12  H   UNL     1      36.644 -19.453 -23.014  0.00  0.00    -0.084 HD
BRANCH  10  13
ATOM     13  C   UNL     1      34.927 -19.575 -21.943  0.00  0.00    -0.051 C 
BRANCH  13  14
ATOM     14  C   UNL     1      34.989 -20.548 -20.795  0.00  0.00    -0.010 C 
ATOM     15  C   UNL     1      33.827 -21.125 -20.301  0.00  0.00    +0.128 C 
ATOM     16  C   UNL     1      36.227 -20.855 -20.244  0.00  0.00    -0.003 C 
ATOM     17  C   UNL     1      33.903 -22.024 -19.237  0.00  0.00    +0.036 C 
ATOM     18  C   UNL     1      36.303 -21.754 -19.180  0.00  0.00    -0.000 C 
ATOM     19  C   UNL     1      35.141 -22.338 -18.677  0.00  0.00    +0.003 C 
BRANCH  15  20
ATOM     20  O   UNL     1      32.609 -20.829 -20.837  0.00  0.00    -0.506 OA
ATOM     21  H   UNL     1      31.974 -20.363 -20.329  0.00  0.00    +0.292 HD
ENDBRANCH  15  20
ENDBRANCH  13  14
ENDBRANCH  10  13
ENDBRANCH   5  10
ENDBRANCH   1   4
BRANCH   1  22
ATOM     22  N   UNL     1      32.429 -13.668 -22.400  0.00  0.00    -0.205 N 
ATOM     23  H   UNL     1      31.881 -14.449 -22.157  0.00  0.00    +0.175 HD
BRANCH  22  24
ATOM     24  C   UNL     1      32.217 -12.380 -21.793  0.00  0.00    +0.069 C 
ATOM     25  C   UNL     1      31.825 -11.306 -22.583  0.00  0.00    +0.053 C 
ATOM     26  C   UNL     1      32.406 -12.226 -20.426  0.00  0.00    +0.016 C 
ATOM     27  C   UNL     1      31.621 -10.058 -21.994  0.00  0.00    +0.147 C 
ATOM     28  C   UNL     1      32.202 -10.979 -19.838  0.00  0.00    +0.004 C 
ATOM     29  C   UNL     1      31.809  -9.895 -20.622  0.00  0.00    +0.038 C 
BRANCH  27  30
ATOM     30  O   UNL     1      31.239  -8.999 -22.760  0.00  0.00    -0.453 OA
BRANCH  30  32
ATOM     31  F   UNL     1      35.159  -5.595 -24.547  0.00  0.00    -0.204 F 
ATOM     32  C   UNL     1      32.228  -8.141 -23.211  0.00  0.00    +0.145 C 
ATOM     33  C   UNL     1      33.537  -8.585 -23.256  0.00  0.00    +0.040 C 
ATOM     34  C   UNL     1      31.881  -6.861 -23.604  0.00  0.00    +0.040 C 
ATOM     35  C   UNL     1      34.533  -7.721 -23.711  0.00  0.00    +0.033 C 
ATOM     36  C   UNL     1      32.877  -5.996 -24.058  0.00  0.00    +0.033 C 
ATOM     37  C   UNL     1      34.202  -6.426 -24.111  0.00  0.00    +0.140 C 
ENDBRANCH  30  32
ENDBRANCH  27  30
ENDBRANCH  22  24
ENDBRANCH   1  22
TORSDOF 9
ENDMDL
MODEL 4
REMARK VINA RESULT:     -12.2      3.115     10.329
REMARK  Name = 5287728
REMARK  9 active torsions:
REMARK  status: ('A' for Active; 'I' for Inactive)
REMARK    1  A    between atoms: S_1  and  N_4
REMARK    2  A    between atoms: S_1  and  N_22
REMARK    3  A    between atoms: C_5  and  N_10
REMARK    4  A    between atoms: N_10  and  C_13
REMARK    5  A    between atoms: C_13  and  C_14
REMARK    6  A    between atoms: C_15  and  O_20
REMARK    7  A    between atoms: N_22  and  C_24
REMARK    8  A    between atoms: C_27  and  O_30
REMARK    9  A    between atoms: O_30  and  C_32
REMARK                            x       y       z     vdW  Elec       q    Type
REMARK                         _______ _______ _______ _____ _____    ______ ____
ROOT
ATOM      1  S   UNL     1      33.766 -23.035 -18.516  0.00  0.00    +0.113 S 
ATOM      2  O   UNL     1      32.526 -22.590 -17.906  0.00  0.00    -0.138 OA
ATOM      3  O   UNL     1      33.874 -24.382 -19.047  0.00  0.00    -0.138 OA
ENDROOT
BRANCH   1   4
ATOM      4  N   UNL     1      34.174 -21.926 -19.759  0.00  0.00    -0.143 NA
ATOM      5  C   UNL     1      34.885 -19.599 -21.351  0.00  0.00    -0.059 C 
ATOM      6  C   UNL     1      33.469 -20.185 -21.358  0.00  0.00    -0.002 C 
ATOM      7  C   UNL     1      35.907 -20.687 -21.003  0.00  0.00    -0.002 C 
ATOM      8  C   UNL     1      33.154 -20.871 -20.031  0.00  0.00    +0.095 C 
ATOM      9  C   UNL     1      35.556 -21.366 -19.682  0.00  0.00    +0.095 C 
BRANCH   5  10
ATOM     10  N   UNL     1      35.194 -19.020 -22.656  0.00  0.00    +0.388 N 
ATOM     11  H   UNL     1      34.336 -18.659 -23.074  0.00  0.00    -0.084 HD
ATOM     12  H   UNL     1      35.600 -19.744 -23.248  0.00  0.00    -0.084 HD
BRANCH  10  13
ATOM     13  C   UNL     1      36.153 -17.933 -22.524  0.00  0.00    -0.051 C 
BRANCH  13  14
ATOM     14  C   UNL     1      35.483 -16.586 -22.569  0.00  0.00    -0.010 C 
ATOM     15  C   UNL     1      35.242 -15.963 -23.787  0.00  0.00    +0.128 C 
ATOM     16  C   UNL     1      35.112 -15.982 -21.375  0.00  0.00    -0.003 C 
ATOM     17  C   UNL     1      34.621 -14.715 -23.811  0.00  0.00    +0.036 C 
ATOM     18  C   UNL     1      34.490 -14.733 -21.399  0.00  0.00    -0.000 C 
ATOM     19  C   UNL     1      34.245 -14.100 -22.617  0.00  0.00    +0.003 C 
BRANCH  15  20
ATOM     20  O   UNL     1      35.603 -16.550 -24.963  0.00  0.00    -0.506 OA
ATOM     21  H   UNL     1      36.322 -17.151 -24.985  0.00  0.00    +0.292 HD
ENDBRANCH  15  20
ENDBRANCH  13  14
ENDBRANCH  10  13
ENDBRANCH   5  10
ENDBRANCH   1   4
BRANCH   1  22
ATOM     22  N   UNL     1      35.039 -22.738 -17.390  0.00  0.00    -0.205 N 
ATOM     23  H   UNL     1      35.807 -22.165 -17.618  0.00  0.00    +0.175 HD
BRANCH  22  24
ATOM     24  C   UNL     1      34.925 -23.367 -16.100  0.00  0.00    +0.069 C 
ATOM     25  C   UNL     1      33.688 -23.420 -15.469  0.00  0.00    +0.053 C 
ATOM     26  C   UNL     1      36.053 -23.914 -15.501  0.00  0.00    +0.016 C 
ATOM     27  C   UNL     1      33.579 -24.029 -14.219  0.00  0.00    +0.147 C 
ATOM     28  C   UNL     1      35.943 -24.522 -14.251  0.00  0.00    +0.004 C 
ATOM     29  C   UNL     1      34.706 -24.580 -13.610  0.00  0.00    +0.038 C 
BRANCH  27  30
ATOM     30  O   UNL     1      32.371 -24.084 -13.593  0.00  0.00    -0.453 OA
BRANCH  30  32
ATOM     31  F   UNL     1      27.863 -23.966 -16.724  0.00  0.00    -0.204 F 
ATOM     32  C   UNL     1      31.234 -24.054 -14.383  0.00  0.00    +0.145 C 
ATOM     33  C   UNL     1      30.754 -22.835 -14.828  0.00  0.00    +0.040 C 
ATOM     34  C   UNL     1      30.608 -25.244 -14.707  0.00  0.00    +0.040 C 
ATOM     35  C   UNL     1      29.609 -22.806 -15.623  0.00  0.00    +0.033 C 
ATOM     36  C   UNL     1      29.462 -25.214 -15.502  0.00  0.00    +0.033 C 
ATOM     37  C   UNL     1      28.963 -23.995 -15.960  0.00  0.00    +0.140 C 
ENDBRANCH  30  32
ENDBRANCH  27  30
ENDBRANCH  22  24
ENDBRANCH   1  22
TORSDOF 9
ENDMDL
MODEL 5
REMARK VINA RESULT:     -12.1      1.741      2.556
REMARK  Name = 5287728
REMARK  9 active torsions:
REMARK  status: ('A' for Active; 'I' for Inactive)
REMARK    1  A    between atoms: S_1  and  N_4
REMARK    2  A    between atoms: S_1  and  N_22
REMARK    3  A    between atoms: C_5  and  N_10
REMARK    4  A    between atoms: N_10  and  C_13
REMARK    5  A    between atoms: C_13  and  C_14
REMARK    6  A    between atoms: C_15  and  O_20
REMARK    7  A    between atoms: N_22  and  C_24
REMARK    8  A    between atoms: C_27  and  O_30
REMARK    9  A    between atoms: O_30  and  C_32
REMARK                            x       y       z     vdW  Elec       q    Type
REMARK                         _______ _______ _______ _____ _____    ______ ____
ROOT
ATOM      1  S   UNL     1      35.803 -18.277 -22.179  0.00  0.00    +0.113 S 
ATOM      2  O   UNL     1      37.223 -18.347 -22.471  0.00  0.00    -0.138 OA
ATOM      3  O   UNL     1      34.833 -18.340 -23.258  0.00  0.00    -0.138 OA
ENDROOT
BRANCH   1   4
ATOM      4  N   UNL     1      35.432 -19.505 -21.041  0.00  0.00    -0.143 NA
ATOM      5  C   UNL     1      34.894 -22.000 -19.647  0.00  0.00    -0.059 C 
ATOM      6  C   UNL     1      33.774 -21.031 -20.038  0.00  0.00    -0.002 C 
ATOM      7  C   UNL     1      36.214 -21.241 -19.472  0.00  0.00    -0.002 C 
ATOM      8  C   UNL     1      34.150 -20.230 -21.282  0.00  0.00    +0.095 C 
ATOM      9  C   UNL     1      36.555 -20.437 -20.723  0.00  0.00    +0.095 C 
BRANCH   5  10
ATOM     10  N   UNL     1      34.547 -22.695 -18.410  0.00  0.00    +0.388 N 
ATOM     11  H   UNL     1      34.892 -22.157 -17.616  0.00  0.00    -0.084 HD
ATOM     12  H   UNL     1      34.974 -23.622 -18.424  0.00  0.00    -0.084 HD
BRANCH  10  13
ATOM     13  C   UNL     1      33.105 -22.848 -18.293  0.00  0.00    -0.051 C 
BRANCH  13  14
ATOM     14  C   UNL     1      32.684 -23.113 -16.872  0.00  0.00    -0.010 C 
ATOM     15  C   UNL     1      31.360 -22.939 -16.488  0.00  0.00    +0.128 C 
ATOM     16  C   UNL     1      33.641 -23.532 -15.957  0.00  0.00    -0.003 C 
ATOM     17  C   UNL     1      30.988 -23.188 -15.168  0.00  0.00    +0.036 C 
ATOM     18  C   UNL     1      33.268 -23.781 -14.635  0.00  0.00    -0.000 C 
ATOM     19  C   UNL     1      31.942 -23.609 -14.241  0.00  0.00    +0.003 C 
BRANCH  15  20
ATOM     20  O   UNL     1      30.416 -22.528 -17.380  0.00  0.00    -0.506 OA
ATOM     21  H   UNL     1      30.673 -22.220 -18.227  0.00  0.00    +0.292 HD
ENDBRANCH  15  20
ENDBRANCH  13  14
ENDBRANCH  10  13
ENDBRANCH   5  10
ENDBRANCH   1   4
BRANCH   1  22
ATOM     22  N   UNL     1      35.535 -16.865 -21.224  0.00  0.00    -0.205 N 
ATOM     23  H   UNL     1      35.845 -16.805 -20.291  0.00  0.00    +0.175 HD
BRANCH  22  24
ATOM     24  C   UNL     1      34.836 -15.776 -21.856  0.00  0.00    +0.069 C 
ATOM     25  C   UNL     1      33.729 -15.216 -21.230  0.00  0.00    +0.053 C 
ATOM     26  C   UNL     1      35.277 -15.298 -23.084  0.00  0.00    +0.016 C 
ATOM     27  C   UNL     1      33.052 -14.162 -21.844  0.00  0.00    +0.147 C 
ATOM     28  C   UNL     1      34.600 -14.245 -23.696  0.00  0.00    +0.004 C 
ATOM     29  C   UNL     1      33.488 -13.676 -23.077  0.00  0.00    +0.038 C 
BRANCH  27  30
ATOM     30  O   UNL     1      31.966 -13.608 -21.239  0.00  0.00    -0.453 OA
BRANCH  30  32
ATOM     31  F   UNL     1      32.200  -8.274 -19.959  0.00  0.00    -0.204 F 
ATOM     32  C   UNL     1      32.024 -12.262 -20.916  0.00  0.00    +0.145 C 
ATOM     33  C   UNL     1      31.925 -11.322 -21.926  0.00  0.00    +0.040 C 
ATOM     34  C   UNL     1      32.181 -11.894 -19.593  0.00  0.00    +0.040 C 
ATOM     35  C   UNL     1      31.984  -9.967 -21.600  0.00  0.00    +0.033 C 
ATOM     36  C   UNL     1      32.242 -10.539 -19.267  0.00  0.00    +0.033 C 
ATOM     37  C   UNL     1      32.143  -9.576 -20.271  0.00  0.00    +0.140 C 
ENDBRANCH  30  32
ENDBRANCH  27  30
ENDBRANCH  22  24
ENDBRANCH   1  22
TORSDOF 9
ENDMDL
MODEL 6
REMARK VINA RESULT:     -12.0      3.824     10.568
REMARK  Name = 5287728
REMARK  9 active torsions:
REMARK  status: ('A' for Active; 'I' for Inactive)
REMARK    1  A    between atoms: S_1  and  N_4
REMARK    2  A    between atoms: S_1  and  N_22
REMARK    3  A    between atoms: C_5  and  N_10
REMARK    4  A    between atoms: N_10  and  C_13
REMARK    5  A    between atoms: C_13  and  C_14
REMARK    6  A    between atoms: C_15  and  O_20
REMARK    7  A    between atoms: N_22  and  C_24
REMARK    8  A    between atoms: C_27  and  O_30
REMARK    9  A    between atoms: O_30  and  C_32
REMARK                            x       y       z     vdW  Elec       q    Type
REMARK                         _______ _______ _______ _____ _____    ______ ____
ROOT
ATOM      1  S   UNL     1      34.158 -23.132 -18.633  0.00  0.00    +0.113 S 
ATOM      2  O   UNL     1      33.891 -24.392 -19.303  0.00  0.00    -0.138 OA
ATOM      3  O   UNL     1      35.209 -23.047 -17.635  0.00  0.00    -0.138 OA
ENDROOT
BRANCH   1   4
ATOM      4  N   UNL     1      34.447 -21.942 -19.832  0.00  0.00    -0.143 NA
ATOM      5  C   UNL     1      34.931 -19.499 -21.334  0.00  0.00    -0.059 C 
ATOM      6  C   UNL     1      33.568 -20.200 -21.342  0.00  0.00    -0.002 C 
ATOM      7  C   UNL     1      36.046 -20.512 -21.051  0.00  0.00    -0.002 C 
ATOM      8  C   UNL     1      33.338 -20.965 -20.041  0.00  0.00    +0.095 C 
ATOM      9  C   UNL     1      35.780 -21.273 -19.756  0.00  0.00    +0.095 C 
BRANCH   5  10
ATOM     10  N   UNL     1      35.164 -18.842 -22.618  0.00  0.00    +0.388 N 
ATOM     11  H   UNL     1      34.279 -18.481 -22.974  0.00  0.00    -0.084 HD
ATOM     12  H   UNL     1      35.557 -19.523 -23.268  0.00  0.00    -0.084 HD
BRANCH  10  13
ATOM     13  C   UNL     1      36.104 -17.741 -22.470  0.00  0.00    -0.051 C 
BRANCH  13  14
ATOM     14  C   UNL     1      35.418 -16.404 -22.556  0.00  0.00    -0.010 C 
ATOM     15  C   UNL     1      35.203 -15.803 -23.790  0.00  0.00    +0.128 C 
ATOM     16  C   UNL     1      35.006 -15.786 -21.382  0.00  0.00    -0.003 C 
ATOM     17  C   UNL     1      34.566 -14.564 -23.851  0.00  0.00    +0.036 C 
ATOM     18  C   UNL     1      34.370 -14.545 -21.443  0.00  0.00    -0.000 C 
ATOM     19  C   UNL     1      34.150 -13.936 -22.677  0.00  0.00    +0.003 C 
BRANCH  15  20
ATOM     20  O   UNL     1      35.604 -16.404 -24.946  0.00  0.00    -0.506 OA
ATOM     21  H   UNL     1      35.245 -17.234 -25.191  0.00  0.00    +0.292 HD
ENDBRANCH  15  20
ENDBRANCH  13  14
ENDBRANCH  10  13
ENDBRANCH   5  10
ENDBRANCH   1   4
BRANCH   1  22
ATOM     22  N   UNL     1      32.667 -22.566 -17.972  0.00  0.00    -0.205 N 
ATOM     23  H   UNL     1      32.109 -21.908 -18.447  0.00  0.00    +0.175 HD
BRANCH  22  24
ATOM     24  C   UNL     1      32.277 -23.102 -16.694  0.00  0.00    +0.069 C 
ATOM     25  C   UNL     1      33.255 -23.444 -15.767  0.00  0.00    +0.053 C 
ATOM     26  C   UNL     1      30.930 -23.271 -16.403  0.00  0.00    +0.016 C 
ATOM     27  C   UNL     1      32.876 -23.964 -14.529  0.00  0.00    +0.147 C 
ATOM     28  C   UNL     1      30.552 -23.791 -15.165  0.00  0.00    +0.004 C 
ATOM     29  C   UNL     1      31.525 -24.137 -14.228  0.00  0.00    +0.038 C 
BRANCH  27  30
ATOM     30  O   UNL     1      33.826 -24.304 -13.615  0.00  0.00    -0.453 OA
BRANCH  30  32
ATOM     31  F   UNL     1      39.019 -24.686 -15.356  0.00  0.00    -0.204 F 
ATOM     32  C   UNL     1      35.136 -24.400 -14.054  0.00  0.00    +0.145 C 
ATOM     33  C   UNL     1      36.056 -23.452 -13.644  0.00  0.00    +0.040 C 
ATOM     34  C   UNL     1      35.491 -25.442 -14.891  0.00  0.00    +0.040 C 
ATOM     35  C   UNL     1      37.375 -23.550 -14.086  0.00  0.00    +0.033 C 
ATOM     36  C   UNL     1      36.810 -25.539 -15.335  0.00  0.00    +0.033 C 
ATOM     37  C   UNL     1      37.752 -24.593 -14.931  0.00  0.00    +0.140 C 
ENDBRANCH  30  32
ENDBRANCH  27  30
ENDBRANCH  22  24
ENDBRANCH   1  22
TORSDOF 9
ENDMDL
MODEL 7
REMARK VINA RESULT:     -11.6      3.896      6.957
REMARK  Name = 5287728
REMARK  9 active torsions:
REMARK  status: ('A' for Active; 'I' for Inactive)
REMARK    1  A    between atoms: S_1  and  N_4
REMARK    2  A    between atoms: S_1  and  N_22
REMARK    3  A    between atoms: C_5  and  N_10
REMARK    4  A    between atoms: N_10  and  C_13
REMARK    5  A    between atoms: C_13  and  C_14
REMARK    6  A    between atoms: C_15  and  O_20
REMARK    7  A    between atoms: N_22  and  C_24
REMARK    8  A    between atoms: C_27  and  O_30
REMARK    9  A    between atoms: O_30  and  C_32
REMARK                            x       y       z     vdW  Elec       q    Type
REMARK                         _______ _______ _______ _____ _____    ______ ____
ROOT
ATOM      1  S   UNL     1      33.758 -13.053 -23.735  0.00  0.00    +0.113 S 
ATOM      2  O   UNL     1      34.542 -11.882 -23.388  0.00  0.00    -0.138 OA
ATOM      3  O   UNL     1      33.469 -13.350 -25.126  0.00  0.00    -0.138 OA
ENDROOT
BRANCH   1   4
ATOM      4  N   UNL     1      34.510 -14.424 -23.030  0.00  0.00    -0.143 NA
ATOM      5  C   UNL     1      35.177 -17.037 -21.944  0.00  0.00    -0.059 C 
ATOM      6  C   UNL     1      34.917 -15.826 -21.042  0.00  0.00    -0.002 C 
ATOM      7  C   UNL     1      35.679 -16.577 -23.317  0.00  0.00    -0.002 C 
ATOM      8  C   UNL     1      33.958 -14.843 -21.708  0.00  0.00    +0.095 C 
ATOM      9  C   UNL     1      34.709 -15.583 -23.949  0.00  0.00    +0.095 C 
BRANCH   5  10
ATOM     10  N   UNL     1      36.159 -17.923 -21.322  0.00  0.00    +0.388 N 
ATOM     11  H   UNL     1      35.982 -17.966 -20.318  0.00  0.00    -0.084 HD
ATOM     12  H   UNL     1      37.093 -17.555 -21.503  0.00  0.00    -0.084 HD
BRANCH  10  13
ATOM     13  C   UNL     1      36.069 -19.264 -21.880  0.00  0.00    -0.051 C 
BRANCH  13  14
ATOM     14  C   UNL     1      35.217 -20.169 -21.030  0.00  0.00    -0.010 C 
ATOM     15  C   UNL     1      35.809 -21.072 -20.157  0.00  0.00    +0.128 C 
ATOM     16  C   UNL     1      33.835 -20.082 -21.137  0.00  0.00    -0.003 C 
ATOM     17  C   UNL     1      35.005 -21.903 -19.377  0.00  0.00    +0.036 C 
ATOM     18  C   UNL     1      33.031 -20.913 -20.357  0.00  0.00    -0.000 C 
ATOM     19  C   UNL     1      33.615 -21.823 -19.477  0.00  0.00    +0.003 C 
BRANCH  15  20
ATOM     20  O   UNL     1      37.164 -21.162 -20.047  0.00  0.00    -0.506 OA
ATOM     21  H   UNL     1      37.570 -21.999 -19.929  0.00  0.00    +0.292 HD
ENDBRANCH  15  20
ENDBRANCH  13  14
ENDBRANCH  10  13
ENDBRANCH   5  10
ENDBRANCH   1   4
BRANCH   1  22
ATOM     22  N   UNL     1      32.293 -12.988 -22.826  0.00  0.00    -0.205 N 
ATOM     23  H   UNL     1      31.567 -13.638 -22.969  0.00  0.00    +0.175 HD
BRANCH  22  24
ATOM     24  C   UNL     1      32.181 -11.938 -21.847  0.00  0.00    +0.069 C 
ATOM     25  C   UNL     1      31.890 -10.644 -22.260  0.00  0.00    +0.053 C 
ATOM     26  C   UNL     1      32.367 -12.232 -20.502  0.00  0.00    +0.016 C 
ATOM     27  C   UNL     1      31.784  -9.627 -21.310  0.00  0.00    +0.147 C 
ATOM     28  C   UNL     1      32.260 -11.215 -19.554  0.00  0.00    +0.004 C 
ATOM     29  C   UNL     1      31.968  -9.913 -19.958  0.00  0.00    +0.038 C 
BRANCH  27  30
ATOM     30  O   UNL     1      31.500  -8.355 -21.706  0.00  0.00    -0.453 OA
BRANCH  30  32
ATOM     31  F   UNL     1      35.020  -5.903 -25.132  0.00  0.00    -0.204 F 
ATOM     32  C   UNL     1      32.388  -7.736 -22.570  0.00  0.00    +0.145 C 
ATOM     33  C   UNL     1      31.911  -7.190 -23.748  0.00  0.00    +0.040 C 
ATOM     34  C   UNL     1      33.728  -7.681 -22.233  0.00  0.00    +0.040 C 
ATOM     35  C   UNL     1      32.805  -6.567 -24.618  0.00  0.00    +0.033 C 
ATOM     36  C   UNL     1      34.623  -7.059 -23.103  0.00  0.00    +0.033 C 
ATOM     37  C   UNL     1      34.161  -6.502 -24.296  0.00  0.00    +0.140 C 
ENDBRANCH  30  32
ENDBRANCH  27  30
ENDBRANCH  22  24
ENDBRANCH   1  22
TORSDOF 9
ENDMDL
MODEL 8
REMARK VINA RESULT:     -11.6      1.898      2.570
REMARK  Name = 5287728
REMARK  9 active torsions:
REMARK  status: ('A' for Active; 'I' for Inactive)
REMARK    1  A    between atoms: S_1  and  N_4
REMARK    2  A    between atoms: S_1  and  N_22
REMARK    3  A    between atoms: C_5  and  N_10
REMARK    4  A    between atoms: N_10  and  C_13
REMARK    5  A    between atoms: C_13  and  C_14
REMARK    6  A    between atoms: C_15  and  O_20
REMARK    7  A    between atoms: N_22  and  C_24
REMARK    8  A    between atoms: C_27  and  O_30
REMARK    9  A    between atoms: O_30  and  C_32
REMARK                            x       y       z     vdW  Elec       q    Type
REMARK                         _______ _______ _______ _____ _____    ______ ____
ROOT
ATOM      1  S   UNL     1      36.281 -20.879 -20.071  0.00  0.00    +0.113 S 
ATOM      2  O   UNL     1      37.227 -19.885 -19.597  0.00  0.00    -0.138 OA
ATOM      3  O   UNL     1      36.696 -21.873 -21.044  0.00  0.00    -0.138 OA
ENDROOT
BRANCH   1   4
ATOM      4  N   UNL     1      35.633 -21.689 -18.705  0.00  0.00    -0.143 NA
ATOM      5  C   UNL     1      34.843 -23.605 -16.665  0.00  0.00    -0.059 C 
ATOM      6  C   UNL     1      33.859 -23.092 -17.721  0.00  0.00    -0.002 C 
ATOM      7  C   UNL     1      35.946 -22.569 -16.421  0.00  0.00    -0.002 C 
ATOM      8  C   UNL     1      34.586 -22.709 -19.008  0.00  0.00    +0.095 C 
ATOM      9  C   UNL     1      36.642 -22.193 -17.726  0.00  0.00    +0.095 C 
BRANCH   5  10
ATOM     10  N   UNL     1      34.138 -23.889 -15.418  0.00  0.00    +0.388 N 
ATOM     11  H   UNL     1      34.776 -23.753 -14.634  0.00  0.00    -0.084 HD
ATOM     12  H   UNL     1      33.804 -24.852 -15.442  0.00  0.00    -0.084 HD
BRANCH  10  13
ATOM     13  C   UNL     1      32.994 -23.002 -15.260  0.00  0.00    -0.051 C 
BRANCH  13  14
ATOM     14  C   UNL     1      31.697 -23.764 -15.209  0.00  0.00    -0.010 C 
ATOM     15  C   UNL     1      31.543 -24.828 -14.329  0.00  0.00    +0.128 C 
ATOM     16  C   UNL     1      30.663 -23.384 -16.055  0.00  0.00    -0.003 C 
ATOM     17  C   UNL     1      30.335 -25.524 -14.295  0.00  0.00    +0.036 C 
ATOM     18  C   UNL     1      29.455 -24.081 -16.021  0.00  0.00    -0.000 C 
ATOM     19  C   UNL     1      29.291 -25.150 -15.142  0.00  0.00    +0.003 C 
BRANCH  15  20
ATOM     20  O   UNL     1      32.553 -25.206 -13.496  0.00  0.00    -0.506 OA
ATOM     21  H   UNL     1      33.433 -24.942 -13.677  0.00  0.00    +0.292 HD
ENDBRANCH  15  20
ENDBRANCH  13  14
ENDBRANCH  10  13
ENDBRANCH   5  10
ENDBRANCH   1   4
BRANCH   1  22
ATOM     22  N   UNL     1      34.883 -20.041 -20.639  0.00  0.00    -0.205 N 
ATOM     23  H   UNL     1      34.017 -20.107 -20.175  0.00  0.00    +0.175 HD
BRANCH  22  24
ATOM     24  C   UNL     1      35.043 -19.239 -21.824  0.00  0.00    +0.069 C 
ATOM     25  C   UNL     1      35.329 -17.885 -21.703  0.00  0.00    +0.053 C 
ATOM     26  C   UNL     1      34.910 -19.830 -23.075  0.00  0.00    +0.016 C 
ATOM     27  C   UNL     1      35.483 -17.109 -22.852  0.00  0.00    +0.147 C 
ATOM     28  C   UNL     1      35.065 -19.053 -24.223  0.00  0.00    +0.004 C 
ATOM     29  C   UNL     1      35.352 -17.694 -24.111  0.00  0.00    +0.038 C 
BRANCH  27  30
ATOM     30  O   UNL     1      35.762 -15.781 -22.743  0.00  0.00    -0.453 OA
BRANCH  30  32
ATOM     31  F   UNL     1      31.593 -12.381 -21.643  0.00  0.00    -0.204 F 
ATOM     32  C   UNL     1      34.710 -14.923 -22.465  0.00  0.00    +0.145 C 
ATOM     33  C   UNL     1      34.318 -14.741 -21.151  0.00  0.00    +0.040 C 
ATOM     34  C   UNL     1      34.080 -14.271 -23.509  0.00  0.00    +0.040 C 
ATOM     35  C   UNL     1      33.260 -13.877 -20.872  0.00  0.00    +0.033 C 
ATOM     36  C   UNL     1      33.020 -13.408 -23.230  0.00  0.00    +0.033 C 
ATOM     37  C   UNL     1      32.611 -13.211 -21.912  0.00  0.00    +0.140 C 
ENDBRANCH  30  32
ENDBRANCH  27  30
ENDBRANCH  22  24
ENDBRANCH   1  22
TORSDOF 9
ENDMDL
MODEL 9
REMARK VINA RESULT:     -11.6      3.169      3.878
REMARK  Name = 5287728
REMARK  9 active torsions:
REMARK  status: ('A' for Active; 'I' for Inactive)
REMARK    1  A    between atoms: S_1  and  N_4
REMARK    2  A    between atoms: S_1  and  N_22
REMARK    3  A    between atoms: C_5  and  N_10
REMARK    4  A    between atoms: N_10  and  C_13
REMARK    5  A    between atoms: C_13  and  C_14
REMARK    6  A    between atoms: C_15  and  O_20
REMARK    7  A    between atoms: N_22  and  C_24
REMARK    8  A    between atoms: C_27  and  O_30
REMARK    9  A    between atoms: O_30  and  C_32
REMARK                            x       y       z     vdW  Elec       q    Type
REMARK                         _______ _______ _______ _____ _____    ______ ____
ROOT
ATOM      1  S   UNL     1      36.501 -20.684 -20.199  0.00  0.00    +0.113 S 
ATOM      2  O   UNL     1      37.449 -19.629 -19.893  0.00  0.00    -0.138 OA
ATOM      3  O   UNL     1      36.866 -21.747 -21.119  0.00  0.00    -0.138 OA
ENDROOT
BRANCH   1   4
ATOM      4  N   UNL     1      35.999 -21.393 -18.721  0.00  0.00    -0.143 NA
ATOM      5  C   UNL     1      35.445 -23.150 -16.471  0.00  0.00    -0.059 C 
ATOM      6  C   UNL     1      34.357 -22.745 -17.471  0.00  0.00    -0.002 C 
ATOM      7  C   UNL     1      36.537 -22.076 -16.412  0.00  0.00    -0.002 C 
ATOM      8  C   UNL     1      34.957 -22.454 -18.845  0.00  0.00    +0.095 C 
ATOM      9  C   UNL     1      37.104 -21.795 -17.800  0.00  0.00    +0.095 C 
BRANCH   5  10
ATOM     10  N   UNL     1      34.860 -23.344 -15.146  0.00  0.00    +0.388 N 
ATOM     11  H   UNL     1      33.882 -23.053 -15.166  0.00  0.00    -0.084 HD
ATOM     12  H   UNL     1      35.383 -22.786 -14.472  0.00  0.00    -0.084 HD
BRANCH  10  13
ATOM     13  C   UNL     1      34.933 -24.743 -14.751  0.00  0.00    -0.051 C 
BRANCH  13  14
ATOM     14  C   UNL     1      36.332 -25.144 -14.366  0.00  0.00    -0.010 C 
ATOM     15  C   UNL     1      36.980 -26.168 -15.045  0.00  0.00    +0.128 C 
ATOM     16  C   UNL     1      36.959 -24.472 -13.324  0.00  0.00    -0.003 C 
ATOM     17  C   UNL     1      38.276 -26.527 -14.676  0.00  0.00    +0.036 C 
ATOM     18  C   UNL     1      38.255 -24.832 -12.955  0.00  0.00    -0.000 C 
ATOM     19  C   UNL     1      38.913 -25.858 -13.631  0.00  0.00    +0.003 C 
BRANCH  15  20
ATOM     20  O   UNL     1      36.371 -26.831 -16.068  0.00  0.00    -0.506 OA
ATOM     21  H   UNL     1      35.475 -26.653 -16.275  0.00  0.00    +0.292 HD
ENDBRANCH  15  20
ENDBRANCH  13  14
ENDBRANCH  10  13
ENDBRANCH   5  10
ENDBRANCH   1   4
BRANCH   1  22
ATOM     22  N   UNL     1      35.033 -19.936 -20.711  0.00  0.00    -0.205 N 
ATOM     23  H   UNL     1      34.188 -20.069 -20.223  0.00  0.00    +0.175 HD
BRANCH  22  24
ATOM     24  C   UNL     1      35.102 -19.107 -21.887  0.00  0.00    +0.069 C 
ATOM     25  C   UNL     1      35.329 -17.743 -21.752  0.00  0.00    +0.053 C 
ATOM     26  C   UNL     1      34.940 -19.681 -23.141  0.00  0.00    +0.016 C 
ATOM     27  C   UNL     1      35.395 -16.941 -22.891  0.00  0.00    +0.147 C 
ATOM     28  C   UNL     1      35.006 -18.878 -24.280  0.00  0.00    +0.004 C 
ATOM     29  C   UNL     1      35.234 -17.509 -24.155  0.00  0.00    +0.038 C 
BRANCH  27  30
ATOM     30  O   UNL     1      35.616 -15.603 -22.769  0.00  0.00    -0.453 OA
BRANCH  30  32
ATOM     31  F   UNL     1      31.398 -12.452 -21.211  0.00  0.00    -0.204 F 
ATOM     32  C   UNL     1      34.552 -14.808 -22.376  0.00  0.00    +0.145 C 
ATOM     33  C   UNL     1      34.219 -14.742 -21.034  0.00  0.00    +0.040 C 
ATOM     34  C   UNL     1      33.849 -14.101 -23.334  0.00  0.00    +0.040 C 
ATOM     35  C   UNL     1      33.148 -13.941 -20.639  0.00  0.00    +0.033 C 
ATOM     36  C   UNL     1      32.777 -13.301 -22.939  0.00  0.00    +0.033 C 
ATOM     37  C   UNL     1      32.427 -13.221 -21.591  0.00  0.00    +0.140 C 
ENDBRANCH  30  32
ENDBRANCH  27  30
ENDBRANCH  22  24
ENDBRANCH   1  22
TORSDOF 9
ENDMDL
