MODEL 1
REMARK VINA RESULT:     -11.6      0.000      0.000
REMARK  Name = 16755766
REMARK  5 active torsions:
REMARK  status: ('A' for Active; 'I' for Inactive)
REMARK    1  A    between atoms: N_1  and  C_25
REMARK    2  A    between atoms: N_3  and  C_12
REMARK    3  A    between atoms: C_5  and  C_20
REMARK    4  A    between atoms: C_25  and  C_26
REMARK    5  A    between atoms: C_26  and  C_29
REMARK                            x       y       z     vdW  Elec       q    Type
REMARK                         _______ _______ _______ _____ _____    ______ ____
ROOT
ATOM      1  N   UNL     1      32.865 -23.446 -16.218  0.00  0.00    -0.174 N 
ATOM      2  N   UNL     1      34.075 -23.660 -15.699  0.00  0.00    -0.096 NA
ATOM      3  N   UNL     1      34.611 -24.677 -13.595  0.00  0.00    -0.246 N 
ATOM      4  N   UNL     1      32.403 -24.389 -14.318  0.00  0.00    -0.319 NA
ATOM      5  C   UNL     1      31.876 -23.875 -15.405  0.00  0.00    +0.216 C 
ATOM      6  C   UNL     1      33.741 -24.237 -14.542  0.00  0.00    +0.165 C 
ATOM      7  H   UNL     1      34.175 -24.995 -12.772  0.00  0.00    +0.165 HD
ENDROOT
BRANCH   3  12
ATOM      8  F   UNL     1      40.790 -27.027 -14.550  0.00  0.00    -0.125 F 
ATOM      9  F   UNL     1      40.930 -25.174 -15.704  0.00  0.00    -0.125 F 
ATOM     10  O   UNL     1      38.893 -26.122 -15.400  0.00  0.00    -0.395 OA
ATOM     11  O   UNL     1      40.113 -25.087 -13.592  0.00  0.00    -0.395 OA
ATOM     12  C   UNL     1      36.031 -24.764 -13.565  0.00  0.00    +0.061 C 
ATOM     13  C   UNL     1      38.071 -25.504 -14.506  0.00  0.00    +0.183 C 
ATOM     14  C   UNL     1      36.694 -25.446 -14.580  0.00  0.00    +0.056 C 
ATOM     15  C   UNL     1      38.768 -24.914 -13.475  0.00  0.00    +0.182 C 
ATOM     16  C   UNL     1      36.731 -24.161 -12.511  0.00  0.00    +0.019 C 
ATOM     17  C   UNL     1      38.125 -24.234 -12.461  0.00  0.00    +0.042 C 
ATOM     18  C   UNL     1      40.170 -25.848 -14.806  0.00  0.00    +0.589 C 
ENDBRANCH   3  12
BRANCH   5  20
ATOM     19  N   UNL     1      27.744 -23.560 -16.291  0.00  0.00    -0.242 NA
ATOM     20  C   UNL     1      30.468 -23.767 -15.705  0.00  0.00    +0.050 C 
ATOM     21  C   UNL     1      29.765 -22.621 -15.352  0.00  0.00    +0.025 C 
ATOM     22  C   UNL     1      29.812 -24.809 -16.350  0.00  0.00    +0.025 C 
ATOM     23  C   UNL     1      28.416 -22.567 -15.665  0.00  0.00    +0.099 C 
ATOM     24  C   UNL     1      28.461 -24.657 -16.618  0.00  0.00    +0.099 C 
ENDBRANCH   5  20
BRANCH   1  25
ATOM     25  C   UNL     1      32.745 -22.801 -17.520  0.00  0.00    +0.129 C 
BRANCH  25  26
ATOM     26  C   UNL     1      34.011 -22.961 -18.360  0.00  0.00    +0.109 C 
BRANCH  26  29
ATOM     27  O   UNL     1      33.012 -21.864 -20.242  0.00  0.00    -0.275 OA
ATOM     28  N   UNL     1      35.249 -21.400 -19.839  0.00  0.00    -0.276 N 
ATOM     29  C   UNL     1      34.031 -22.030 -19.565  0.00  0.00    +0.228 C 
ATOM     30  C   UNL     1      36.442 -21.613 -19.023  0.00  0.00    +0.115 C 
ATOM     31  C   UNL     1      35.420 -20.484 -20.960  0.00  0.00    +0.115 C 
ENDBRANCH  26  29
ENDBRANCH  25  26
ENDBRANCH   1  25
TORSDOF 5
ENDMDL
MODEL 2
REMARK VINA RESULT:     -11.3      4.350      8.039
REMARK  Name = 16755766
REMARK  5 active torsions:
REMARK  status: ('A' for Active; 'I' for Inactive)
REMARK    1  A    between atoms: N_1  and  C_25
REMARK    2  A    between atoms: N_3  and  C_12
REMARK    3  A    between atoms: C_5  and  C_20
REMARK    4  A    between atoms: C_25  and  C_26
REMARK    5  A    between atoms: C_26  and  C_29
REMARK                            x       y       z     vdW  Elec       q    Type
REMARK                         _______ _______ _______ _____ _____    ______ ____
ROOT
ATOM      1  N   UNL     1      34.776 -23.747 -15.910  0.00  0.00    -0.174 N 
ATOM      2  N   UNL     1      34.704 -22.973 -16.995  0.00  0.00    -0.096 NA
ATOM      3  N   UNL     1      36.514 -21.980 -18.212  0.00  0.00    -0.246 N 
ATOM      4  N   UNL     1      36.863 -23.310 -16.318  0.00  0.00    -0.319 NA
ATOM      5  C   UNL     1      36.049 -23.948 -15.508  0.00  0.00    +0.216 C 
ATOM      6  C   UNL     1      36.000 -22.733 -17.205  0.00  0.00    +0.165 C 
ATOM      7  H   UNL     1      37.488 -21.847 -18.152  0.00  0.00    +0.165 HD
ENDROOT
BRANCH   3  12
ATOM      8  F   UNL     1      35.326 -17.477 -23.001  0.00  0.00    -0.125 F 
ATOM      9  F   UNL     1      35.840 -19.199 -24.249  0.00  0.00    -0.125 F 
ATOM     10  O   UNL     1      36.650 -19.100 -22.133  0.00  0.00    -0.395 OA
ATOM     11  O   UNL     1      34.309 -19.463 -22.599  0.00  0.00    -0.395 OA
ATOM     12  C   UNL     1      35.915 -21.345 -19.336  0.00  0.00    +0.061 C 
ATOM     13  C   UNL     1      36.063 -19.931 -21.227  0.00  0.00    +0.183 C 
ATOM     14  C   UNL     1      36.689 -20.525 -20.150  0.00  0.00    +0.056 C 
ATOM     15  C   UNL     1      34.727 -20.138 -21.494  0.00  0.00    +0.182 C 
ATOM     16  C   UNL     1      34.555 -21.562 -19.599  0.00  0.00    +0.019 C 
ATOM     17  C   UNL     1      33.946 -20.950 -20.697  0.00  0.00    +0.042 C 
ATOM     18  C   UNL     1      35.530 -18.818 -22.985  0.00  0.00    +0.589 C 
ENDBRANCH   3  12
BRANCH   5  20
ATOM     19  N   UNL     1      37.159 -26.272 -12.143  0.00  0.00    -0.242 NA
ATOM     20  C   UNL     1      36.428 -24.738 -14.362  0.00  0.00    +0.050 C 
ATOM     21  C   UNL     1      36.166 -24.275 -13.077  0.00  0.00    +0.025 C 
ATOM     22  C   UNL     1      37.055 -25.966 -14.539  0.00  0.00    +0.025 C 
ATOM     23  C   UNL     1      36.548 -25.073 -12.011  0.00  0.00    +0.099 C 
ATOM     24  C   UNL     1      37.398 -26.687 -13.407  0.00  0.00    +0.099 C 
ENDBRANCH   5  20
BRANCH   1  25
ATOM     25  C   UNL     1      33.550 -24.252 -15.305  0.00  0.00    +0.129 C 
BRANCH  25  26
ATOM     26  C   UNL     1      32.503 -23.154 -15.123  0.00  0.00    +0.109 C 
BRANCH  26  29
ATOM     27  O   UNL     1      31.265 -22.758 -17.137  0.00  0.00    -0.275 OA
ATOM     28  N   UNL     1      30.287 -24.172 -15.580  0.00  0.00    -0.276 N 
ATOM     29  C   UNL     1      31.305 -23.333 -16.046  0.00  0.00    +0.228 C 
ATOM     30  C   UNL     1      30.357 -24.844 -14.284  0.00  0.00    +0.115 C 
ATOM     31  C   UNL     1      29.080 -24.439 -16.351  0.00  0.00    +0.115 C 
ENDBRANCH  26  29
ENDBRANCH  25  26
ENDBRANCH   1  25
TORSDOF 5
ENDMDL
MODEL 3
REMARK VINA RESULT:     -10.3      4.462      8.211
REMARK  Name = 16755766
REMARK  5 active torsions:
REMARK  status: ('A' for Active; 'I' for Inactive)
REMARK    1  A    between atoms: N_1  and  C_25
REMARK    2  A    between atoms: N_3  and  C_12
REMARK    3  A    between atoms: C_5  and  C_20
REMARK    4  A    between atoms: C_25  and  C_26
REMARK    5  A    between atoms: C_26  and  C_29
REMARK                            x       y       z     vdW  Elec       q    Type
REMARK                         _______ _______ _______ _____ _____    ______ ____
ROOT
ATOM      1  N   UNL     1      35.054 -23.692 -15.073  0.00  0.00    -0.174 N 
ATOM      2  N   UNL     1      33.769 -23.796 -15.417  0.00  0.00    -0.096 NA
ATOM      3  N   UNL     1      31.955 -24.615 -14.082  0.00  0.00    -0.246 N 
ATOM      4  N   UNL     1      34.153 -24.520 -13.281  0.00  0.00    -0.319 NA
ATOM      5  C   UNL     1      35.284 -24.118 -13.813  0.00  0.00    +0.216 C 
ATOM      6  C   UNL     1      33.261 -24.305 -14.292  0.00  0.00    +0.165 C 
ATOM      7  H   UNL     1      31.787 -25.061 -13.220  0.00  0.00    +0.165 HD
ENDROOT
BRANCH   3  12
ATOM      8  F   UNL     1      26.084 -22.167 -16.120  0.00  0.00    -0.125 F 
ATOM      9  F   UNL     1      27.324 -21.587 -17.826  0.00  0.00    -0.125 F 
ATOM     10  O   UNL     1      28.312 -21.889 -15.807  0.00  0.00    -0.395 OA
ATOM     11  O   UNL     1      27.414 -23.728 -17.088  0.00  0.00    -0.395 OA
ATOM     12  C   UNL     1      30.785 -24.419 -14.867  0.00  0.00    +0.061 C 
ATOM     13  C   UNL     1      29.044 -23.029 -15.661  0.00  0.00    +0.183 C 
ATOM     14  C   UNL     1      30.177 -23.169 -14.885  0.00  0.00    +0.056 C 
ATOM     15  C   UNL     1      28.531 -24.077 -16.393  0.00  0.00    +0.182 C 
ATOM     16  C   UNL     1      30.271 -25.493 -15.607  0.00  0.00    +0.019 C 
ATOM     17  C   UNL     1      29.124 -25.324 -16.386  0.00  0.00    +0.042 C 
ATOM     18  C   UNL     1      27.294 -22.351 -16.705  0.00  0.00    +0.589 C 
ENDBRANCH   3  12
BRANCH   5  20
ATOM     19  N   UNL     1      39.089 -24.139 -11.948  0.00  0.00    -0.242 NA
ATOM     20  C   UNL     1      36.579 -24.127 -13.177  0.00  0.00    +0.050 C 
ATOM     21  C   UNL     1      37.421 -25.225 -13.320  0.00  0.00    +0.025 C 
ATOM     22  C   UNL     1      36.991 -23.035 -12.421  0.00  0.00    +0.025 C 
ATOM     23  C   UNL     1      38.654 -25.181 -12.691  0.00  0.00    +0.099 C 
ATOM     24  C   UNL     1      38.244 -23.091 -11.832  0.00  0.00    +0.099 C 
ENDBRANCH   5  20
BRANCH   1  25
ATOM     25  C   UNL     1      36.016 -23.171 -16.037  0.00  0.00    +0.129 C 
BRANCH  25  26
ATOM     26  C   UNL     1      35.351 -22.765 -17.352  0.00  0.00    +0.109 C 
BRANCH  26  29
ATOM     27  O   UNL     1      37.447 -21.742 -17.907  0.00  0.00    -0.275 OA
ATOM     28  N   UNL     1      35.723 -21.471 -19.436  0.00  0.00    -0.276 N 
ATOM     29  C   UNL     1      36.278 -21.950 -18.244  0.00  0.00    +0.228 C 
ATOM     30  C   UNL     1      34.336 -21.730 -19.815  0.00  0.00    +0.115 C 
ATOM     31  C   UNL     1      36.487 -20.676 -20.389  0.00  0.00    +0.115 C 
ENDBRANCH  26  29
ENDBRANCH  25  26
ENDBRANCH   1  25
TORSDOF 5
ENDMDL
MODEL 4
REMARK VINA RESULT:     -10.3      2.804      5.908
REMARK  Name = 16755766
REMARK  5 active torsions:
REMARK  status: ('A' for Active; 'I' for Inactive)
REMARK    1  A    between atoms: N_1  and  C_25
REMARK    2  A    between atoms: N_3  and  C_12
REMARK    3  A    between atoms: C_5  and  C_20
REMARK    4  A    between atoms: C_25  and  C_26
REMARK    5  A    between atoms: C_26  and  C_29
REMARK                            x       y       z     vdW  Elec       q    Type
REMARK                         _______ _______ _______ _____ _____    ______ ____
ROOT
ATOM      1  N   UNL     1      35.238 -22.172 -18.471  0.00  0.00    -0.174 N 
ATOM      2  N   UNL     1      35.676 -22.777 -17.365  0.00  0.00    -0.096 NA
ATOM      3  N   UNL     1      37.843 -22.601 -16.356  0.00  0.00    -0.246 N 
ATOM      4  N   UNL     1      37.279 -21.450 -18.314  0.00  0.00    -0.319 NA
ATOM      5  C   UNL     1      36.183 -21.387 -19.034  0.00  0.00    +0.216 C 
ATOM      6  C   UNL     1      36.923 -22.305 -17.311  0.00  0.00    +0.165 C 
ATOM      7  H   UNL     1      38.735 -22.225 -16.533  0.00  0.00    +0.165 HD
ENDROOT
BRANCH   3  12
ATOM      8  F   UNL     1      36.688 -24.110  -9.952  0.00  0.00    -0.125 F 
ATOM      9  F   UNL     1      35.287 -25.495 -10.904  0.00  0.00    -0.125 F 
ATOM     10  O   UNL     1      35.889 -23.613 -12.014  0.00  0.00    -0.395 OA
ATOM     11  O   UNL     1      37.431 -25.432 -11.638  0.00  0.00    -0.395 OA
ATOM     12  C   UNL     1      37.763 -23.351 -15.149  0.00  0.00    +0.061 C 
ATOM     13  C   UNL     1      36.759 -23.779 -13.050  0.00  0.00    +0.183 C 
ATOM     14  C   UNL     1      36.796 -23.023 -14.205  0.00  0.00    +0.056 C 
ATOM     15  C   UNL     1      37.638 -24.818 -12.835  0.00  0.00    +0.182 C 
ATOM     16  C   UNL     1      38.662 -24.406 -14.939  0.00  0.00    +0.019 C 
ATOM     17  C   UNL     1      38.602 -25.156 -13.762  0.00  0.00    +0.042 C 
ATOM     18  C   UNL     1      36.330 -24.660 -11.140  0.00  0.00    +0.589 C 
ENDBRANCH   3  12
BRANCH   5  20
ATOM     19  N   UNL     1      35.626 -19.123 -22.571  0.00  0.00    -0.242 NA
ATOM     20  C   UNL     1      35.993 -20.618 -20.239  0.00  0.00    +0.050 C 
ATOM     21  C   UNL     1      34.758 -20.615 -20.879  0.00  0.00    +0.025 C 
ATOM     22  C   UNL     1      37.044 -19.874 -20.764  0.00  0.00    +0.025 C 
ATOM     23  C   UNL     1      34.628 -19.858 -22.032  0.00  0.00    +0.099 C 
ATOM     24  C   UNL     1      36.811 -19.151 -21.922  0.00  0.00    +0.099 C 
ENDBRANCH   5  20
BRANCH   1  25
ATOM     25  C   UNL     1      33.877 -22.414 -18.932  0.00  0.00    +0.129 C 
BRANCH  25  26
ATOM     26  C   UNL     1      33.183 -23.511 -18.125  0.00  0.00    +0.109 C 
BRANCH  26  29
ATOM     27  O   UNL     1      31.207 -22.260 -17.598  0.00  0.00    -0.275 OA
ATOM     28  N   UNL     1      32.294 -23.279 -15.821  0.00  0.00    -0.276 N 
ATOM     29  C   UNL     1      32.134 -22.954 -17.172  0.00  0.00    +0.228 C 
ATOM     30  C   UNL     1      33.399 -24.104 -15.338  0.00  0.00    +0.115 C 
ATOM     31  C   UNL     1      31.370 -22.818 -14.791  0.00  0.00    +0.115 C 
ENDBRANCH  26  29
ENDBRANCH  25  26
ENDBRANCH   1  25
TORSDOF 5
ENDMDL
MODEL 5
REMARK VINA RESULT:     -10.2      3.811      7.274
REMARK  Name = 16755766
REMARK  5 active torsions:
REMARK  status: ('A' for Active; 'I' for Inactive)
REMARK    1  A    between atoms: N_1  and  C_25
REMARK    2  A    between atoms: N_3  and  C_12
REMARK    3  A    between atoms: C_5  and  C_20
REMARK    4  A    between atoms: C_25  and  C_26
REMARK    5  A    between atoms: C_26  and  C_29
REMARK                            x       y       z     vdW  Elec       q    Type
REMARK                         _______ _______ _______ _____ _____    ______ ____
ROOT
ATOM      1  N   UNL     1      33.648 -23.462 -16.486  0.00  0.00    -0.174 N 
ATOM      2  N   UNL     1      34.226 -22.795 -17.487  0.00  0.00    -0.096 NA
ATOM      3  N   UNL     1      33.159 -21.738 -19.355  0.00  0.00    -0.246 N 
ATOM      4  N   UNL     1      31.950 -22.868 -17.700  0.00  0.00    -0.319 NA
ATOM      5  C   UNL     1      32.304 -23.507 -16.608  0.00  0.00    +0.216 C 
ATOM      6  C   UNL     1      33.150 -22.454 -18.199  0.00  0.00    +0.165 C 
ATOM      7  H   UNL     1      32.274 -21.660 -19.780  0.00  0.00    +0.165 HD
ENDROOT
BRANCH   3  12
ATOM      8  F   UNL     1      36.464 -18.759 -24.337  0.00  0.00    -0.125 F 
ATOM      9  F   UNL     1      36.398 -17.102 -22.910  0.00  0.00    -0.125 F 
ATOM     10  O   UNL     1      34.805 -18.711 -22.792  0.00  0.00    -0.395 OA
ATOM     11  O   UNL     1      37.107 -19.132 -22.195  0.00  0.00    -0.395 OA
ATOM     12  C   UNL     1      34.201 -21.082 -20.068  0.00  0.00    +0.061 C 
ATOM     13  C   UNL     1      34.921 -19.595 -21.761  0.00  0.00    +0.183 C 
ATOM     14  C   UNL     1      33.876 -20.207 -21.099  0.00  0.00    +0.056 C 
ATOM     15  C   UNL     1      36.234 -19.834 -21.421  0.00  0.00    +0.182 C 
ATOM     16  C   UNL     1      35.534 -21.332 -19.715  0.00  0.00    +0.019 C 
ATOM     17  C   UNL     1      36.573 -20.699 -20.400  0.00  0.00    +0.042 C 
ATOM     18  C   UNL     1      36.189 -18.435 -23.048  0.00  0.00    +0.589 C 
ENDBRANCH   3  12
BRANCH   5  20
ATOM     19  N   UNL     1      29.706 -25.436 -13.873  0.00  0.00    -0.242 NA
ATOM     20  C   UNL     1      31.421 -24.165 -15.676  0.00  0.00    +0.050 C 
ATOM     21  C   UNL     1      31.691 -24.128 -14.313  0.00  0.00    +0.025 C 
ATOM     22  C   UNL     1      30.295 -24.836 -16.139  0.00  0.00    +0.025 C 
ATOM     23  C   UNL     1      30.810 -24.773 -13.460  0.00  0.00    +0.099 C 
ATOM     24  C   UNL     1      29.477 -25.450 -15.205  0.00  0.00    +0.099 C 
ENDBRANCH   5  20
BRANCH   1  25
ATOM     25  C   UNL     1      34.477 -24.044 -15.437  0.00  0.00    +0.129 C 
BRANCH  25  26
ATOM     26  C   UNL     1      35.969 -23.885 -15.728  0.00  0.00    +0.109 C 
BRANCH  26  29
ATOM     27  O   UNL     1      36.839 -26.119 -15.713  0.00  0.00    -0.275 OA
ATOM     28  N   UNL     1      37.487 -24.741 -13.963  0.00  0.00    -0.276 N 
ATOM     29  C   UNL     1      36.798 -25.023 -15.147  0.00  0.00    +0.228 C 
ATOM     30  C   UNL     1      37.424 -23.436 -13.310  0.00  0.00    +0.115 C 
ATOM     31  C   UNL     1      38.320 -25.730 -13.290  0.00  0.00    +0.115 C 
ENDBRANCH  26  29
ENDBRANCH  25  26
ENDBRANCH   1  25
TORSDOF 5
ENDMDL
MODEL 6
REMARK VINA RESULT:      -9.3      6.711     10.894
REMARK  Name = 16755766
REMARK  5 active torsions:
REMARK  status: ('A' for Active; 'I' for Inactive)
REMARK    1  A    between atoms: N_1  and  C_25
REMARK    2  A    between atoms: N_3  and  C_12
REMARK    3  A    between atoms: C_5  and  C_20
REMARK    4  A    between atoms: C_25  and  C_26
REMARK    5  A    between atoms: C_26  and  C_29
REMARK                            x       y       z     vdW  Elec       q    Type
REMARK                         _______ _______ _______ _____ _____    ______ ____
ROOT
ATOM      1  N   UNL     1      34.561 -15.247 -22.140  0.00  0.00    -0.174 N 
ATOM      2  N   UNL     1      34.715 -16.459 -21.605  0.00  0.00    -0.096 NA
ATOM      3  N   UNL     1      35.039 -18.539 -22.752  0.00  0.00    -0.246 N 
ATOM      4  N   UNL     1      34.783 -16.510 -23.891  0.00  0.00    -0.319 NA
ATOM      5  C   UNL     1      34.601 -15.273 -23.489  0.00  0.00    +0.216 C 
ATOM      6  C   UNL     1      34.847 -17.194 -22.711  0.00  0.00    +0.165 C 
ATOM      7  H   UNL     1      35.026 -18.915 -23.662  0.00  0.00    +0.165 HD
ENDROOT
BRANCH   3  12
ATOM      8  F   UNL     1      33.921 -22.438 -17.445  0.00  0.00    -0.125 F 
ATOM      9  F   UNL     1      34.208 -23.982 -18.968  0.00  0.00    -0.125 F 
ATOM     10  O   UNL     1      33.502 -21.926 -19.613  0.00  0.00    -0.395 OA
ATOM     11  O   UNL     1      35.739 -22.319 -18.795  0.00  0.00    -0.395 OA
ATOM     12  C   UNL     1      35.253 -19.507 -21.732  0.00  0.00    +0.061 C 
ATOM     13  C   UNL     1      34.427 -21.141 -20.233  0.00  0.00    +0.183 C 
ATOM     14  C   UNL     1      34.168 -20.213 -21.222  0.00  0.00    +0.056 C 
ATOM     15  C   UNL     1      35.703 -21.366 -19.766  0.00  0.00    +0.182 C 
ATOM     16  C   UNL     1      36.555 -19.729 -21.262  0.00  0.00    +0.019 C 
ATOM     17  C   UNL     1      36.789 -20.675 -20.262  0.00  0.00    +0.042 C 
ATOM     18  C   UNL     1      34.347 -22.657 -18.714  0.00  0.00    +0.589 C 
ENDBRANCH   3  12
BRANCH   5  20
ATOM     19  N   UNL     1      34.181 -11.865 -25.972  0.00  0.00    -0.242 NA
ATOM     20  C   UNL     1      34.457 -14.112 -24.333  0.00  0.00    +0.050 C 
ATOM     21  C   UNL     1      34.763 -12.848 -23.841  0.00  0.00    +0.025 C 
ATOM     22  C   UNL     1      34.014 -14.253 -25.643  0.00  0.00    +0.025 C 
ATOM     23  C   UNL     1      34.609 -11.766 -24.693  0.00  0.00    +0.099 C 
ATOM     24  C   UNL     1      33.893 -13.109 -26.414  0.00  0.00    +0.099 C 
ENDBRANCH   5  20
BRANCH   1  25
ATOM     25  C   UNL     1      34.367 -14.095 -21.267  0.00  0.00    +0.129 C 
BRANCH  25  26
ATOM     26  C   UNL     1      32.961 -14.056 -20.670  0.00  0.00    +0.109 C 
BRANCH  26  29
ATOM     27  O   UNL     1      31.894 -12.920 -22.491  0.00  0.00    -0.275 OA
ATOM     28  N   UNL     1      31.587 -12.011 -20.379  0.00  0.00    -0.276 N 
ATOM     29  C   UNL     1      32.103 -12.953 -21.275  0.00  0.00    +0.228 C 
ATOM     30  C   UNL     1      31.848 -12.070 -18.943  0.00  0.00    +0.115 C 
ATOM     31  C   UNL     1      30.751 -10.898 -20.811  0.00  0.00    +0.115 C 
ENDBRANCH  26  29
ENDBRANCH  25  26
ENDBRANCH   1  25
TORSDOF 5
ENDMDL
MODEL 7
REMARK VINA RESULT:      -9.2     12.693     16.557
REMARK  Name = 16755766
REMARK  5 active torsions:
REMARK  status: ('A' for Active; 'I' for Inactive)
REMARK    1  A    between atoms: N_1  and  C_25
REMARK    2  A    between atoms: N_3  and  C_12
REMARK    3  A    between atoms: C_5  and  C_20
REMARK    4  A    between atoms: C_25  and  C_26
REMARK    5  A    between atoms: C_26  and  C_29
REMARK                            x       y       z     vdW  Elec       q    Type
REMARK                         _______ _______ _______ _____ _____    ______ ____
ROOT
ATOM      1  N   UNL     1      33.766 -13.253 -22.945  0.00  0.00    -0.174 N 
ATOM      2  N   UNL     1      33.680 -11.924 -22.880  0.00  0.00    -0.096 NA
ATOM      3  N   UNL     1      34.247 -10.332 -24.581  0.00  0.00    -0.246 N 
ATOM      4  N   UNL     1      34.479 -12.639 -24.901  0.00  0.00    -0.319 NA
ATOM      5  C   UNL     1      34.237 -13.679 -24.137  0.00  0.00    +0.216 C 
ATOM      6  C   UNL     1      34.125 -11.595 -24.095  0.00  0.00    +0.165 C 
ATOM      7  H   UNL     1      34.675 -10.286 -25.466  0.00  0.00    +0.165 HD
ENDROOT
BRANCH   3  12
ATOM      8  F   UNL     1      30.611  -4.880 -23.286  0.00  0.00    -0.125 F 
ATOM      9  F   UNL     1      30.822  -5.660 -21.253  0.00  0.00    -0.125 F 
ATOM     10  O   UNL     1      30.971  -7.100 -22.998  0.00  0.00    -0.395 OA
ATOM     11  O   UNL     1      32.675  -5.452 -22.541  0.00  0.00    -0.395 OA
ATOM     12  C   UNL     1      33.875  -9.064 -24.054  0.00  0.00    +0.061 C 
ATOM     13  C   UNL     1      32.221  -7.549 -23.301  0.00  0.00    +0.183 C 
ATOM     14  C   UNL     1      32.532  -8.793 -23.810  0.00  0.00    +0.056 C 
ATOM     15  C   UNL     1      33.193  -6.608 -23.040  0.00  0.00    +0.182 C 
ATOM     16  C   UNL     1      34.871  -8.113 -23.793  0.00  0.00    +0.019 C 
ATOM     17  C   UNL     1      34.529  -6.861 -23.276  0.00  0.00    +0.042 C 
ATOM     18  C   UNL     1      31.280  -5.782 -22.524  0.00  0.00    +0.589 C 
ENDBRANCH   3  12
BRANCH   5  20
ATOM     19  N   UNL     1      34.827 -17.747 -25.165  0.00  0.00    -0.242 NA
ATOM     20  C   UNL     1      34.440 -15.064 -24.487  0.00  0.00    +0.050 C 
ATOM     21  C   UNL     1      35.243 -15.875 -23.693  0.00  0.00    +0.025 C 
ATOM     22  C   UNL     1      33.831 -15.593 -25.619  0.00  0.00    +0.025 C 
ATOM     23  C   UNL     1      35.403 -17.198 -24.072  0.00  0.00    +0.099 C 
ATOM     24  C   UNL     1      34.055 -16.928 -25.912  0.00  0.00    +0.099 C 
ENDBRANCH   5  20
BRANCH   1  25
ATOM     25  C   UNL     1      33.377 -14.056 -21.792  0.00  0.00    +0.129 C 
BRANCH  25  26
ATOM     26  C   UNL     1      31.995 -13.674 -21.264  0.00  0.00    +0.109 C 
BRANCH  26  29
ATOM     27  O   UNL     1      32.412 -13.922 -18.917  0.00  0.00    -0.275 OA
ATOM     28  N   UNL     1      31.638 -11.851 -19.619  0.00  0.00    -0.276 N 
ATOM     29  C   UNL     1      32.039 -13.175 -19.826  0.00  0.00    +0.228 C 
ATOM     30  C   UNL     1      31.201 -10.985 -20.711  0.00  0.00    +0.115 C 
ATOM     31  C   UNL     1      31.626 -11.236 -18.298  0.00  0.00    +0.115 C 
ENDBRANCH  26  29
ENDBRANCH  25  26
ENDBRANCH   1  25
TORSDOF 5
ENDMDL
MODEL 8
REMARK VINA RESULT:      -9.1      4.564      8.349
REMARK  Name = 16755766
REMARK  5 active torsions:
REMARK  status: ('A' for Active; 'I' for Inactive)
REMARK    1  A    between atoms: N_1  and  C_25
REMARK    2  A    between atoms: N_3  and  C_12
REMARK    3  A    between atoms: C_5  and  C_20
REMARK    4  A    between atoms: C_25  and  C_26
REMARK    5  A    between atoms: C_26  and  C_29
REMARK                            x       y       z     vdW  Elec       q    Type
REMARK                         _______ _______ _______ _____ _____    ______ ____
ROOT
ATOM      1  N   UNL     1      35.112 -22.970 -17.380  0.00  0.00    -0.174 N 
ATOM      2  N   UNL     1      35.278 -22.140 -18.411  0.00  0.00    -0.096 NA
ATOM      3  N   UNL     1      37.159 -20.727 -18.870  0.00  0.00    -0.246 N 
ATOM      4  N   UNL     1      37.068 -22.114 -16.987  0.00  0.00    -0.319 NA
ATOM      5  C   UNL     1      36.167 -22.957 -16.537  0.00  0.00    +0.216 C 
ATOM      6  C   UNL     1      36.483 -21.642 -18.127  0.00  0.00    +0.165 C 
ATOM      7  H   UNL     1      37.996 -20.417 -18.455  0.00  0.00    +0.165 HD
ENDROOT
BRANCH   3  12
ATOM      8  F   UNL     1      34.916 -19.966 -25.116  0.00  0.00    -0.125 F 
ATOM      9  F   UNL     1      33.760 -18.393 -24.127  0.00  0.00    -0.125 F 
ATOM     10  O   UNL     1      34.487 -20.154 -22.898  0.00  0.00    -0.395 OA
ATOM     11  O   UNL     1      35.998 -18.489 -23.778  0.00  0.00    -0.395 OA
ATOM     12  C   UNL     1      36.888 -20.130 -20.133  0.00  0.00    +0.061 C 
ATOM     13  C   UNL     1      35.536 -19.911 -22.062  0.00  0.00    +0.183 C 
ATOM     14  C   UNL     1      35.755 -20.517 -20.842  0.00  0.00    +0.056 C 
ATOM     15  C   UNL     1      36.397 -18.960 -22.565  0.00  0.00    +0.182 C 
ATOM     16  C   UNL     1      37.770 -19.165 -20.637  0.00  0.00    +0.019 C 
ATOM     17  C   UNL     1      37.524 -18.566 -21.874  0.00  0.00    +0.042 C 
ATOM     18  C   UNL     1      34.798 -19.252 -23.968  0.00  0.00    +0.589 C 
ENDBRANCH   3  12
BRANCH   5  20
ATOM     19  N   UNL     1      36.448 -25.280 -13.005  0.00  0.00    -0.242 NA
ATOM     20  C   UNL     1      36.262 -23.749 -15.335  0.00  0.00    +0.050 C 
ATOM     21  C   UNL     1      36.774 -25.041 -15.388  0.00  0.00    +0.025 C 
ATOM     22  C   UNL     1      35.842 -23.222 -14.119  0.00  0.00    +0.025 C 
ATOM     23  C   UNL     1      36.846 -25.758 -14.205  0.00  0.00    +0.099 C 
ATOM     24  C   UNL     1      35.955 -24.022 -12.993  0.00  0.00    +0.099 C 
ENDBRANCH   5  20
BRANCH   1  25
ATOM     25  C   UNL     1      33.882 -23.746 -17.272  0.00  0.00    +0.129 C 
BRANCH  25  26
ATOM     26  C   UNL     1      32.956 -23.207 -16.183  0.00  0.00    +0.109 C 
BRANCH  26  29
ATOM     27  O   UNL     1      31.155 -22.391 -17.537  0.00  0.00    -0.275 OA
ATOM     28  N   UNL     1      30.617 -24.005 -15.961  0.00  0.00    -0.276 N 
ATOM     29  C   UNL     1      31.502 -23.153 -16.631  0.00  0.00    +0.228 C 
ATOM     30  C   UNL     1      31.051 -24.900 -14.891  0.00  0.00    +0.115 C 
ATOM     31  C   UNL     1      29.196 -24.063 -16.279  0.00  0.00    +0.115 C 
ENDBRANCH  26  29
ENDBRANCH  25  26
ENDBRANCH   1  25
TORSDOF 5
ENDMDL
MODEL 9
REMARK VINA RESULT:      -9.0     10.527     14.419
REMARK  Name = 16755766
REMARK  5 active torsions:
REMARK  status: ('A' for Active; 'I' for Inactive)
REMARK    1  A    between atoms: N_1  and  C_25
REMARK    2  A    between atoms: N_3  and  C_12
REMARK    3  A    between atoms: C_5  and  C_20
REMARK    4  A    between atoms: C_25  and  C_26
REMARK    5  A    between atoms: C_26  and  C_29
REMARK                            x       y       z     vdW  Elec       q    Type
REMARK                         _______ _______ _______ _____ _____    ______ ____
ROOT
ATOM      1  N   UNL     1      33.058 -11.273 -22.931  0.00  0.00    -0.174 N 
ATOM      2  N   UNL     1      33.339 -12.551 -23.192  0.00  0.00    -0.096 NA
ATOM      3  N   UNL     1      34.542 -13.434 -25.068  0.00  0.00    -0.246 N 
ATOM      4  N   UNL     1      34.153 -11.142 -24.800  0.00  0.00    -0.319 NA
ATOM      5  C   UNL     1      33.537 -10.438 -23.878  0.00  0.00    +0.216 C 
ATOM      6  C   UNL     1      34.007 -12.419 -24.341  0.00  0.00    +0.165 C 
ATOM      7  H   UNL     1      34.922 -13.149 -25.930  0.00  0.00    +0.165 HD
ENDROOT
BRANCH   3  12
ATOM      8  F   UNL     1      36.776 -19.220 -22.587  0.00  0.00    -0.125 F 
ATOM      9  F   UNL     1      34.741 -19.250 -21.786  0.00  0.00    -0.125 F 
ATOM     10  O   UNL     1      35.694 -17.253 -22.278  0.00  0.00    -0.395 OA
ATOM     11  O   UNL     1      35.041 -18.823 -23.991  0.00  0.00    -0.395 OA
ATOM     12  C   UNL     1      34.658 -14.831 -24.822  0.00  0.00    +0.061 C 
ATOM     13  C   UNL     1      35.242 -16.634 -23.405  0.00  0.00    +0.183 C 
ATOM     14  C   UNL     1      35.147 -15.270 -23.595  0.00  0.00    +0.056 C 
ATOM     15  C   UNL     1      34.869 -17.530 -24.381  0.00  0.00    +0.182 C 
ATOM     16  C   UNL     1      34.277 -15.736 -25.822  0.00  0.00    +0.019 C 
ATOM     17  C   UNL     1      34.382 -17.111 -25.602  0.00  0.00    +0.042 C 
ATOM     18  C   UNL     1      35.560 -18.626 -22.669  0.00  0.00    +0.589 C 
ENDBRANCH   3  12
BRANCH   5  20
ATOM     19  N   UNL     1      33.068  -6.228 -23.829  0.00  0.00    -0.242 NA
ATOM     20  C   UNL     1      33.378  -9.005 -23.860  0.00  0.00    +0.050 C 
ATOM     21  C   UNL     1      34.485  -8.181 -23.689  0.00  0.00    +0.025 C 
ATOM     22  C   UNL     1      32.116  -8.442 -24.015  0.00  0.00    +0.025 C 
ATOM     23  C   UNL     1      34.279  -6.811 -23.681  0.00  0.00    +0.099 C 
ATOM     24  C   UNL     1      32.016  -7.060 -23.992  0.00  0.00    +0.099 C 
ENDBRANCH   5  20
BRANCH   1  25
ATOM     25  C   UNL     1      32.301 -10.934 -21.732  0.00  0.00    +0.129 C 
BRANCH  25  26
ATOM     26  C   UNL     1      31.466 -12.110 -21.227  0.00  0.00    +0.109 C 
BRANCH  26  29
ATOM     27  O   UNL     1      32.328 -13.546 -19.512  0.00  0.00    -0.275 OA
ATOM     28  N   UNL     1      31.428 -11.524 -18.816  0.00  0.00    -0.276 N 
ATOM     29  C   UNL     1      31.785 -12.471 -19.782  0.00  0.00    +0.228 C 
ATOM     30  C   UNL     1      30.786 -10.258 -19.160  0.00  0.00    +0.115 C 
ATOM     31  C   UNL     1      31.669 -11.731 -17.393  0.00  0.00    +0.115 C 
ENDBRANCH  26  29
ENDBRANCH  25  26
ENDBRANCH   1  25
TORSDOF 5
ENDMDL
