MODEL 1
REMARK VINA RESULT:     -12.3      0.000      0.000
REMARK  Name = 45268539
REMARK  6 active torsions:
REMARK  status: ('A' for Active; 'I' for Inactive)
REMARK    1  A    between atoms: N_2  and  C_22
REMARK    2  A    between atoms: N_3  and  C_7
REMARK    3  A    between atoms: N_3  and  O_12
REMARK    4  A    between atoms: C_8  and  C_14
REMARK    5  A    between atoms: C_15  and  C_16
REMARK    6  A    between atoms: C_22  and  C_26
REMARK                            x       y       z     vdW  Elec       q    Type
REMARK                         _______ _______ _______ _____ _____    ______ ____
ROOT
ATOM      1  O   UNL     1      32.236 -23.818 -17.205  0.00  0.00    -0.273 OA
ATOM      2  N   UNL     1      34.398 -23.324 -16.349  0.00  0.00    -0.253 N 
ATOM      3  C   UNL     1      35.508 -22.639 -16.879  0.00  0.00    +0.052 C 
ATOM      4  C   UNL     1      35.229 -22.181 -18.167  0.00  0.00    +0.018 C 
ATOM      5  C   UNL     1      33.351 -23.345 -17.256  0.00  0.00    +0.252 C 
ATOM      6  C   UNL     1      33.873 -22.599 -18.461  0.00  0.00    +0.202 C 
ATOM      7  C   UNL     1      36.139 -21.476 -18.927  0.00  0.00    -0.001 C 
ATOM      8  C   UNL     1      36.740 -22.398 -16.300  0.00  0.00    +0.015 C 
ATOM      9  C   UNL     1      37.385 -21.228 -18.349  0.00  0.00    -0.000 C 
ATOM     10  C   UNL     1      37.683 -21.684 -17.050  0.00  0.00    +0.001 C 
ENDROOT
BRANCH   7  11
ATOM     11  C   UNL     1      35.855 -20.998 -20.268  0.00  0.00    -0.000 C 
ATOM     12  C   UNL     1      35.876 -19.699 -20.657  0.00  0.00    -0.000 C 
BRANCH  12  13
ATOM     13  C   UNL     1      35.605 -19.215 -22.022  0.00  0.00    -0.000 C 
ATOM     14  C   UNL     1      35.139 -20.099 -22.996  0.00  0.00    -0.000 C 
ATOM     15  C   UNL     1      35.812 -17.873 -22.340  0.00  0.00    -0.000 C 
ATOM     16  C   UNL     1      34.883 -19.640 -24.288  0.00  0.00    +0.000 C 
ATOM     17  C   UNL     1      35.556 -17.415 -23.632  0.00  0.00    +0.000 C 
ATOM     18  C   UNL     1      35.091 -18.298 -24.607  0.00  0.00    +0.000 C 
ENDBRANCH  12  13
ENDBRANCH   7  11
BRANCH   6  19
ATOM     19  N   UNL     1      33.185 -22.406 -19.530  0.00  0.00    -0.075 NA
BRANCH  19  20
ATOM     20  O   UNL     1      32.631 -21.123 -19.475  0.00  0.00    -0.294 OA
ATOM     21  H   UNL     1      31.703 -21.017 -19.393  0.00  0.00    +0.238 HD
ENDBRANCH  19  20
ENDBRANCH   6  19
BRANCH   2  22
ATOM     22  C   UNL     1      34.383 -23.913 -15.033  0.00  0.00    +0.128 C 
BRANCH  22  26
ATOM     23  F   UNL     1      37.117 -27.695 -16.400  0.00  0.00    -0.204 F 
ATOM     24  O   UNL     1      36.124 -23.603 -12.866  0.00  0.00    -0.448 OA
ATOM     25  O   UNL     1      37.733 -24.522 -11.341  0.00  0.00    -0.311 OA
ATOM     26  C   UNL     1      35.558 -24.819 -14.808  0.00  0.00    +0.034 C 
ATOM     27  C   UNL     1      36.412 -24.639 -13.719  0.00  0.00    +0.138 C 
ATOM     28  C   UNL     1      37.495 -25.502 -13.514  0.00  0.00    +0.043 C 
ATOM     29  C   UNL     1      35.799 -25.853 -15.712  0.00  0.00    +0.030 C 
ATOM     30  C   UNL     1      38.399 -25.295 -12.338  0.00  0.00    +0.176 C 
ATOM     31  C   UNL     1      37.735 -26.530 -14.432  0.00  0.00    +0.031 C 
ATOM     32  C   UNL     1      36.887 -26.706 -15.527  0.00  0.00    +0.140 C 
ATOM     33  C   UNL     1      37.168 -23.349 -11.920  0.00  0.00    +0.361 C 
ENDBRANCH  22  26
ENDBRANCH   2  22
TORSDOF 6
ENDMDL
MODEL 2
REMARK VINA RESULT:     -11.2      7.233     13.193
REMARK  Name = 45268539
REMARK  6 active torsions:
REMARK  status: ('A' for Active; 'I' for Inactive)
REMARK    1  A    between atoms: N_2  and  C_22
REMARK    2  A    between atoms: N_3  and  C_7
REMARK    3  A    between atoms: N_3  and  O_12
REMARK    4  A    between atoms: C_8  and  C_14
REMARK    5  A    between atoms: C_15  and  C_16
REMARK    6  A    between atoms: C_22  and  C_26
REMARK                            x       y       z     vdW  Elec       q    Type
REMARK                         _______ _______ _______ _____ _____    ______ ____
ROOT
ATOM      1  O   UNL     1      33.092 -12.642 -21.293  0.00  0.00    -0.273 OA
ATOM      2  N   UNL     1      33.380 -13.254 -23.572  0.00  0.00    -0.253 N 
ATOM      3  C   UNL     1      33.949 -14.378 -24.201  0.00  0.00    +0.052 C 
ATOM      4  C   UNL     1      34.423 -15.281 -23.249  0.00  0.00    +0.018 C 
ATOM      5  C   UNL     1      33.454 -13.368 -22.194  0.00  0.00    +0.252 C 
ATOM      6  C   UNL     1      34.137 -14.694 -21.955  0.00  0.00    +0.202 C 
ATOM      7  C   UNL     1      35.031 -16.473 -23.583  0.00  0.00    -0.001 C 
ATOM      8  C   UNL     1      34.073 -14.650 -25.551  0.00  0.00    +0.015 C 
ATOM      9  C   UNL     1      35.159 -16.756 -24.944  0.00  0.00    -0.000 C 
ATOM     10  C   UNL     1      34.686 -15.854 -25.917  0.00  0.00    +0.001 C 
ENDROOT
BRANCH   7  11
ATOM     11  C   UNL     1      35.528 -17.416 -22.598  0.00  0.00    -0.000 C 
ATOM     12  C   UNL     1      34.998 -18.639 -22.348  0.00  0.00    -0.000 C 
BRANCH  12  13
ATOM     13  C   UNL     1      35.513 -19.604 -21.360  0.00  0.00    -0.000 C 
ATOM     14  C   UNL     1      36.859 -19.578 -20.995  0.00  0.00    -0.000 C 
ATOM     15  C   UNL     1      34.654 -20.542 -20.788  0.00  0.00    -0.000 C 
ATOM     16  C   UNL     1      37.347 -20.491 -20.060  0.00  0.00    +0.000 C 
ATOM     17  C   UNL     1      35.141 -21.455 -19.853  0.00  0.00    +0.000 C 
ATOM     18  C   UNL     1      36.488 -21.430 -19.489  0.00  0.00    +0.000 C 
ENDBRANCH  12  13
ENDBRANCH   7  11
BRANCH   6  19
ATOM     19  N   UNL     1      34.393 -15.162 -20.785  0.00  0.00    -0.075 NA
BRANCH  19  20
ATOM     20  O   UNL     1      33.239 -15.058 -20.003  0.00  0.00    -0.294 OA
ATOM     21  H   UNL     1      33.006 -15.751 -19.418  0.00  0.00    +0.238 HD
ENDBRANCH  19  20
ENDBRANCH   6  19
BRANCH   2  22
ATOM     22  C   UNL     1      32.803 -12.147 -24.294  0.00  0.00    +0.128 C 
BRANCH  22  26
ATOM     23  F   UNL     1      36.803 -10.015 -26.054  0.00  0.00    -0.204 F 
ATOM     24  O   UNL     1      32.366  -9.813 -22.816  0.00  0.00    -0.448 OA
ATOM     25  O   UNL     1      33.206  -7.817 -21.779  0.00  0.00    -0.311 OA
ATOM     26  C   UNL     1      33.731 -10.969 -24.355  0.00  0.00    +0.034 C 
ATOM     27  C   UNL     1      33.487  -9.817 -23.608  0.00  0.00    +0.138 C 
ATOM     28  C   UNL     1      34.372  -8.733 -23.663  0.00  0.00    +0.043 C 
ATOM     29  C   UNL     1      34.854 -11.034 -25.180  0.00  0.00    +0.030 C 
ATOM     30  C   UNL     1      34.094  -7.504 -22.852  0.00  0.00    +0.176 C 
ATOM     31  C   UNL     1      35.488  -8.802 -24.502  0.00  0.00    +0.031 C 
ATOM     32  C   UNL     1      35.729  -9.951 -25.257  0.00  0.00    +0.140 C 
ATOM     33  C   UNL     1      32.069  -8.524 -22.270  0.00  0.00    +0.361 C 
ENDBRANCH  22  26
ENDBRANCH   2  22
TORSDOF 6
ENDMDL
MODEL 3
REMARK VINA RESULT:     -10.9      1.919      2.458
REMARK  Name = 45268539
REMARK  6 active torsions:
REMARK  status: ('A' for Active; 'I' for Inactive)
REMARK    1  A    between atoms: N_2  and  C_22
REMARK    2  A    between atoms: N_3  and  C_7
REMARK    3  A    between atoms: N_3  and  O_12
REMARK    4  A    between atoms: C_8  and  C_14
REMARK    5  A    between atoms: C_15  and  C_16
REMARK    6  A    between atoms: C_22  and  C_26
REMARK                            x       y       z     vdW  Elec       q    Type
REMARK                         _______ _______ _______ _____ _____    ______ ____
ROOT
ATOM      1  O   UNL     1      32.210 -24.229 -16.332  0.00  0.00    -0.273 OA
ATOM      2  N   UNL     1      34.460 -23.964 -15.612  0.00  0.00    -0.253 N 
ATOM      3  C   UNL     1      35.577 -23.311 -16.168  0.00  0.00    +0.052 C 
ATOM      4  C   UNL     1      35.239 -22.719 -17.386  0.00  0.00    +0.018 C 
ATOM      5  C   UNL     1      33.351 -23.830 -16.431  0.00  0.00    +0.252 C 
ATOM      6  C   UNL     1      33.837 -23.015 -17.605  0.00  0.00    +0.202 C 
ATOM      7  C   UNL     1      36.141 -22.012 -18.152  0.00  0.00    -0.001 C 
ATOM      8  C   UNL     1      36.862 -23.209 -15.671  0.00  0.00    +0.015 C 
ATOM      9  C   UNL     1      37.441 -21.904 -17.656  0.00  0.00    -0.000 C 
ATOM     10  C   UNL     1      37.799 -22.496 -16.429  0.00  0.00    +0.001 C 
ENDROOT
BRANCH   7  11
ATOM     11  C   UNL     1      35.797 -21.396 -19.420  0.00  0.00    -0.000 C 
ATOM     12  C   UNL     1      36.486 -20.391 -20.015  0.00  0.00    -0.000 C 
BRANCH  12  13
ATOM     13  C   UNL     1      36.147 -19.776 -21.311  0.00  0.00    -0.000 C 
ATOM     14  C   UNL     1      34.914 -20.041 -21.907  0.00  0.00    -0.000 C 
ATOM     15  C   UNL     1      37.058 -18.928 -21.941  0.00  0.00    -0.000 C 
ATOM     16  C   UNL     1      34.592 -19.459 -23.134  0.00  0.00    +0.000 C 
ATOM     17  C   UNL     1      36.736 -18.346 -23.167  0.00  0.00    +0.000 C 
ATOM     18  C   UNL     1      35.504 -18.612 -23.764  0.00  0.00    +0.000 C 
ENDBRANCH  12  13
ENDBRANCH   7  11
BRANCH   6  19
ATOM     19  N   UNL     1      33.089 -22.678 -18.595  0.00  0.00    -0.075 NA
BRANCH  19  20
ATOM     20  O   UNL     1      31.893 -22.160 -18.091  0.00  0.00    -0.294 OA
ATOM     21  H   UNL     1      31.095 -22.642 -18.190  0.00  0.00    +0.238 HD
ENDBRANCH  19  20
ENDBRANCH   6  19
BRANCH   2  22
ATOM     22  C   UNL     1      34.497 -24.669 -14.354  0.00  0.00    +0.128 C 
BRANCH  22  26
ATOM     23  F   UNL     1      37.380 -22.399 -11.163  0.00  0.00    -0.204 F 
ATOM     24  O   UNL     1      36.651 -26.369 -14.895  0.00  0.00    -0.448 OA
ATOM     25  O   UNL     1      39.013 -26.796 -14.910  0.00  0.00    -0.311 OA
ATOM     26  C   UNL     1      35.825 -24.529 -13.670  0.00  0.00    +0.034 C 
ATOM     27  C   UNL     1      36.882 -25.393 -13.958  0.00  0.00    +0.138 C 
ATOM     28  C   UNL     1      38.120 -25.239 -13.322  0.00  0.00    +0.043 C 
ATOM     29  C   UNL     1      35.997 -23.516 -12.725  0.00  0.00    +0.030 C 
ATOM     30  C   UNL     1      39.244 -26.175 -13.646  0.00  0.00    +0.176 C 
ATOM     31  C   UNL     1      38.279 -24.228 -12.369  0.00  0.00    +0.031 C 
ATOM     32  C   UNL     1      37.221 -23.369 -12.073  0.00  0.00    +0.140 C 
ATOM     33  C   UNL     1      37.697 -27.343 -14.959  0.00  0.00    +0.361 C 
ENDBRANCH  22  26
ENDBRANCH   2  22
TORSDOF 6
ENDMDL
MODEL 4
REMARK VINA RESULT:     -10.7      6.747     12.650
REMARK  Name = 45268539
REMARK  6 active torsions:
REMARK  status: ('A' for Active; 'I' for Inactive)
REMARK    1  A    between atoms: N_2  and  C_22
REMARK    2  A    between atoms: N_3  and  C_7
REMARK    3  A    between atoms: N_3  and  O_12
REMARK    4  A    between atoms: C_8  and  C_14
REMARK    5  A    between atoms: C_15  and  C_16
REMARK    6  A    between atoms: C_22  and  C_26
REMARK                            x       y       z     vdW  Elec       q    Type
REMARK                         _______ _______ _______ _____ _____    ______ ____
ROOT
ATOM      1  O   UNL     1      34.751 -13.282 -21.461  0.00  0.00    -0.273 OA
ATOM      2  N   UNL     1      34.494 -14.066 -23.691  0.00  0.00    -0.253 N 
ATOM      3  C   UNL     1      34.583 -15.343 -24.277  0.00  0.00    +0.052 C 
ATOM      4  C   UNL     1      34.886 -16.303 -23.311  0.00  0.00    +0.018 C 
ATOM      5  C   UNL     1      34.731 -14.130 -22.328  0.00  0.00    +0.252 C 
ATOM      6  C   UNL     1      34.992 -15.591 -22.052  0.00  0.00    +0.202 C 
ATOM      7  C   UNL     1      35.034 -17.642 -23.604  0.00  0.00    -0.001 C 
ATOM      8  C   UNL     1      34.416 -15.707 -25.600  0.00  0.00    +0.015 C 
ATOM      9  C   UNL     1      34.866 -18.018 -24.938  0.00  0.00    -0.000 C 
ATOM     10  C   UNL     1      34.561 -17.061 -25.925  0.00  0.00    +0.001 C 
ENDROOT
BRANCH   7  11
ATOM     11  C   UNL     1      35.351 -18.645 -22.604  0.00  0.00    -0.000 C 
ATOM     12  C   UNL     1      34.441 -19.354 -21.891  0.00  0.00    -0.000 C 
BRANCH  12  13
ATOM     13  C   UNL     1      34.761 -20.385 -20.888  0.00  0.00    -0.000 C 
ATOM     14  C   UNL     1      33.734 -21.077 -20.246  0.00  0.00    -0.000 C 
ATOM     15  C   UNL     1      36.092 -20.670 -20.581  0.00  0.00    -0.000 C 
ATOM     16  C   UNL     1      34.038 -22.053 -19.296  0.00  0.00    +0.000 C 
ATOM     17  C   UNL     1      36.395 -21.646 -19.632  0.00  0.00    +0.000 C 
ATOM     18  C   UNL     1      35.369 -22.337 -18.989  0.00  0.00    +0.000 C 
ENDBRANCH  12  13
ENDBRANCH   7  11
BRANCH   6  19
ATOM     19  N   UNL     1      35.258 -16.059 -20.884  0.00  0.00    -0.075 NA
BRANCH  19  20
ATOM     20  O   UNL     1      34.269 -15.624 -19.997  0.00  0.00    -0.294 OA
ATOM     21  H   UNL     1      33.374 -15.593 -20.272  0.00  0.00    +0.238 HD
ENDBRANCH  19  20
ENDBRANCH   6  19
BRANCH   2  22
ATOM     22  C   UNL     1      34.193 -12.869 -24.437  0.00  0.00    +0.128 C 
BRANCH  22  26
ATOM     23  F   UNL     1      30.561 -11.908 -21.349  0.00  0.00    -0.204 F 
ATOM     24  O   UNL     1      34.768 -10.132 -24.410  0.00  0.00    -0.448 OA
ATOM     25  O   UNL     1      34.071  -7.862 -24.061  0.00  0.00    -0.311 OA
ATOM     26  C   UNL     1      33.397 -11.886 -23.628  0.00  0.00    +0.034 C 
ATOM     27  C   UNL     1      33.708 -10.526 -23.632  0.00  0.00    +0.138 C 
ATOM     28  C   UNL     1      32.946  -9.620 -22.885  0.00  0.00    +0.043 C 
ATOM     29  C   UNL     1      32.332 -12.350 -22.856  0.00  0.00    +0.030 C 
ATOM     30  C   UNL     1      33.294  -8.163 -22.903  0.00  0.00    +0.176 C 
ATOM     31  C   UNL     1      31.887 -10.096 -22.105  0.00  0.00    +0.031 C 
ATOM     32  C   UNL     1      31.580 -11.457 -22.093  0.00  0.00    +0.140 C 
ATOM     33  C   UNL     1      35.159  -8.775 -24.178  0.00  0.00    +0.361 C 
ENDBRANCH  22  26
ENDBRANCH   2  22
TORSDOF 6
ENDMDL
MODEL 5
REMARK VINA RESULT:     -10.1      7.976     13.477
REMARK  Name = 45268539
REMARK  6 active torsions:
REMARK  status: ('A' for Active; 'I' for Inactive)
REMARK    1  A    between atoms: N_2  and  C_22
REMARK    2  A    between atoms: N_3  and  C_7
REMARK    3  A    between atoms: N_3  and  O_12
REMARK    4  A    between atoms: C_8  and  C_14
REMARK    5  A    between atoms: C_15  and  C_16
REMARK    6  A    between atoms: C_22  and  C_26
REMARK                            x       y       z     vdW  Elec       q    Type
REMARK                         _______ _______ _______ _____ _____    ______ ____
ROOT
ATOM      1  O   UNL     1      31.530 -12.445 -20.094  0.00  0.00    -0.273 OA
ATOM      2  N   UNL     1      32.346 -12.263 -22.319  0.00  0.00    -0.253 N 
ATOM      3  C   UNL     1      33.232 -13.045 -23.085  0.00  0.00    +0.052 C 
ATOM      4  C   UNL     1      33.693 -14.131 -22.340  0.00  0.00    +0.018 C 
ATOM      5  C   UNL     1      32.188 -12.795 -21.051  0.00  0.00    +0.252 C 
ATOM      6  C   UNL     1      33.063 -14.025 -21.038  0.00  0.00    +0.202 C 
ATOM      7  C   UNL     1      34.575 -15.064 -22.841  0.00  0.00    -0.001 C 
ATOM      8  C   UNL     1      33.654 -12.858 -24.389  0.00  0.00    +0.015 C 
ATOM      9  C   UNL     1      35.005 -14.883 -24.157  0.00  0.00    -0.000 C 
ATOM     10  C   UNL     1      34.550 -13.792 -24.922  0.00  0.00    +0.001 C 
ENDROOT
BRANCH   7  11
ATOM     11  C   UNL     1      35.060 -16.195 -22.071  0.00  0.00    -0.000 C 
ATOM     12  C   UNL     1      35.098 -17.479 -22.505  0.00  0.00    -0.000 C 
BRANCH  12  13
ATOM     13  C   UNL     1      35.606 -18.625 -21.729  0.00  0.00    -0.000 C 
ATOM     14  C   UNL     1      36.961 -18.704 -21.406  0.00  0.00    -0.000 C 
ATOM     15  C   UNL     1      34.732 -19.630 -21.316  0.00  0.00    -0.000 C 
ATOM     16  C   UNL     1      37.441 -19.788 -20.672  0.00  0.00    +0.000 C 
ATOM     17  C   UNL     1      35.212 -20.714 -20.582  0.00  0.00    +0.000 C 
ATOM     18  C   UNL     1      36.567 -20.794 -20.260  0.00  0.00    +0.000 C 
ENDBRANCH  12  13
ENDBRANCH   7  11
BRANCH   6  19
ATOM     19  N   UNL     1      33.187 -14.800 -20.020  0.00  0.00    -0.075 NA
BRANCH  19  20
ATOM     20  O   UNL     1      31.912 -15.104 -19.536  0.00  0.00    -0.294 OA
ATOM     21  H   UNL     1      31.506 -15.918 -19.762  0.00  0.00    +0.238 HD
ENDBRANCH  19  20
ENDBRANCH   6  19
BRANCH   2  22
ATOM     22  C   UNL     1      31.705 -11.071 -22.818  0.00  0.00    +0.128 C 
BRANCH  22  26
ATOM     23  F   UNL     1      31.782  -7.911 -19.123  0.00  0.00    -0.204 F 
ATOM     24  O   UNL     1      33.686  -9.510 -24.025  0.00  0.00    -0.448 OA
ATOM     25  O   UNL     1      34.807  -7.403 -24.284  0.00  0.00    -0.311 OA
ATOM     26  C   UNL     1      32.251  -9.828 -22.179  0.00  0.00    +0.034 C 
ATOM     27  C   UNL     1      33.242  -9.070 -22.804  0.00  0.00    +0.138 C 
ATOM     28  C   UNL     1      33.730  -7.903 -22.202  0.00  0.00    +0.043 C 
ATOM     29  C   UNL     1      31.759  -9.433 -20.936  0.00  0.00    +0.030 C 
ATOM     30  C   UNL     1      34.792  -7.101 -22.889  0.00  0.00    +0.176 C 
ATOM     31  C   UNL     1      33.238  -7.521 -20.950  0.00  0.00    +0.031 C 
ATOM     32  C   UNL     1      32.254  -8.284 -20.320  0.00  0.00    +0.140 C 
ATOM     33  C   UNL     1      34.851  -8.814 -24.483  0.00  0.00    +0.361 C 
ENDBRANCH  22  26
ENDBRANCH   2  22
TORSDOF 6
ENDMDL
MODEL 6
REMARK VINA RESULT:     -10.0      3.824      9.063
REMARK  Name = 45268539
REMARK  6 active torsions:
REMARK  status: ('A' for Active; 'I' for Inactive)
REMARK    1  A    between atoms: N_2  and  C_22
REMARK    2  A    between atoms: N_3  and  C_7
REMARK    3  A    between atoms: N_3  and  O_12
REMARK    4  A    between atoms: C_8  and  C_14
REMARK    5  A    between atoms: C_15  and  C_16
REMARK    6  A    between atoms: C_22  and  C_26
REMARK                            x       y       z     vdW  Elec       q    Type
REMARK                         _______ _______ _______ _____ _____    ______ ____
ROOT
ATOM      1  O   UNL     1      33.800 -20.483 -21.446  0.00  0.00    -0.273 OA
ATOM      2  N   UNL     1      35.844 -20.521 -20.232  0.00  0.00    -0.253 N 
ATOM      3  C   UNL     1      36.251 -21.181 -19.056  0.00  0.00    +0.052 C 
ATOM      4  C   UNL     1      35.208 -21.952 -18.543  0.00  0.00    +0.018 C 
ATOM      5  C   UNL     1      34.529 -20.827 -20.539  0.00  0.00    +0.252 C 
ATOM      6  C   UNL     1      34.087 -21.767 -19.443  0.00  0.00    +0.202 C 
ATOM      7  C   UNL     1      35.327 -22.706 -17.394  0.00  0.00    -0.001 C 
ATOM      8  C   UNL     1      37.477 -21.142 -18.416  0.00  0.00    +0.015 C 
ATOM      9  C   UNL     1      36.561 -22.673 -16.743  0.00  0.00    -0.000 C 
ATOM     10  C   UNL     1      37.624 -21.899 -17.248  0.00  0.00    +0.001 C 
ENDROOT
BRANCH   7  11
ATOM     11  C   UNL     1      34.245 -23.509 -16.855  0.00  0.00    -0.000 C 
ATOM     12  C   UNL     1      33.306 -23.071 -15.980  0.00  0.00    -0.000 C 
BRANCH  12  13
ATOM     13  C   UNL     1      32.197 -23.880 -15.445  0.00  0.00    -0.000 C 
ATOM     14  C   UNL     1      31.003 -23.986 -16.158  0.00  0.00    -0.000 C 
ATOM     15  C   UNL     1      32.342 -24.542 -14.225  0.00  0.00    -0.000 C 
ATOM     16  C   UNL     1      29.953 -24.753 -15.652  0.00  0.00    +0.000 C 
ATOM     17  C   UNL     1      31.292 -25.309 -13.719  0.00  0.00    +0.000 C 
ATOM     18  C   UNL     1      30.098 -25.414 -14.432  0.00  0.00    +0.000 C 
ENDBRANCH  12  13
ENDBRANCH   7  11
BRANCH   6  19
ATOM     19  N   UNL     1      32.909 -22.278 -19.376  0.00  0.00    -0.075 NA
BRANCH  19  20
ATOM     20  O   UNL     1      32.045 -21.330 -18.821  0.00  0.00    -0.294 OA
ATOM     21  H   UNL     1      32.149 -21.068 -17.927  0.00  0.00    +0.238 HD
ENDBRANCH  19  20
ENDBRANCH   6  19
BRANCH   2  22
ATOM     22  C   UNL     1      36.705 -19.650 -20.992  0.00  0.00    +0.128 C 
BRANCH  22  26
ATOM     23  F   UNL     1      35.188 -20.615 -25.511  0.00  0.00    -0.204 F 
ATOM     24  O   UNL     1      35.771 -17.041 -21.374  0.00  0.00    -0.448 OA
ATOM     25  O   UNL     1      35.176 -15.237 -22.842  0.00  0.00    -0.311 OA
ATOM     26  C   UNL     1      36.064 -19.203 -22.274  0.00  0.00    +0.034 C 
ATOM     27  C   UNL     1      35.605 -17.896 -22.435  0.00  0.00    +0.138 C 
ATOM     28  C   UNL     1      35.024 -17.490 -23.643  0.00  0.00    +0.043 C 
ATOM     29  C   UNL     1      35.923 -20.120 -23.316  0.00  0.00    +0.030 C 
ATOM     30  C   UNL     1      34.538 -16.082 -23.799  0.00  0.00    +0.176 C 
ATOM     31  C   UNL     1      34.876 -18.419 -24.678  0.00  0.00    +0.031 C 
ATOM     32  C   UNL     1      35.326 -19.730 -24.515  0.00  0.00    +0.140 C 
ATOM     33  C   UNL     1      35.072 -15.803 -21.537  0.00  0.00    +0.361 C 
ENDBRANCH  22  26
ENDBRANCH   2  22
TORSDOF 6
ENDMDL
MODEL 7
REMARK VINA RESULT:      -9.8      5.453      9.368
REMARK  Name = 45268539
REMARK  6 active torsions:
REMARK  status: ('A' for Active; 'I' for Inactive)
REMARK    1  A    between atoms: N_2  and  C_22
REMARK    2  A    between atoms: N_3  and  C_7
REMARK    3  A    between atoms: N_3  and  O_12
REMARK    4  A    between atoms: C_8  and  C_14
REMARK    5  A    between atoms: C_15  and  C_16
REMARK    6  A    between atoms: C_22  and  C_26
REMARK                            x       y       z     vdW  Elec       q    Type
REMARK                         _______ _______ _______ _____ _____    ______ ____
ROOT
ATOM      1  O   UNL     1      35.635 -16.606 -20.617  0.00  0.00    -0.273 OA
ATOM      2  N   UNL     1      35.375 -17.106 -22.926  0.00  0.00    -0.253 N 
ATOM      3  C   UNL     1      34.911 -16.358 -24.026  0.00  0.00    +0.052 C 
ATOM      4  C   UNL     1      34.544 -15.074 -23.622  0.00  0.00    +0.018 C 
ATOM      5  C   UNL     1      35.334 -16.354 -21.764  0.00  0.00    +0.252 C 
ATOM      6  C   UNL     1      34.790 -15.013 -22.194  0.00  0.00    +0.202 C 
ATOM      7  C   UNL     1      34.053 -14.125 -24.493  0.00  0.00    -0.001 C 
ATOM      8  C   UNL     1      34.794 -16.738 -25.350  0.00  0.00    +0.015 C 
ATOM      9  C   UNL     1      33.932 -14.500 -25.832  0.00  0.00    -0.000 C 
ATOM     10  C   UNL     1      34.298 -15.793 -26.256  0.00  0.00    +0.001 C 
ENDROOT
BRANCH   7  11
ATOM     11  C   UNL     1      33.667 -12.788 -24.078  0.00  0.00    -0.000 C 
ATOM     12  C   UNL     1      34.339 -11.650 -24.383  0.00  0.00    -0.000 C 
BRANCH  12  13
ATOM     13  C   UNL     1      33.938 -10.291 -23.977  0.00  0.00    -0.000 C 
ATOM     14  C   UNL     1      32.665 -10.066 -23.453  0.00  0.00    -0.000 C 
ATOM     15  C   UNL     1      34.832  -9.230 -24.116  0.00  0.00    -0.000 C 
ATOM     16  C   UNL     1      32.286  -8.780 -23.069  0.00  0.00    +0.000 C 
ATOM     17  C   UNL     1      34.454  -7.944 -23.731  0.00  0.00    +0.000 C 
ATOM     18  C   UNL     1      33.180  -7.718 -23.208  0.00  0.00    +0.000 C 
ENDBRANCH  12  13
ENDBRANCH   7  11
BRANCH   6  19
ATOM     19  N   UNL     1      34.600 -14.030 -21.387  0.00  0.00    -0.075 NA
BRANCH  19  20
ATOM     20  O   UNL     1      33.463 -14.299 -20.620  0.00  0.00    -0.294 OA
ATOM     21  H   UNL     1      33.498 -14.221 -19.687  0.00  0.00    +0.238 HD
ENDBRANCH  19  20
ENDBRANCH   6  19
BRANCH   2  22
ATOM     22  C   UNL     1      35.828 -18.472 -23.029  0.00  0.00    +0.128 C 
BRANCH  22  26
ATOM     23  F   UNL     1      31.663 -20.650 -21.780  0.00  0.00    -0.204 F 
ATOM     24  O   UNL     1      37.016 -19.793 -20.870  0.00  0.00    -0.448 OA
ATOM     25  O   UNL     1      36.833 -20.877 -18.736  0.00  0.00    -0.311 OA
ATOM     26  C   UNL     1      35.059 -19.389 -22.124  0.00  0.00    +0.034 C 
ATOM     27  C   UNL     1      35.679 -20.037 -21.055  0.00  0.00    +0.138 C 
ATOM     28  C   UNL     1      34.944 -20.877 -20.210  0.00  0.00    +0.043 C 
ATOM     29  C   UNL     1      33.701 -19.597 -22.366  0.00  0.00    +0.030 C 
ATOM     30  C   UNL     1      35.626 -21.563 -19.066  0.00  0.00    +0.176 C 
ATOM     31  C   UNL     1      33.585 -21.089 -20.467  0.00  0.00    +0.031 C 
ATOM     32  C   UNL     1      32.966 -20.449 -21.541  0.00  0.00    +0.140 C 
ATOM     33  C   UNL     1      37.618 -20.665 -19.907  0.00  0.00    +0.361 C 
ENDBRANCH  22  26
ENDBRANCH   2  22
TORSDOF 6
ENDMDL
MODEL 8
REMARK VINA RESULT:      -9.7      5.999     10.399
REMARK  Name = 45268539
REMARK  6 active torsions:
REMARK  status: ('A' for Active; 'I' for Inactive)
REMARK    1  A    between atoms: N_2  and  C_22
REMARK    2  A    between atoms: N_3  and  C_7
REMARK    3  A    between atoms: N_3  and  O_12
REMARK    4  A    between atoms: C_8  and  C_14
REMARK    5  A    between atoms: C_15  and  C_16
REMARK    6  A    between atoms: C_22  and  C_26
REMARK                            x       y       z     vdW  Elec       q    Type
REMARK                         _______ _______ _______ _____ _____    ______ ____
ROOT
ATOM      1  O   UNL     1      35.077 -16.141 -21.357  0.00  0.00    -0.273 OA
ATOM      2  N   UNL     1      34.557 -16.341 -23.668  0.00  0.00    -0.253 N 
ATOM      3  C   UNL     1      34.277 -15.397 -24.675  0.00  0.00    +0.052 C 
ATOM      4  C   UNL     1      34.326 -14.103 -24.158  0.00  0.00    +0.018 C 
ATOM      5  C   UNL     1      34.802 -15.713 -22.458  0.00  0.00    +0.252 C 
ATOM      6  C   UNL     1      34.656 -14.240 -22.753  0.00  0.00    +0.202 C 
ATOM      7  C   UNL     1      34.091 -12.980 -24.923  0.00  0.00    -0.001 C 
ATOM      8  C   UNL     1      33.982 -15.610 -26.009  0.00  0.00    +0.015 C 
ATOM      9  C   UNL     1      33.793 -13.186 -26.271  0.00  0.00    -0.000 C 
ATOM     10  C   UNL     1      33.739 -14.487 -26.808  0.00  0.00    +0.001 C 
ENDROOT
BRANCH   7  11
ATOM     11  C   UNL     1      34.139 -11.630 -24.391  0.00  0.00    -0.000 C 
ATOM     12  C   UNL     1      33.076 -10.940 -23.908  0.00  0.00    -0.000 C 
BRANCH  12  13
ATOM     13  C   UNL     1      33.128  -9.576 -23.352  0.00  0.00    -0.000 C 
ATOM     14  C   UNL     1      32.127  -9.139 -22.485  0.00  0.00    -0.000 C 
ATOM     15  C   UNL     1      34.178  -8.724 -23.691  0.00  0.00    -0.000 C 
ATOM     16  C   UNL     1      32.176  -7.847 -21.958  0.00  0.00    +0.000 C 
ATOM     17  C   UNL     1      34.227  -7.434 -23.164  0.00  0.00    +0.000 C 
ATOM     18  C   UNL     1      33.226  -6.995 -22.298  0.00  0.00    +0.000 C 
ENDBRANCH  12  13
ENDBRANCH   7  11
BRANCH   6  19
ATOM     19  N   UNL     1      34.807 -13.319 -21.869  0.00  0.00    -0.075 NA
BRANCH  19  20
ATOM     20  O   UNL     1      33.733 -13.378 -20.976  0.00  0.00    -0.294 OA
ATOM     21  H   UNL     1      33.452 -12.604 -20.530  0.00  0.00    +0.238 HD
ENDBRANCH  19  20
ENDBRANCH   6  19
BRANCH   2  22
ATOM     22  C   UNL     1      34.581 -17.764 -23.897  0.00  0.00    +0.128 C 
BRANCH  22  26
ATOM     23  F   UNL     1      39.108 -18.570 -22.316  0.00  0.00    -0.204 F 
ATOM     24  O   UNL     1      33.720 -19.600 -21.971  0.00  0.00    -0.448 OA
ATOM     25  O   UNL     1      34.163 -21.469 -20.531  0.00  0.00    -0.311 OA
ATOM     26  C   UNL     1      35.532 -18.468 -22.973  0.00  0.00    +0.034 C 
ATOM     27  C   UNL     1      35.073 -19.378 -22.020  0.00  0.00    +0.138 C 
ATOM     28  C   UNL     1      35.974 -20.038 -21.176  0.00  0.00    +0.043 C 
ATOM     29  C   UNL     1      36.896 -18.198 -23.072  0.00  0.00    +0.030 C 
ATOM     30  C   UNL     1      35.464 -21.013 -20.160  0.00  0.00    +0.176 C 
ATOM     31  C   UNL     1      37.340 -19.752 -21.274  0.00  0.00    +0.031 C 
ATOM     32  C   UNL     1      37.799 -18.836 -22.221  0.00  0.00    +0.140 C 
ATOM     33  C   UNL     1      33.317 -20.360 -20.827  0.00  0.00    +0.361 C 
ENDBRANCH  22  26
ENDBRANCH   2  22
TORSDOF 6
ENDMDL
MODEL 9
REMARK VINA RESULT:      -9.5      4.150      9.857
REMARK  Name = 45268539
REMARK  6 active torsions:
REMARK  status: ('A' for Active; 'I' for Inactive)
REMARK    1  A    between atoms: N_2  and  C_22
REMARK    2  A    between atoms: N_3  and  C_7
REMARK    3  A    between atoms: N_3  and  O_12
REMARK    4  A    between atoms: C_8  and  C_14
REMARK    5  A    between atoms: C_15  and  C_16
REMARK    6  A    between atoms: C_22  and  C_26
REMARK                            x       y       z     vdW  Elec       q    Type
REMARK                         _______ _______ _______ _____ _____    ______ ____
ROOT
ATOM      1  O   UNL     1      33.249 -19.814 -22.495  0.00  0.00    -0.273 OA
ATOM      2  N   UNL     1      35.440 -19.798 -21.572  0.00  0.00    -0.253 N 
ATOM      3  C   UNL     1      36.020 -20.440 -20.461  0.00  0.00    +0.052 C 
ATOM      4  C   UNL     1      35.075 -21.229 -19.806  0.00  0.00    +0.018 C 
ATOM      5  C   UNL     1      34.102 -20.135 -21.695  0.00  0.00    +0.252 C 
ATOM      6  C   UNL     1      33.836 -21.076 -20.545  0.00  0.00    +0.202 C 
ATOM      7  C   UNL     1      35.367 -21.972 -18.681  0.00  0.00    -0.001 C 
ATOM      8  C   UNL     1      37.320 -20.369 -19.996  0.00  0.00    +0.015 C 
ATOM      9  C   UNL     1      36.677 -21.907 -18.206  0.00  0.00    -0.000 C 
ATOM     10  C   UNL     1      37.643 -21.114 -18.855  0.00  0.00    +0.001 C 
ENDROOT
BRANCH   7  11
ATOM     11  C   UNL     1      34.387 -22.794 -17.994  0.00  0.00    -0.000 C 
ATOM     12  C   UNL     1      34.149 -22.777 -16.659  0.00  0.00    -0.000 C 
BRANCH  12  13
ATOM     13  C   UNL     1      33.143 -23.599 -15.964  0.00  0.00    -0.000 C 
ATOM     14  C   UNL     1      33.494 -24.307 -14.814  0.00  0.00    -0.000 C 
ATOM     15  C   UNL     1      31.839 -23.668 -16.454  0.00  0.00    -0.000 C 
ATOM     16  C   UNL     1      32.541 -25.085 -14.156  0.00  0.00    +0.000 C 
ATOM     17  C   UNL     1      30.887 -24.445 -15.795  0.00  0.00    +0.000 C 
ATOM     18  C   UNL     1      31.238 -25.155 -14.647  0.00  0.00    +0.000 C 
ENDBRANCH  12  13
ENDBRANCH   7  11
BRANCH   6  19
ATOM     19  N   UNL     1      32.691 -21.612 -20.314  0.00  0.00    -0.075 NA
BRANCH  19  20
ATOM     20  O   UNL     1      32.133 -21.000 -19.188  0.00  0.00    -0.294 OA
ATOM     21  H   UNL     1      32.685 -20.554 -18.575  0.00  0.00    +0.238 HD
ENDBRANCH  19  20
ENDBRANCH   6  19
BRANCH   2  22
ATOM     22  C   UNL     1      36.169 -18.914 -22.448  0.00  0.00    +0.128 C 
BRANCH  22  26
ATOM     23  F   UNL     1      34.854 -14.816 -20.184  0.00  0.00    -0.204 F 
ATOM     24  O   UNL     1      35.215 -17.762 -24.811  0.00  0.00    -0.448 OA
ATOM     25  O   UNL     1      33.794 -16.184 -25.933  0.00  0.00    -0.311 OA
ATOM     26  C   UNL     1      35.567 -17.539 -22.488  0.00  0.00    +0.034 C 
ATOM     27  C   UNL     1      35.102 -16.989 -23.683  0.00  0.00    +0.138 C 
ATOM     28  C   UNL     1      34.528 -15.711 -23.701  0.00  0.00    +0.043 C 
ATOM     29  C   UNL     1      35.481 -16.803 -21.307  0.00  0.00    +0.030 C 
ATOM     30  C   UNL     1      34.031 -15.137 -24.992  0.00  0.00    +0.176 C 
ATOM     31  C   UNL     1      34.456 -14.976 -22.513  0.00  0.00    +0.031 C 
ATOM     32  C   UNL     1      34.930 -15.522 -21.319  0.00  0.00    +0.140 C 
ATOM     33  C   UNL     1      34.931 -17.041 -26.015  0.00  0.00    +0.361 C 
ENDBRANCH  22  26
ENDBRANCH   2  22
TORSDOF 6
ENDMDL
