MODEL 1
REMARK VINA RESULT:     -11.2      0.000      0.000
REMARK  Name = 445841
REMARK  2 active torsions:
REMARK  status: ('A' for Active; 'I' for Inactive)
REMARK    1  A    between atoms: N_2  and  C_22
REMARK    2  A    between atoms: C_6  and  C_27
REMARK                            x       y       z     vdW  Elec       q    Type
REMARK                         _______ _______ _______ _____ _____    ______ ____
ROOT
ATOM      1  O   UNL     1      34.633 -20.927 -21.093  0.00  0.00    -0.252 OA
ATOM      2  N   UNL     1      36.128 -19.285 -21.835  0.00  0.00    -0.268 N 
ATOM      3  N   UNL     1      35.721 -22.719 -17.456  0.00  0.00    -0.241 N 
ATOM      4  N   UNL     1      36.542 -20.392 -19.851  0.00  0.00    -0.252 N 
ATOM      5  N   UNL     1      35.427 -22.107 -18.617  0.00  0.00    -0.166 NA
ATOM      6  C   UNL     1      36.871 -22.275 -16.875  0.00  0.00    +0.026 C 
ATOM      7  C   UNL     1      37.366 -21.305 -17.713  0.00  0.00    +0.046 C 
ATOM      8  C   UNL     1      36.434 -21.256 -18.754  0.00  0.00    +0.154 C 
ATOM      9  C   UNL     1      35.659 -20.275 -20.935  0.00  0.00    +0.309 C 
ATOM     10  H   UNL     1      36.969 -18.841 -21.579  0.00  0.00    +0.156 HD
ATOM     11  H   UNL     1      35.157 -23.423 -17.062  0.00  0.00    +0.174 HD
ATOM     12  H   UNL     1      37.327 -19.799 -19.861  0.00  0.00    +0.158 HD
ENDROOT
BRANCH   2  22
ATOM     13  O   UNL     1      33.960 -15.013 -25.304  0.00  0.00    -0.270 OA
ATOM     14  N   UNL     1      35.033 -15.251 -23.219  0.00  0.00    -0.274 N 
ATOM     15  C   UNL     1      35.591 -16.332 -22.424  0.00  0.00    +0.100 C 
ATOM     16  C   UNL     1      34.870 -16.152 -21.096  0.00  0.00    +0.026 C 
ATOM     17  C   UNL     1      34.800 -14.621 -20.979  0.00  0.00    +0.024 C 
ATOM     18  C   UNL     1      34.561 -14.142 -22.414  0.00  0.00    +0.094 C 
ATOM     19  C   UNL     1      35.309 -17.517 -23.274  0.00  0.00    +0.014 C 
ATOM     20  C   UNL     1      34.754 -17.110 -24.495  0.00  0.00    +0.052 C 
ATOM     21  C   UNL     1      34.541 -15.655 -24.448  0.00  0.00    +0.249 C 
ATOM     22  C   UNL     1      35.558 -18.855 -23.032  0.00  0.00    +0.049 C 
ATOM     23  C   UNL     1      34.419 -18.002 -25.494  0.00  0.00    +0.004 C 
ATOM     24  C   UNL     1      35.232 -19.777 -24.032  0.00  0.00    +0.014 C 
ATOM     25  C   UNL     1      34.668 -19.354 -25.252  0.00  0.00    +0.001 C 
ENDBRANCH   2  22
BRANCH   6  27
ATOM     26  N   UNL     1      36.308 -23.485 -14.795  0.00  0.00    +0.388 N 
ATOM     27  C   UNL     1      37.379 -22.831 -15.564  0.00  0.00    -0.023 C 
ATOM     28  C   UNL     1      38.468 -23.899 -15.740  0.00  0.00    -0.018 C 
ATOM     29  C   UNL     1      37.947 -25.116 -14.992  0.00  0.00    -0.025 C 
ATOM     30  C   UNL     1      36.949 -24.535 -14.012  0.00  0.00    -0.081 C 
ATOM     31  H   UNL     1      35.616 -23.888 -15.427  0.00  0.00    -0.084 HD
ATOM     32  H   UNL     1      35.821 -22.818 -14.196  0.00  0.00    -0.084 HD
ENDBRANCH   6  27
TORSDOF 2
ENDMDL
MODEL 2
REMARK VINA RESULT:     -10.7      3.700      9.830
REMARK  Name = 445841
REMARK  2 active torsions:
REMARK  status: ('A' for Active; 'I' for Inactive)
REMARK    1  A    between atoms: N_2  and  C_22
REMARK    2  A    between atoms: C_6  and  C_27
REMARK                            x       y       z     vdW  Elec       q    Type
REMARK                         _______ _______ _______ _____ _____    ______ ____
ROOT
ATOM      1  O   UNL     1      36.485 -21.465 -18.062  0.00  0.00    -0.252 OA
ATOM      2  N   UNL     1      34.469 -22.647 -17.916  0.00  0.00    -0.268 N 
ATOM      3  N   UNL     1      36.903 -19.218 -21.583  0.00  0.00    -0.241 N 
ATOM      4  N   UNL     1      34.896 -21.344 -19.775  0.00  0.00    -0.252 N 
ATOM      5  N   UNL     1      36.709 -19.957 -20.477  0.00  0.00    -0.166 NA
ATOM      6  C   UNL     1      35.867 -19.269 -22.469  0.00  0.00    +0.026 C 
ATOM      7  C   UNL     1      34.931 -20.100 -21.904  0.00  0.00    +0.046 C 
ATOM      8  C   UNL     1      35.510 -20.483 -20.691  0.00  0.00    +0.154 C 
ATOM      9  C   UNL     1      35.400 -21.780 -18.540  0.00  0.00    +0.309 C 
ATOM     10  H   UNL     1      33.637 -22.811 -18.417  0.00  0.00    +0.156 HD
ATOM     11  H   UNL     1      37.717 -18.688 -21.739  0.00  0.00    +0.174 HD
ATOM     12  H   UNL     1      34.006 -21.683 -20.026  0.00  0.00    +0.158 HD
ENDROOT
BRANCH   2  22
ATOM     13  O   UNL     1      32.019 -25.364 -13.269  0.00  0.00    -0.270 OA
ATOM     14  N   UNL     1      31.386 -24.473 -15.356  0.00  0.00    -0.274 N 
ATOM     15  C   UNL     1      32.042 -23.849 -16.493  0.00  0.00    +0.100 C 
ATOM     16  C   UNL     1      31.260 -22.552 -16.637  0.00  0.00    +0.026 C 
ATOM     17  C   UNL     1      29.829 -23.007 -16.304  0.00  0.00    +0.024 C 
ATOM     18  C   UNL     1      30.011 -24.044 -15.191  0.00  0.00    +0.094 C 
ATOM     19  C   UNL     1      33.461 -23.822 -16.052  0.00  0.00    +0.014 C 
ATOM     20  C   UNL     1      33.596 -24.489 -14.828  0.00  0.00    +0.052 C 
ATOM     21  C   UNL     1      32.256 -24.878 -14.359  0.00  0.00    +0.249 C 
ATOM     22  C   UNL     1      34.571 -23.298 -16.688  0.00  0.00    +0.049 C 
ATOM     23  C   UNL     1      34.813 -24.644 -14.195  0.00  0.00    +0.004 C 
ATOM     24  C   UNL     1      35.816 -23.448 -16.068  0.00  0.00    +0.014 C 
ATOM     25  C   UNL     1      35.936 -24.116 -14.833  0.00  0.00    +0.001 C 
ENDBRANCH   2  22
BRANCH   6  27
ATOM     26  N   UNL     1      34.696 -18.795 -24.592  0.00  0.00    +0.388 N 
ATOM     27  C   UNL     1      35.885 -18.508 -23.775  0.00  0.00    -0.023 C 
ATOM     28  C   UNL     1      35.897 -16.985 -23.588  0.00  0.00    -0.018 C 
ATOM     29  C   UNL     1      34.699 -16.484 -24.380  0.00  0.00    -0.025 C 
ATOM     30  C   UNL     1      34.440 -17.593 -25.378  0.00  0.00    -0.081 C 
ATOM     31  H   UNL     1      33.896 -19.001 -23.992  0.00  0.00    -0.084 HD
ATOM     32  H   UNL     1      34.844 -19.607 -25.192  0.00  0.00    -0.084 HD
ENDBRANCH   6  27
TORSDOF 2
ENDMDL
MODEL 3
REMARK VINA RESULT:     -10.6      3.144     10.180
REMARK  Name = 445841
REMARK  2 active torsions:
REMARK  status: ('A' for Active; 'I' for Inactive)
REMARK    1  A    between atoms: N_2  and  C_22
REMARK    2  A    between atoms: C_6  and  C_27
REMARK                            x       y       z     vdW  Elec       q    Type
REMARK                         _______ _______ _______ _____ _____    ______ ____
ROOT
ATOM      1  O   UNL     1      32.637 -22.059 -18.387  0.00  0.00    -0.252 OA
ATOM      2  N   UNL     1      34.492 -22.848 -17.194  0.00  0.00    -0.268 N 
ATOM      3  N   UNL     1      33.613 -20.025 -21.926  0.00  0.00    -0.241 N 
ATOM      4  N   UNL     1      34.810 -21.702 -19.175  0.00  0.00    -0.252 N 
ATOM      5  N   UNL     1      33.366 -20.686 -20.783  0.00  0.00    -0.166 NA
ATOM      6  C   UNL     1      34.939 -19.917 -22.225  0.00  0.00    +0.026 C 
ATOM      7  C   UNL     1      35.606 -20.550 -21.205  0.00  0.00    +0.046 C 
ATOM      8  C   UNL     1      34.585 -20.995 -20.362  0.00  0.00    +0.154 C 
ATOM      9  C   UNL     1      33.851 -22.185 -18.272  0.00  0.00    +0.309 C 
ATOM     10  H   UNL     1      35.476 -22.872 -17.234  0.00  0.00    +0.156 HD
ATOM     11  H   UNL     1      32.902 -19.654 -22.497  0.00  0.00    +0.174 HD
ATOM     12  H   UNL     1      35.752 -21.882 -18.948  0.00  0.00    +0.158 HD
ENDROOT
BRANCH   2  22
ATOM     13  O   UNL     1      34.884 -25.187 -11.777  0.00  0.00    -0.270 OA
ATOM     14  N   UNL     1      36.232 -24.029 -13.326  0.00  0.00    -0.274 N 
ATOM     15  C   UNL     1      36.071 -23.431 -14.641  0.00  0.00    +0.100 C 
ATOM     16  C   UNL     1      37.187 -24.100 -15.430  0.00  0.00    +0.026 C 
ATOM     17  C   UNL     1      38.311 -24.177 -14.385  0.00  0.00    +0.024 C 
ATOM     18  C   UNL     1      37.586 -24.478 -13.070  0.00  0.00    +0.094 C 
ATOM     19  C   UNL     1      34.650 -23.738 -14.947  0.00  0.00    +0.014 C 
ATOM     20  C   UNL     1      34.041 -24.345 -13.841  0.00  0.00    +0.052 C 
ATOM     21  C   UNL     1      35.066 -24.567 -12.809  0.00  0.00    +0.249 C 
ATOM     22  C   UNL     1      33.916 -23.468 -16.087  0.00  0.00    +0.049 C 
ATOM     23  C   UNL     1      32.710 -24.713 -13.833  0.00  0.00    +0.004 C 
ATOM     24  C   UNL     1      32.564 -23.827 -16.100  0.00  0.00    +0.014 C 
ATOM     25  C   UNL     1      31.967 -24.443 -14.982  0.00  0.00    +0.001 C 
ENDBRANCH   2  22
BRANCH   6  27
ATOM     26  N   UNL     1      34.359 -19.045 -24.463  0.00  0.00    +0.388 N 
ATOM     27  C   UNL     1      35.430 -19.212 -23.469  0.00  0.00    -0.023 C 
ATOM     28  C   UNL     1      35.961 -17.799 -23.195  0.00  0.00    -0.018 C 
ATOM     29  C   UNL     1      35.160 -16.894 -24.120  0.00  0.00    -0.025 C 
ATOM     30  C   UNL     1      34.677 -17.831 -25.207  0.00  0.00    -0.081 C 
ATOM     31  H   UNL     1      33.456 -18.947 -23.997  0.00  0.00    -0.084 HD
ATOM     32  H   UNL     1      34.295 -19.854 -25.081  0.00  0.00    -0.084 HD
ENDBRANCH   6  27
TORSDOF 2
ENDMDL
MODEL 4
REMARK VINA RESULT:     -10.2      3.040      9.816
REMARK  Name = 445841
REMARK  2 active torsions:
REMARK  status: ('A' for Active; 'I' for Inactive)
REMARK    1  A    between atoms: N_2  and  C_22
REMARK    2  A    between atoms: C_6  and  C_27
REMARK                            x       y       z     vdW  Elec       q    Type
REMARK                         _______ _______ _______ _____ _____    ______ ____
ROOT
ATOM      1  O   UNL     1      37.255 -20.715 -18.178  0.00  0.00    -0.252 OA
ATOM      2  N   UNL     1      35.617 -22.362 -17.878  0.00  0.00    -0.268 N 
ATOM      3  N   UNL     1      37.010 -18.704 -21.855  0.00  0.00    -0.241 N 
ATOM      4  N   UNL     1      35.658 -21.135 -19.835  0.00  0.00    -0.252 N 
ATOM      5  N   UNL     1      37.035 -19.384 -20.696  0.00  0.00    -0.166 NA
ATOM      6  C   UNL     1      36.008 -19.086 -22.696  0.00  0.00    +0.026 C 
ATOM      7  C   UNL     1      35.330 -20.086 -22.043  0.00  0.00    +0.046 C 
ATOM      8  C   UNL     1      36.011 -20.215 -20.830  0.00  0.00    +0.154 C 
ATOM      9  C   UNL     1      36.280 -21.333 -18.594  0.00  0.00    +0.309 C 
ATOM     10  H   UNL     1      34.848 -22.772 -18.337  0.00  0.00    +0.156 HD
ATOM     11  H   UNL     1      37.656 -17.995 -22.076  0.00  0.00    +0.174 HD
ATOM     12  H   UNL     1      34.882 -21.709 -20.030  0.00  0.00    +0.158 HD
ENDROOT
BRANCH   2  22
ATOM     13  O   UNL     1      33.954 -24.926 -12.815  0.00  0.00    -0.270 OA
ATOM     14  N   UNL     1      33.038 -24.334 -14.905  0.00  0.00    -0.274 N 
ATOM     15  C   UNL     1      33.507 -23.739 -16.145  0.00  0.00    +0.100 C 
ATOM     16  C   UNL     1      32.538 -22.580 -16.326  0.00  0.00    +0.026 C 
ATOM     17  C   UNL     1      31.218 -23.191 -15.828  0.00  0.00    +0.024 C 
ATOM     18  C   UNL     1      31.633 -24.082 -14.652  0.00  0.00    +0.094 C 
ATOM     19  C   UNL     1      34.938 -23.477 -15.839  0.00  0.00    +0.014 C 
ATOM     20  C   UNL     1      35.262 -23.999 -14.580  0.00  0.00    +0.052 C 
ATOM     21  C   UNL     1      34.032 -24.519 -13.960  0.00  0.00    +0.249 C 
ATOM     22  C   UNL     1      35.908 -22.871 -16.614  0.00  0.00    +0.049 C 
ATOM     23  C   UNL     1      36.534 -23.926 -14.049  0.00  0.00    +0.004 C 
ATOM     24  C   UNL     1      37.206 -22.791 -16.100  0.00  0.00    +0.014 C 
ATOM     25  C   UNL     1      37.516 -23.314 -14.829  0.00  0.00    +0.001 C 
ENDBRANCH   2  22
BRANCH   6  27
ATOM     26  N   UNL     1      34.507 -18.813 -24.640  0.00  0.00    +0.388 N 
ATOM     27  C   UNL     1      35.803 -18.444 -24.050  0.00  0.00    -0.023 C 
ATOM     28  C   UNL     1      35.812 -16.911 -24.002  0.00  0.00    -0.018 C 
ATOM     29  C   UNL     1      34.493 -16.492 -24.634  0.00  0.00    -0.025 C 
ATOM     30  C   UNL     1      34.104 -17.688 -25.477  0.00  0.00    -0.081 C 
ATOM     31  H   UNL     1      33.816 -18.970 -23.905  0.00  0.00    -0.084 HD
ATOM     32  H   UNL     1      34.576 -19.674 -25.182  0.00  0.00    -0.084 HD
ENDBRANCH   6  27
TORSDOF 2
ENDMDL
MODEL 5
REMARK VINA RESULT:     -10.1      2.873      9.669
REMARK  Name = 445841
REMARK  2 active torsions:
REMARK  status: ('A' for Active; 'I' for Inactive)
REMARK    1  A    between atoms: N_2  and  C_22
REMARK    2  A    between atoms: C_6  and  C_27
REMARK                            x       y       z     vdW  Elec       q    Type
REMARK                         _______ _______ _______ _____ _____    ______ ____
ROOT
ATOM      1  O   UNL     1      37.183 -20.173 -19.289  0.00  0.00    -0.252 OA
ATOM      2  N   UNL     1      35.601 -21.863 -18.940  0.00  0.00    -0.268 N 
ATOM      3  N   UNL     1      36.636 -18.020 -22.850  0.00  0.00    -0.241 N 
ATOM      4  N   UNL     1      35.477 -20.558 -20.841  0.00  0.00    -0.252 N 
ATOM      5  N   UNL     1      36.757 -18.746 -21.725  0.00  0.00    -0.166 NA
ATOM      6  C   UNL     1      35.581 -18.388 -23.632  0.00  0.00    +0.026 C 
ATOM      7  C   UNL     1      34.969 -19.427 -22.974  0.00  0.00    +0.046 C 
ATOM      8  C   UNL     1      35.740 -19.591 -21.819  0.00  0.00    +0.154 C 
ATOM      9  C   UNL     1      36.192 -20.793 -19.657  0.00  0.00    +0.309 C 
ATOM     10  H   UNL     1      34.807 -22.270 -19.358  0.00  0.00    +0.156 HD
ATOM     11  H   UNL     1      37.251 -17.290 -23.088  0.00  0.00    +0.174 HD
ATOM     12  H   UNL     1      34.698 -21.139 -21.003  0.00  0.00    +0.158 HD
ENDROOT
BRANCH   2  22
ATOM     13  O   UNL     1      34.394 -24.831 -13.969  0.00  0.00    -0.270 OA
ATOM     14  N   UNL     1      33.332 -24.200 -15.976  0.00  0.00    -0.274 N 
ATOM     15  C   UNL     1      33.692 -23.500 -17.198  0.00  0.00    +0.100 C 
ATOM     16  C   UNL     1      32.628 -22.415 -17.267  0.00  0.00    +0.026 C 
ATOM     17  C   UNL     1      31.386 -23.157 -16.747  0.00  0.00    +0.024 C 
ATOM     18  C   UNL     1      31.927 -24.076 -15.647  0.00  0.00    +0.094 C 
ATOM     19  C   UNL     1      35.111 -23.142 -16.942  0.00  0.00    +0.014 C 
ATOM     20  C   UNL     1      35.537 -23.705 -15.731  0.00  0.00    +0.052 C 
ATOM     21  C   UNL     1      34.384 -24.357 -15.089  0.00  0.00    +0.249 C 
ATOM     22  C   UNL     1      35.992 -22.418 -17.722  0.00  0.00    +0.049 C 
ATOM     23  C   UNL     1      36.824 -23.560 -15.255  0.00  0.00    +0.004 C 
ATOM     24  C   UNL     1      37.304 -22.262 -17.262  0.00  0.00    +0.014 C 
ATOM     25  C   UNL     1      37.716 -22.829 -16.040  0.00  0.00    +0.001 C 
ENDBRANCH   2  22
BRANCH   6  27
ATOM     26  N   UNL     1      33.899 -17.988 -25.398  0.00  0.00    +0.388 N 
ATOM     27  C   UNL     1      35.266 -17.697 -24.939  0.00  0.00    -0.023 C 
ATOM     28  C   UNL     1      35.353 -16.167 -24.852  0.00  0.00    -0.018 C 
ATOM     29  C   UNL     1      33.997 -15.670 -25.330  0.00  0.00    -0.025 C 
ATOM     30  C   UNL     1      33.465 -16.821 -26.158  0.00  0.00    -0.081 C 
ATOM     31  H   UNL     1      33.282 -18.137 -24.598  0.00  0.00    -0.084 HD
ATOM     32  H   UNL     1      33.870 -18.835 -25.966  0.00  0.00    -0.084 HD
ENDBRANCH   6  27
TORSDOF 2
ENDMDL
MODEL 6
REMARK VINA RESULT:     -10.0      7.088     13.755
REMARK  Name = 445841
REMARK  2 active torsions:
REMARK  status: ('A' for Active; 'I' for Inactive)
REMARK    1  A    between atoms: N_2  and  C_22
REMARK    2  A    between atoms: C_6  and  C_27
REMARK                            x       y       z     vdW  Elec       q    Type
REMARK                         _______ _______ _______ _____ _____    ______ ____
ROOT
ATOM      1  O   UNL     1      32.554  -9.504 -20.647  0.00  0.00    -0.252 OA
ATOM      2  N   UNL     1      32.169 -11.113 -22.305  0.00  0.00    -0.268 N 
ATOM      3  N   UNL     1      31.692  -5.573 -21.841  0.00  0.00    -0.241 N 
ATOM      4  N   UNL     1      31.755  -8.886 -22.757  0.00  0.00    -0.252 N 
ATOM      5  N   UNL     1      31.949  -6.852 -21.519  0.00  0.00    -0.166 NA
ATOM      6  C   UNL     1      31.232  -5.406 -23.114  0.00  0.00    +0.026 C 
ATOM      7  C   UNL     1      31.186  -6.664 -23.664  0.00  0.00    +0.046 C 
ATOM      8  C   UNL     1      31.636  -7.496 -22.636  0.00  0.00    +0.154 C 
ATOM      9  C   UNL     1      32.195  -9.794 -21.783  0.00  0.00    +0.309 C 
ATOM     10  H   UNL     1      31.858 -11.196 -23.236  0.00  0.00    +0.156 HD
ATOM     11  H   UNL     1      31.824  -4.825 -21.215  0.00  0.00    +0.174 HD
ATOM     12  H   UNL     1      31.498  -9.269 -23.627  0.00  0.00    +0.158 HD
ENDROOT
BRANCH   2  22
ATOM     13  O   UNL     1      34.930 -16.343 -22.294  0.00  0.00    -0.270 OA
ATOM     14  N   UNL     1      34.713 -14.439 -23.667  0.00  0.00    -0.274 N 
ATOM     15  C   UNL     1      34.049 -13.147 -23.601  0.00  0.00    +0.100 C 
ATOM     16  C   UNL     1      33.239 -13.143 -24.889  0.00  0.00    +0.026 C 
ATOM     17  C   UNL     1      34.197 -13.841 -25.868  0.00  0.00    +0.024 C 
ATOM     18  C   UNL     1      34.881 -14.920 -25.023  0.00  0.00    +0.094 C 
ATOM     19  C   UNL     1      33.363 -13.220 -22.285  0.00  0.00    +0.014 C 
ATOM     20  C   UNL     1      33.719 -14.402 -21.623  0.00  0.00    +0.052 C 
ATOM     21  C   UNL     1      34.559 -15.207 -22.525  0.00  0.00    +0.249 C 
ATOM     22  C   UNL     1      32.524 -12.305 -21.677  0.00  0.00    +0.049 C 
ATOM     23  C   UNL     1      33.252 -14.720 -20.363  0.00  0.00    +0.004 C 
ATOM     24  C   UNL     1      32.042 -12.603 -20.398  0.00  0.00    +0.014 C 
ATOM     25  C   UNL     1      32.404 -13.799 -19.747  0.00  0.00    +0.001 C 
ENDBRANCH   2  22
BRANCH   6  27
ATOM     26  N   UNL     1      30.384  -3.137 -22.628  0.00  0.00    +0.388 N 
ATOM     27  C   UNL     1      30.882  -4.046 -23.672  0.00  0.00    -0.023 C 
ATOM     28  C   UNL     1      32.078  -3.325 -24.308  0.00  0.00    -0.018 C 
ATOM     29  C   UNL     1      32.154  -1.985 -23.590  0.00  0.00    -0.025 C 
ATOM     30  C   UNL     1      30.754  -1.789 -23.047  0.00  0.00    -0.081 C 
ATOM     31  H   UNL     1      30.817  -3.358 -21.731  0.00  0.00    -0.084 HD
ATOM     32  H   UNL     1      29.374  -3.225 -22.508  0.00  0.00    -0.084 HD
ENDBRANCH   6  27
TORSDOF 2
ENDMDL
MODEL 7
REMARK VINA RESULT:     -10.0      2.893     10.391
REMARK  Name = 445841
REMARK  2 active torsions:
REMARK  status: ('A' for Active; 'I' for Inactive)
REMARK    1  A    between atoms: N_2  and  C_22
REMARK    2  A    between atoms: C_6  and  C_27
REMARK                            x       y       z     vdW  Elec       q    Type
REMARK                         _______ _______ _______ _____ _____    ______ ____
ROOT
ATOM      1  O   UNL     1      33.454 -22.411 -17.834  0.00  0.00    -0.252 OA
ATOM      2  N   UNL     1      35.430 -22.905 -16.678  0.00  0.00    -0.268 N 
ATOM      3  N   UNL     1      34.051 -20.390 -21.464  0.00  0.00    -0.241 N 
ATOM      4  N   UNL     1      35.538 -21.797 -18.702  0.00  0.00    -0.252 N 
ATOM      5  N   UNL     1      33.926 -21.038 -20.293  0.00  0.00    -0.166 NA
ATOM      6  C   UNL     1      35.342 -20.117 -21.808  0.00  0.00    +0.026 C 
ATOM      7  C   UNL     1      36.116 -20.621 -20.791  0.00  0.00    +0.046 C 
ATOM      8  C   UNL     1      35.187 -21.167 -19.902  0.00  0.00    +0.154 C 
ATOM      9  C   UNL     1      34.677 -22.371 -17.754  0.00  0.00    +0.309 C 
ATOM     10  H   UNL     1      36.407 -22.800 -16.748  0.00  0.00    +0.156 HD
ATOM     11  H   UNL     1      33.282 -20.136 -22.022  0.00  0.00    +0.174 HD
ATOM     12  H   UNL     1      36.501 -21.842 -18.500  0.00  0.00    +0.158 HD
ENDROOT
BRANCH   2  22
ATOM     13  O   UNL     1      36.422 -25.805 -11.620  0.00  0.00    -0.270 OA
ATOM     14  N   UNL     1      37.630 -24.673 -13.298  0.00  0.00    -0.274 N 
ATOM     15  C   UNL     1      37.329 -23.931 -14.511  0.00  0.00    +0.100 C 
ATOM     16  C   UNL     1      38.188 -24.649 -15.541  0.00  0.00    +0.026 C 
ATOM     17  C   UNL     1      39.454 -24.969 -14.731  0.00  0.00    +0.024 C 
ATOM     18  C   UNL     1      38.932 -25.308 -13.331  0.00  0.00    +0.094 C 
ATOM     19  C   UNL     1      35.848 -24.028 -14.573  0.00  0.00    +0.014 C 
ATOM     20  C   UNL     1      35.361 -24.663 -13.423  0.00  0.00    +0.052 C 
ATOM     21  C   UNL     1      36.507 -25.112 -12.617  0.00  0.00    +0.249 C 
ATOM     22  C   UNL     1      34.973 -23.558 -15.534  0.00  0.00    +0.049 C 
ATOM     23  C   UNL     1      34.013 -24.864 -13.198  0.00  0.00    +0.004 C 
ATOM     24  C   UNL     1      33.603 -23.745 -15.325  0.00  0.00    +0.014 C 
ATOM     25  C   UNL     1      33.128 -24.390 -14.167  0.00  0.00    +0.001 C 
ENDBRANCH   2  22
BRANCH   6  27
ATOM     26  N   UNL     1      34.530 -19.216 -23.960  0.00  0.00    +0.388 N 
ATOM     27  C   UNL     1      35.700 -19.397 -23.088  0.00  0.00    -0.023 C 
ATOM     28  C   UNL     1      36.260 -17.987 -22.854  0.00  0.00    -0.018 C 
ATOM     29  C   UNL     1      35.367 -17.071 -23.677  0.00  0.00    -0.025 C 
ATOM     30  C   UNL     1      34.769 -17.993 -24.719  0.00  0.00    -0.081 C 
ATOM     31  H   UNL     1      33.682 -19.123 -23.400  0.00  0.00    -0.084 HD
ATOM     32  H   UNL     1      34.399 -20.018 -24.578  0.00  0.00    -0.084 HD
ENDBRANCH   6  27
TORSDOF 2
ENDMDL
MODEL 8
REMARK VINA RESULT:     -10.0      1.914      2.200
REMARK  Name = 445841
REMARK  2 active torsions:
REMARK  status: ('A' for Active; 'I' for Inactive)
REMARK    1  A    between atoms: N_2  and  C_22
REMARK    2  A    between atoms: C_6  and  C_27
REMARK                            x       y       z     vdW  Elec       q    Type
REMARK                         _______ _______ _______ _____ _____    ______ ____
ROOT
ATOM      1  O   UNL     1      33.088 -20.160 -21.790  0.00  0.00    -0.252 OA
ATOM      2  N   UNL     1      35.232 -19.344 -22.263  0.00  0.00    -0.268 N 
ATOM      3  N   UNL     1      32.926 -22.738 -18.482  0.00  0.00    -0.241 N 
ATOM      4  N   UNL     1      34.924 -20.778 -20.478  0.00  0.00    -0.252 N 
ATOM      5  N   UNL     1      33.044 -21.906 -19.531  0.00  0.00    -0.166 NA
ATOM      6  C   UNL     1      34.102 -22.981 -17.836  0.00  0.00    +0.026 C 
ATOM      7  C   UNL     1      35.057 -22.259 -18.510  0.00  0.00    +0.046 C 
ATOM      8  C   UNL     1      34.340 -21.628 -19.531  0.00  0.00    +0.154 C 
ATOM      9  C   UNL     1      34.286 -20.105 -21.531  0.00  0.00    +0.309 C 
ATOM     10  H   UNL     1      36.161 -19.395 -21.940  0.00  0.00    +0.156 HD
ATOM     11  H   UNL     1      32.069 -23.135 -18.204  0.00  0.00    +0.174 HD
ATOM     12  H   UNL     1      35.895 -20.635 -20.394  0.00  0.00    +0.158 HD
ENDROOT
BRANCH   2  22
ATOM     13  O   UNL     1      34.612 -14.016 -24.755  0.00  0.00    -0.270 OA
ATOM     14  N   UNL     1      35.133 -14.960 -22.658  0.00  0.00    -0.274 N 
ATOM     15  C   UNL     1      35.317 -16.291 -22.104  0.00  0.00    +0.100 C 
ATOM     16  C   UNL     1      34.351 -16.280 -20.929  0.00  0.00    +0.026 C 
ATOM     17  C   UNL     1      34.500 -14.841 -20.410  0.00  0.00    +0.024 C 
ATOM     18  C   UNL     1      34.672 -13.998 -21.678  0.00  0.00    +0.094 C 
ATOM     19  C   UNL     1      35.051 -17.155 -23.284  0.00  0.00    +0.014 C 
ATOM     20  C   UNL     1      34.859 -16.364 -24.424  0.00  0.00    +0.052 C 
ATOM     21  C   UNL     1      34.875 -14.950 -24.018  0.00  0.00    +0.249 C 
ATOM     22  C   UNL     1      35.024 -18.534 -23.377  0.00  0.00    +0.049 C 
ATOM     23  C   UNL     1      34.623 -16.904 -25.672  0.00  0.00    +0.004 C 
ATOM     24  C   UNL     1      34.791 -19.103 -24.634  0.00  0.00    +0.014 C 
ATOM     25  C   UNL     1      34.594 -18.295 -25.771  0.00  0.00    +0.001 C 
ENDBRANCH   2  22
BRANCH   6  27
ATOM     26  N   UNL     1      35.239 -23.458 -15.695  0.00  0.00    +0.388 N 
ATOM     27  C   UNL     1      34.188 -23.888 -16.630  0.00  0.00    -0.023 C 
ATOM     28  C   UNL     1      32.894 -23.922 -15.805  0.00  0.00    -0.018 C 
ATOM     29  C   UNL     1      33.319 -23.543 -14.394  0.00  0.00    -0.025 C 
ATOM     30  C   UNL     1      34.798 -23.868 -14.366  0.00  0.00    -0.081 C 
ATOM     31  H   UNL     1      35.353 -22.444 -15.732  0.00  0.00    -0.084 HD
ATOM     32  H   UNL     1      36.141 -23.873 -15.932  0.00  0.00    -0.084 HD
ENDBRANCH   6  27
TORSDOF 2
ENDMDL
MODEL 9
REMARK VINA RESULT:      -9.8      7.369     12.060
REMARK  Name = 445841
REMARK  2 active torsions:
REMARK  status: ('A' for Active; 'I' for Inactive)
REMARK    1  A    between atoms: N_2  and  C_22
REMARK    2  A    between atoms: C_6  and  C_27
REMARK                            x       y       z     vdW  Elec       q    Type
REMARK                         _______ _______ _______ _____ _____    ______ ____
ROOT
ATOM      1  O   UNL     1      32.014  -9.921 -22.492  0.00  0.00    -0.252 OA
ATOM      2  N   UNL     1      32.968  -8.247 -23.823  0.00  0.00    -0.268 N 
ATOM      3  N   UNL     1      33.523 -13.768 -23.232  0.00  0.00    -0.241 N 
ATOM      4  N   UNL     1      33.662 -10.437 -24.071  0.00  0.00    -0.252 N 
ATOM      5  N   UNL     1      33.081 -12.512 -23.042  0.00  0.00    -0.166 NA
ATOM      6  C   UNL     1      34.485 -13.874 -24.192  0.00  0.00    +0.026 C 
ATOM      7  C   UNL     1      34.687 -12.600 -24.664  0.00  0.00    +0.046 C 
ATOM      8  C   UNL     1      33.798 -11.822 -23.918  0.00  0.00    +0.154 C 
ATOM      9  C   UNL     1      32.800  -9.580 -23.369  0.00  0.00    +0.309 C 
ATOM     10  H   UNL     1      33.637  -8.121 -24.536  0.00  0.00    +0.156 HD
ATOM     11  H   UNL     1      33.183 -14.539 -22.724  0.00  0.00    +0.174 HD
ATOM     12  H   UNL     1      34.238 -10.016 -24.749  0.00  0.00    +0.158 HD
ENDROOT
BRANCH   2  22
ATOM     13  O   UNL     1      31.694  -2.501 -24.399  0.00  0.00    -0.270 OA
ATOM     14  N   UNL     1      32.849  -4.200 -25.554  0.00  0.00    -0.274 N 
ATOM     15  C   UNL     1      33.097  -5.623 -25.389  0.00  0.00    +0.100 C 
ATOM     16  C   UNL     1      34.615  -5.689 -25.462  0.00  0.00    +0.026 C 
ATOM     17  C   UNL     1      34.927  -4.634 -26.536  0.00  0.00    +0.024 C 
ATOM     18  C   UNL     1      33.903  -3.523 -26.283  0.00  0.00    +0.094 C 
ATOM     19  C   UNL     1      32.396  -5.911 -24.111  0.00  0.00    +0.014 C 
ATOM     20  C   UNL     1      31.712  -4.770 -23.671  0.00  0.00    +0.052 C 
ATOM     21  C   UNL     1      32.031  -3.657 -24.578  0.00  0.00    +0.249 C 
ATOM     22  C   UNL     1      32.314  -7.093 -23.398  0.00  0.00    +0.049 C 
ATOM     23  C   UNL     1      30.948  -4.758 -22.521  0.00  0.00    +0.004 C 
ATOM     24  C   UNL     1      31.541  -7.105 -22.232  0.00  0.00    +0.014 C 
ATOM     25  C   UNL     1      30.864  -5.949 -21.798  0.00  0.00    +0.001 C 
ENDBRANCH   2  22
BRANCH   6  27
ATOM     26  N   UNL     1      35.041 -16.165 -23.451  0.00  0.00    +0.388 N 
ATOM     27  C   UNL     1      35.116 -15.198 -24.558  0.00  0.00    -0.023 C 
ATOM     28  C   UNL     1      34.436 -15.885 -25.749  0.00  0.00    -0.018 C 
ATOM     29  C   UNL     1      34.048 -17.264 -25.237  0.00  0.00    -0.025 C 
ATOM     30  C   UNL     1      34.981 -17.486 -24.065  0.00  0.00    -0.081 C 
ATOM     31  H   UNL     1      34.204 -15.997 -22.892  0.00  0.00    -0.084 HD
ATOM     32  H   UNL     1      35.845 -16.080 -22.828  0.00  0.00    -0.084 HD
ENDBRANCH   6  27
TORSDOF 2
ENDMDL
