MODEL 1
REMARK VINA RESULT:     -12.1      0.000      0.000
REMARK  Name = 25174099
REMARK  5 active torsions:
REMARK  status: ('A' for Active; 'I' for Inactive)
REMARK    1  A    between atoms: C_5  and  C_33
REMARK    2  A    between atoms: C_14  and  C_18
REMARK    3  A    between atoms: N_17  and  C_20
REMARK    4  A    between atoms: C_20  and  C_24
REMARK    5  A    between atoms: C_33  and  C_36
REMARK                            x       y       z     vdW  Elec       q    Type
REMARK                         _______ _______ _______ _____ _____    ______ ____
ROOT
ATOM      1  S   UNL     1      37.519 -21.771 -17.362  0.00  0.00    -0.064 S 
ATOM      2  O   UNL     1      32.929 -23.070 -18.652  0.00  0.00    -0.274 OA
ATOM      3  N   UNL     1      36.287 -20.828 -19.543  0.00  0.00    -0.379 NA
ATOM      4  N   UNL     1      34.060 -21.570 -20.000  0.00  0.00    -0.255 N 
ATOM      5  C   UNL     1      34.444 -24.032 -16.080  0.00  0.00    +0.028 C 
ATOM      6  C   UNL     1      35.232 -24.954 -15.116  0.00  0.00    +0.005 C 
ATOM      7  C   UNL     1      35.383 -23.117 -16.829  0.00  0.00    -0.027 C 
ATOM      8  C   UNL     1      36.268 -24.184 -14.286  0.00  0.00    +0.006 C 
ATOM      9  C   UNL     1      37.308 -23.488 -15.174  0.00  0.00    +0.032 C 
ATOM     10  C   UNL     1      36.665 -22.862 -16.373  0.00  0.00    +0.002 C 
ATOM     11  C   UNL     1      35.127 -22.410 -18.050  0.00  0.00    +0.154 C 
ATOM     12  C   UNL     1      36.206 -21.629 -18.442  0.00  0.00    +0.152 C 
ATOM     13  C   UNL     1      33.932 -22.405 -18.891  0.00  0.00    +0.239 C 
ATOM     14  C   UNL     1      35.208 -20.839 -20.263  0.00  0.00    +0.240 C 
ATOM     15  H   UNL     1      33.301 -21.496 -20.623  0.00  0.00    +0.157 HD
ENDROOT
BRANCH  14  18
ATOM     16  O   UNL     1      34.149 -20.076 -22.183  0.00  0.00    -0.266 OA
ATOM     17  N   UNL     1      36.290 -19.256 -21.691  0.00  0.00    -0.294 N 
ATOM     18  C   UNL     1      35.156 -20.011 -21.491  0.00  0.00    +0.290 C 
ATOM     19  H   UNL     1      37.018 -19.320 -21.032  0.00  0.00    +0.150 HD
BRANCH  17  20
ATOM     20  C   UNL     1      36.461 -18.373 -22.822  0.00  0.00    +0.117 C 
BRANCH  20  24
ATOM     21  O   UNL     1      33.832 -13.433 -21.997  0.00  0.00    -0.464 OA
ATOM     22  O   UNL     1      33.874 -12.124 -25.365  0.00  0.00    -0.271 OA
ATOM     23  N   UNL     1      34.714 -14.122 -24.594  0.00  0.00    -0.279 N 
ATOM     24  C   UNL     1      35.754 -17.064 -22.623  0.00  0.00    -0.001 C 
ATOM     25  C   UNL     1      34.887 -14.997 -23.518  0.00  0.00    +0.085 C 
ATOM     26  C   UNL     1      35.552 -16.209 -23.708  0.00  0.00    +0.015 C 
ATOM     27  C   UNL     1      34.435 -14.633 -22.250  0.00  0.00    +0.153 C 
ATOM     28  C   UNL     1      35.306 -16.700 -21.353  0.00  0.00    +0.001 C 
ATOM     29  C   UNL     1      34.653 -15.482 -21.164  0.00  0.00    +0.038 C 
ATOM     30  C   UNL     1      33.273 -12.814 -23.140  0.00  0.00    +0.290 C 
ATOM     31  C   UNL     1      33.996 -12.956 -24.468  0.00  0.00    +0.271 C 
ATOM     32  H   UNL     1      35.116 -14.346 -25.465  0.00  0.00    +0.155 HD
ENDBRANCH  20  24
ENDBRANCH  17  20
ENDBRANCH  14  18
BRANCH   5  33
ATOM     33  C   UNL     1      33.383 -23.231 -15.316  0.00  0.00    +0.089 C 
BRANCH  33  36
ATOM     34  O   UNL     1      31.721 -24.841 -14.588  0.00  0.00    -0.275 OA
ATOM     35  N   UNL     1      31.200 -23.380 -16.285  0.00  0.00    -0.329 N 
ATOM     36  C   UNL     1      32.038 -23.917 -15.332  0.00  0.00    +0.220 C 
ATOM     37  H   UNL     1      30.290 -23.738 -16.399  0.00  0.00    +0.145 HD
ATOM     38  H   UNL     1      31.512 -22.638 -16.852  0.00  0.00    +0.145 HD
ENDBRANCH  33  36
ENDBRANCH   5  33
TORSDOF 5
ENDMDL
MODEL 2
REMARK VINA RESULT:     -11.9      2.623     10.481
REMARK  Name = 25174099
REMARK  5 active torsions:
REMARK  status: ('A' for Active; 'I' for Inactive)
REMARK    1  A    between atoms: C_5  and  C_33
REMARK    2  A    between atoms: C_14  and  C_18
REMARK    3  A    between atoms: N_17  and  C_20
REMARK    4  A    between atoms: C_20  and  C_24
REMARK    5  A    between atoms: C_33  and  C_36
REMARK                            x       y       z     vdW  Elec       q    Type
REMARK                         _______ _______ _______ _____ _____    ______ ____
ROOT
ATOM      1  S   UNL     1      34.908 -17.174 -25.443  0.00  0.00    -0.064 S 
ATOM      2  O   UNL     1      34.952 -14.775 -21.123  0.00  0.00    -0.274 OA
ATOM      3  N   UNL     1      35.746 -18.286 -23.157  0.00  0.00    -0.379 NA
ATOM      4  N   UNL     1      35.688 -16.965 -21.164  0.00  0.00    -0.255 N 
ATOM      5  C   UNL     1      33.910 -13.616 -23.845  0.00  0.00    +0.028 C 
ATOM      6  C   UNL     1      33.874 -12.786 -25.153  0.00  0.00    +0.005 C 
ATOM      7  C   UNL     1      34.389 -15.021 -24.119  0.00  0.00    -0.027 C 
ATOM      8  C   UNL     1      33.201 -13.542 -26.307  0.00  0.00    +0.006 C 
ATOM      9  C   UNL     1      33.933 -14.849 -26.637  0.00  0.00    +0.032 C 
ATOM     10  C   UNL     1      34.354 -15.565 -25.391  0.00  0.00    +0.002 C 
ATOM     11  C   UNL     1      34.924 -15.962 -23.177  0.00  0.00    +0.154 C 
ATOM     12  C   UNL     1      35.234 -17.179 -23.769  0.00  0.00    +0.152 C 
ATOM     13  C   UNL     1      35.170 -15.810 -21.746  0.00  0.00    +0.239 C 
ATOM     14  C   UNL     1      35.944 -18.122 -21.886  0.00  0.00    +0.240 C 
ATOM     15  H   UNL     1      35.880 -16.961 -20.198  0.00  0.00    +0.157 HD
ENDROOT
BRANCH  14  18
ATOM     16  O   UNL     1      37.583 -19.085 -20.554  0.00  0.00    -0.266 OA
ATOM     17  N   UNL     1      35.682 -20.355 -21.074  0.00  0.00    -0.294 N 
ATOM     18  C   UNL     1      36.497 -19.245 -21.094  0.00  0.00    +0.290 C 
ATOM     19  H   UNL     1      34.830 -20.320 -21.566  0.00  0.00    +0.150 HD
BRANCH  17  20
ATOM     20  C   UNL     1      36.017 -21.568 -20.364  0.00  0.00    +0.117 C 
BRANCH  20  24
ATOM     21  O   UNL     1      31.918 -23.079 -16.772  0.00  0.00    -0.464 OA
ATOM     22  O   UNL     1      33.893 -24.634 -14.176  0.00  0.00    -0.271 OA
ATOM     23  N   UNL     1      34.610 -23.670 -16.138  0.00  0.00    -0.279 N 
ATOM     24  C   UNL     1      34.943 -21.965 -19.394  0.00  0.00    -0.001 C 
ATOM     25  C   UNL     1      34.279 -22.981 -17.308  0.00  0.00    +0.085 C 
ATOM     26  C   UNL     1      35.281 -22.621 -18.210  0.00  0.00    +0.015 C 
ATOM     27  C   UNL     1      32.943 -22.697 -17.590  0.00  0.00    +0.153 C 
ATOM     28  C   UNL     1      33.607 -21.683 -19.680  0.00  0.00    +0.001 C 
ATOM     29  C   UNL     1      32.605 -22.055 -18.782  0.00  0.00    +0.038 C 
ATOM     30  C   UNL     1      32.308 -23.334 -15.436  0.00  0.00    +0.290 C 
ATOM     31  C   UNL     1      33.664 -23.972 -15.186  0.00  0.00    +0.271 C 
ATOM     32  H   UNL     1      35.543 -23.946 -15.991  0.00  0.00    +0.155 HD
ENDBRANCH  20  24
ENDBRANCH  17  20
ENDBRANCH  14  18
BRANCH   5  33
ATOM     33  C   UNL     1      32.535 -13.621 -23.169  0.00  0.00    +0.089 C 
BRANCH  33  36
ATOM     34  O   UNL     1      32.340 -11.366 -22.298  0.00  0.00    -0.275 OA
ATOM     35  N   UNL     1      32.453 -13.132 -20.829  0.00  0.00    -0.329 N 
ATOM     36  C   UNL     1      32.432 -12.573 -22.089  0.00  0.00    +0.220 C 
ATOM     37  H   UNL     1      32.393 -12.555 -20.033  0.00  0.00    +0.145 HD
ATOM     38  H   UNL     1      32.529 -14.107 -20.725  0.00  0.00    +0.145 HD
ENDBRANCH  33  36
ENDBRANCH   5  33
TORSDOF 5
ENDMDL
MODEL 3
REMARK VINA RESULT:     -11.8      2.327      3.611
REMARK  Name = 25174099
REMARK  5 active torsions:
REMARK  status: ('A' for Active; 'I' for Inactive)
REMARK    1  A    between atoms: C_5  and  C_33
REMARK    2  A    between atoms: C_14  and  C_18
REMARK    3  A    between atoms: N_17  and  C_20
REMARK    4  A    between atoms: C_20  and  C_24
REMARK    5  A    between atoms: C_33  and  C_36
REMARK                            x       y       z     vdW  Elec       q    Type
REMARK                         _______ _______ _______ _____ _____    ______ ____
ROOT
ATOM      1  S   UNL     1      34.692 -24.069 -14.794  0.00  0.00    -0.064 S 
ATOM      2  O   UNL     1      31.901 -22.596 -18.597  0.00  0.00    -0.274 OA
ATOM      3  N   UNL     1      35.677 -22.776 -16.921  0.00  0.00    -0.379 NA
ATOM      4  N   UNL     1      34.166 -22.138 -18.662  0.00  0.00    -0.255 N 
ATOM      5  C   UNL     1      30.855 -24.034 -16.013  0.00  0.00    +0.028 C 
ATOM      6  C   UNL     1      30.318 -25.158 -15.091  0.00  0.00    +0.005 C 
ATOM      7  C   UNL     1      32.351 -23.892 -15.864  0.00  0.00    -0.027 C 
ATOM      8  C   UNL     1      30.872 -25.057 -13.663  0.00  0.00    +0.006 C 
ATOM      9  C   UNL     1      32.402 -25.162 -13.636  0.00  0.00    +0.032 C 
ATOM     10  C   UNL     1      33.020 -24.384 -14.756  0.00  0.00    +0.002 C 
ATOM     11  C   UNL     1      33.266 -23.271 -16.778  0.00  0.00    +0.154 C 
ATOM     12  C   UNL     1      34.572 -23.289 -16.307  0.00  0.00    +0.152 C 
ATOM     13  C   UNL     1      33.010 -22.652 -18.075  0.00  0.00    +0.239 C 
ATOM     14  C   UNL     1      35.415 -22.224 -18.066  0.00  0.00    +0.240 C 
ATOM     15  H   UNL     1      34.092 -21.694 -19.537  0.00  0.00    +0.157 HD
ENDROOT
BRANCH  14  18
ATOM     16  O   UNL     1      37.659 -22.024 -18.625  0.00  0.00    -0.266 OA
ATOM     17  N   UNL     1      36.107 -20.663 -19.739  0.00  0.00    -0.294 N 
ATOM     18  C   UNL     1      36.523 -21.624 -18.843  0.00  0.00    +0.290 C 
ATOM     19  H   UNL     1      35.146 -20.457 -19.792  0.00  0.00    +0.150 HD
BRANCH  17  20
ATOM     20  C   UNL     1      37.014 -19.945 -20.604  0.00  0.00    +0.117 C 
BRANCH  20  24
ATOM     21  O   UNL     1      34.270 -17.639 -24.981  0.00  0.00    -0.464 OA
ATOM     22  O   UNL     1      34.669 -14.133 -24.201  0.00  0.00    -0.271 OA
ATOM     23  N   UNL     1      35.430 -15.958 -23.024  0.00  0.00    -0.279 N 
ATOM     24  C   UNL     1      36.300 -19.316 -21.766  0.00  0.00    -0.001 C 
ATOM     25  C   UNL     1      35.553 -17.348 -22.946  0.00  0.00    +0.085 C 
ATOM     26  C   UNL     1      36.211 -17.927 -21.860  0.00  0.00    +0.015 C 
ATOM     27  C   UNL     1      34.977 -18.151 -23.929  0.00  0.00    +0.153 C 
ATOM     28  C   UNL     1      35.722 -20.122 -22.747  0.00  0.00    +0.001 C 
ATOM     29  C   UNL     1      35.053 -19.541 -23.825  0.00  0.00    +0.038 C 
ATOM     30  C   UNL     1      34.564 -16.286 -25.271  0.00  0.00    +0.290 C 
ATOM     31  C   UNL     1      34.860 -15.345 -24.116  0.00  0.00    +0.271 C 
ATOM     32  H   UNL     1      35.760 -15.403 -22.281  0.00  0.00    +0.155 HD
ENDBRANCH  20  24
ENDBRANCH  17  20
ENDBRANCH  14  18
BRANCH   5  33
ATOM     33  C   UNL     1      30.141 -22.709 -15.724  0.00  0.00    +0.089 C 
BRANCH  33  36
ATOM     34  O   UNL     1      27.785 -22.151 -15.862  0.00  0.00    -0.275 OA
ATOM     35  N   UNL     1      28.796 -23.205 -17.639  0.00  0.00    -0.329 N 
ATOM     36  C   UNL     1      28.784 -22.644 -16.380  0.00  0.00    +0.220 C 
ATOM     37  H   UNL     1      27.971 -23.227 -18.176  0.00  0.00    +0.145 HD
ATOM     38  H   UNL     1      29.629 -23.584 -18.001  0.00  0.00    +0.145 HD
ENDBRANCH  33  36
ENDBRANCH   5  33
TORSDOF 5
ENDMDL
MODEL 4
REMARK VINA RESULT:     -11.7      1.363      1.946
REMARK  Name = 25174099
REMARK  5 active torsions:
REMARK  status: ('A' for Active; 'I' for Inactive)
REMARK    1  A    between atoms: C_5  and  C_33
REMARK    2  A    between atoms: C_14  and  C_18
REMARK    3  A    between atoms: N_17  and  C_20
REMARK    4  A    between atoms: C_20  and  C_24
REMARK    5  A    between atoms: C_33  and  C_36
REMARK                            x       y       z     vdW  Elec       q    Type
REMARK                         _______ _______ _______ _____ _____    ______ ____
ROOT
ATOM      1  S   UNL     1      37.323 -21.564 -17.896  0.00  0.00    -0.064 S 
ATOM      2  O   UNL     1      32.738 -22.460 -19.508  0.00  0.00    -0.274 OA
ATOM      3  N   UNL     1      36.320 -20.491 -20.134  0.00  0.00    -0.379 NA
ATOM      4  N   UNL     1      34.075 -21.041 -20.749  0.00  0.00    -0.255 N 
ATOM      5  C   UNL     1      33.995 -23.580 -16.861  0.00  0.00    +0.028 C 
ATOM      6  C   UNL     1      34.639 -24.577 -15.867  0.00  0.00    +0.005 C 
ATOM      7  C   UNL     1      35.054 -22.735 -17.530  0.00  0.00    -0.027 C 
ATOM      8  C   UNL     1      35.678 -23.907 -14.955  0.00  0.00    +0.006 C 
ATOM      9  C   UNL     1      36.827 -23.287 -15.760  0.00  0.00    +0.032 C 
ATOM     10  C   UNL     1      36.319 -22.594 -16.986  0.00  0.00    +0.002 C 
ATOM     11  C   UNL     1      34.938 -21.992 -18.751  0.00  0.00    +0.154 C 
ATOM     12  C   UNL     1      36.101 -21.298 -19.057  0.00  0.00    +0.152 C 
ATOM     13  C   UNL     1      33.806 -21.878 -19.668  0.00  0.00    +0.239 C 
ATOM     14  C   UNL     1      35.294 -20.403 -20.923  0.00  0.00    +0.240 C 
ATOM     15  H   UNL     1      33.368 -20.896 -21.419  0.00  0.00    +0.157 HD
ENDROOT
BRANCH  14  18
ATOM     16  O   UNL     1      34.715 -19.868 -23.107  0.00  0.00    -0.266 OA
ATOM     17  N   UNL     1      36.261 -18.498 -21.996  0.00  0.00    -0.294 N 
ATOM     18  C   UNL     1      35.391 -19.557 -22.135  0.00  0.00    +0.290 C 
ATOM     19  H   UNL     1      36.731 -18.387 -21.139  0.00  0.00    +0.150 HD
BRANCH  17  20
ATOM     20  C   UNL     1      36.513 -17.540 -23.049  0.00  0.00    +0.117 C 
BRANCH  20  24
ATOM     21  O   UNL     1      32.719 -13.345 -23.079  0.00  0.00    -0.464 OA
ATOM     22  O   UNL     1      32.125 -13.004 -19.530  0.00  0.00    -0.271 OA
ATOM     23  N   UNL     1      33.532 -14.468 -20.613  0.00  0.00    -0.279 N 
ATOM     24  C   UNL     1      35.515 -16.419 -23.038  0.00  0.00    -0.001 C 
ATOM     25  C   UNL     1      34.077 -14.909 -21.822  0.00  0.00    +0.085 C 
ATOM     26  C   UNL     1      35.000 -15.957 -21.826  0.00  0.00    +0.015 C 
ATOM     27  C   UNL     1      33.662 -14.332 -23.021  0.00  0.00    +0.153 C 
ATOM     28  C   UNL     1      35.099 -15.845 -24.239  0.00  0.00    +0.001 C 
ATOM     29  C   UNL     1      34.167 -14.807 -24.233  0.00  0.00    +0.038 C 
ATOM     30  C   UNL     1      32.554 -12.631 -21.869  0.00  0.00    +0.290 C 
ATOM     31  C   UNL     1      32.682 -13.387 -20.557  0.00  0.00    +0.271 C 
ATOM     32  H   UNL     1      33.761 -14.940 -19.781  0.00  0.00    +0.155 HD
ENDBRANCH  20  24
ENDBRANCH  17  20
ENDBRANCH  14  18
BRANCH   5  33
ATOM     33  C   UNL     1      32.954 -22.705 -16.153  0.00  0.00    +0.089 C 
BRANCH  33  36
ATOM     34  O   UNL     1      31.151 -24.194 -15.507  0.00  0.00    -0.275 OA
ATOM     35  N   UNL     1      30.819 -22.709 -17.231  0.00  0.00    -0.329 N 
ATOM     36  C   UNL     1      31.569 -23.297 -16.236  0.00  0.00    +0.220 C 
ATOM     37  H   UNL     1      29.894 -23.004 -17.391  0.00  0.00    +0.145 HD
ATOM     38  H   UNL     1      31.209 -21.993 -17.783  0.00  0.00    +0.145 HD
ENDBRANCH  33  36
ENDBRANCH   5  33
TORSDOF 5
ENDMDL
MODEL 5
REMARK VINA RESULT:     -11.5      3.470     11.582
REMARK  Name = 25174099
REMARK  5 active torsions:
REMARK  status: ('A' for Active; 'I' for Inactive)
REMARK    1  A    between atoms: C_5  and  C_33
REMARK    2  A    between atoms: C_14  and  C_18
REMARK    3  A    between atoms: N_17  and  C_20
REMARK    4  A    between atoms: C_20  and  C_24
REMARK    5  A    between atoms: C_33  and  C_36
REMARK                            x       y       z     vdW  Elec       q    Type
REMARK                         _______ _______ _______ _____ _____    ______ ____
ROOT
ATOM      1  S   UNL     1      32.676 -13.062 -21.377  0.00  0.00    -0.064 S 
ATOM      2  O   UNL     1      34.029 -11.502 -25.867  0.00  0.00    -0.274 OA
ATOM      3  N   UNL     1      33.809 -14.657 -23.204  0.00  0.00    -0.379 NA
ATOM      4  N   UNL     1      34.401 -13.717 -25.322  0.00  0.00    -0.255 N 
ATOM      5  C   UNL     1      32.780  -9.715 -23.612  0.00  0.00    +0.028 C 
ATOM      6  C   UNL     1      31.732  -8.889 -22.826  0.00  0.00    +0.005 C 
ATOM      7  C   UNL     1      32.876 -11.117 -23.061  0.00  0.00    -0.027 C 
ATOM      8  C   UNL     1      31.894  -9.033 -21.306  0.00  0.00    +0.006 C 
ATOM      9  C   UNL     1      31.735 -10.490 -20.851  0.00  0.00    +0.032 C 
ATOM     10  C   UNL     1      32.425 -11.430 -21.790  0.00  0.00    +0.002 C 
ATOM     11  C   UNL     1      33.410 -12.279 -23.712  0.00  0.00    +0.154 C 
ATOM     12  C   UNL     1      33.372 -13.402 -22.897  0.00  0.00    +0.152 C 
ATOM     13  C   UNL     1      33.964 -12.421 -25.056  0.00  0.00    +0.239 C 
ATOM     14  C   UNL     1      34.303 -14.749 -24.400  0.00  0.00    +0.240 C 
ATOM     15  H   UNL     1      34.796 -13.910 -26.203  0.00  0.00    +0.157 HD
ENDROOT
BRANCH  14  18
ATOM     16  O   UNL     1      34.885 -16.249 -26.073  0.00  0.00    -0.266 OA
ATOM     17  N   UNL     1      35.163 -16.908 -23.839  0.00  0.00    -0.294 N 
ATOM     18  C   UNL     1      34.818 -16.057 -24.866  0.00  0.00    +0.290 C 
ATOM     19  H   UNL     1      35.047 -16.596 -22.913  0.00  0.00    +0.150 HD
BRANCH  17  20
ATOM     20  C   UNL     1      35.689 -18.236 -24.057  0.00  0.00    +0.117 C 
BRANCH  20  24
ATOM     21  O   UNL     1      36.219 -21.079 -19.196  0.00  0.00    -0.464 OA
ATOM     22  O   UNL     1      32.884 -22.438 -18.892  0.00  0.00    -0.271 OA
ATOM     23  N   UNL     1      33.738 -21.098 -20.555  0.00  0.00    -0.279 N 
ATOM     24  C   UNL     1      35.816 -19.006 -22.775  0.00  0.00    -0.001 C 
ATOM     25  C   UNL     1      34.845 -20.425 -21.081  0.00  0.00    +0.085 C 
ATOM     26  C   UNL     1      34.719 -19.705 -22.271  0.00  0.00    +0.015 C 
ATOM     27  C   UNL     1      36.057 -20.440 -20.393  0.00  0.00    +0.153 C 
ATOM     28  C   UNL     1      37.029 -19.017 -22.085  0.00  0.00    +0.001 C 
ATOM     29  C   UNL     1      37.148 -19.727 -20.891  0.00  0.00    +0.038 C 
ATOM     30  C   UNL     1      35.265 -22.095 -18.949  0.00  0.00    +0.290 C 
ATOM     31  C   UNL     1      33.840 -21.883 -19.430  0.00  0.00    +0.271 C 
ATOM     32  H   UNL     1      32.864 -21.007 -20.999  0.00  0.00    +0.155 HD
ENDBRANCH  20  24
ENDBRANCH  17  20
ENDBRANCH  14  18
BRANCH   5  33
ATOM     33  C   UNL     1      34.145  -9.017 -23.592  0.00  0.00    +0.089 C 
BRANCH  33  36
ATOM     34  O   UNL     1      33.532  -6.907 -24.620  0.00  0.00    -0.275 OA
ATOM     35  N   UNL     1      34.498  -6.902 -22.532  0.00  0.00    -0.329 N 
ATOM     36  C   UNL     1      34.013  -7.515 -23.667  0.00  0.00    +0.220 C 
ATOM     37  H   UNL     1      34.471  -5.921 -22.453  0.00  0.00    +0.145 HD
ATOM     38  H   UNL     1      34.872  -7.444 -21.801  0.00  0.00    +0.145 HD
ENDBRANCH  33  36
ENDBRANCH   5  33
TORSDOF 5
ENDMDL
MODEL 6
REMARK VINA RESULT:     -11.3      2.275      3.039
REMARK  Name = 25174099
REMARK  5 active torsions:
REMARK  status: ('A' for Active; 'I' for Inactive)
REMARK    1  A    between atoms: C_5  and  C_33
REMARK    2  A    between atoms: C_14  and  C_18
REMARK    3  A    between atoms: N_17  and  C_20
REMARK    4  A    between atoms: C_20  and  C_24
REMARK    5  A    between atoms: C_33  and  C_36
REMARK                            x       y       z     vdW  Elec       q    Type
REMARK                         _______ _______ _______ _____ _____    ______ ____
ROOT
ATOM      1  S   UNL     1      33.327 -22.777 -18.375  0.00  0.00    -0.064 S 
ATOM      2  O   UNL     1      37.890 -21.633 -16.864  0.00  0.00    -0.274 OA
ATOM      3  N   UNL     1      35.034 -21.324 -19.838  0.00  0.00    -0.379 NA
ATOM      4  N   UNL     1      37.205 -20.877 -18.938  0.00  0.00    -0.255 N 
ATOM      5  C   UNL     1      35.833 -23.399 -15.287  0.00  0.00    +0.028 C 
ATOM      6  C   UNL     1      34.782 -23.808 -14.226  0.00  0.00    +0.005 C 
ATOM      7  C   UNL     1      35.159 -22.975 -16.570  0.00  0.00    -0.027 C 
ATOM      8  C   UNL     1      33.710 -24.748 -14.796  0.00  0.00    +0.006 C 
ATOM      9  C   UNL     1      32.937 -24.098 -15.950  0.00  0.00    +0.032 C 
ATOM     10  C   UNL     1      33.854 -23.337 -16.858  0.00  0.00    +0.002 C 
ATOM     11  C   UNL     1      35.713 -22.181 -17.628  0.00  0.00    +0.154 C 
ATOM     12  C   UNL     1      34.821 -22.011 -18.679  0.00  0.00    +0.152 C 
ATOM     13  C   UNL     1      37.031 -21.563 -17.737  0.00  0.00    +0.239 C 
ATOM     14  C   UNL     1      36.217 -20.795 -19.908  0.00  0.00    +0.240 C 
ATOM     15  H   UNL     1      38.067 -20.432 -19.106  0.00  0.00    +0.157 HD
ENDROOT
BRANCH  14  18
ATOM     16  O   UNL     1      37.757 -19.688 -21.246  0.00  0.00    -0.266 OA
ATOM     17  N   UNL     1      35.522 -19.771 -21.953  0.00  0.00    -0.294 N 
ATOM     18  C   UNL     1      36.586 -20.020 -21.114  0.00  0.00    +0.290 C 
ATOM     19  H   UNL     1      34.635 -20.113 -21.699  0.00  0.00    +0.150 HD
BRANCH  17  20
ATOM     20  C   UNL     1      35.647 -19.034 -23.190  0.00  0.00    +0.117 C 
BRANCH  20  24
ATOM     21  O   UNL     1      34.440 -13.556 -22.462  0.00  0.00    -0.464 OA
ATOM     22  O   UNL     1      33.859 -12.576 -25.891  0.00  0.00    -0.271 OA
ATOM     23  N   UNL     1      34.432 -14.647 -25.072  0.00  0.00    -0.279 N 
ATOM     24  C   UNL     1      35.312 -17.581 -23.014  0.00  0.00    -0.001 C 
ATOM     25  C   UNL     1      34.696 -15.447 -23.956  0.00  0.00    +0.085 C 
ATOM     26  C   UNL     1      35.014 -16.795 -24.127  0.00  0.00    +0.015 C 
ATOM     27  C   UNL     1      34.686 -14.883 -22.681  0.00  0.00    +0.153 C 
ATOM     28  C   UNL     1      35.306 -17.018 -21.737  0.00  0.00    +0.001 C 
ATOM     29  C   UNL     1      35.000 -15.667 -21.570  0.00  0.00    +0.038 C 
ATOM     30  C   UNL     1      33.740 -12.916 -23.512  0.00  0.00    +0.290 C 
ATOM     31  C   UNL     1      34.037 -13.336 -24.942  0.00  0.00    +0.271 C 
ATOM     32  H   UNL     1      34.530 -15.032 -25.972  0.00  0.00    +0.155 HD
ENDBRANCH  20  24
ENDBRANCH  17  20
ENDBRANCH  14  18
BRANCH   5  33
ATOM     33  C   UNL     1      36.826 -24.541 -15.535  0.00  0.00    +0.089 C 
BRANCH  33  36
ATOM     34  O   UNL     1      38.356 -24.008 -13.729  0.00  0.00    -0.275 OA
ATOM     35  N   UNL     1      39.187 -24.326 -15.850  0.00  0.00    -0.329 N 
ATOM     36  C   UNL     1      38.174 -24.262 -14.918  0.00  0.00    +0.220 C 
ATOM     37  H   UNL     1      40.119 -24.163 -15.577  0.00  0.00    +0.145 HD
ATOM     38  H   UNL     1      38.979 -24.534 -16.789  0.00  0.00    +0.145 HD
ENDBRANCH  33  36
ENDBRANCH   5  33
TORSDOF 5
ENDMDL
MODEL 7
REMARK VINA RESULT:     -11.1      2.683     10.082
REMARK  Name = 25174099
REMARK  5 active torsions:
REMARK  status: ('A' for Active; 'I' for Inactive)
REMARK    1  A    between atoms: C_5  and  C_33
REMARK    2  A    between atoms: C_14  and  C_18
REMARK    3  A    between atoms: N_17  and  C_20
REMARK    4  A    between atoms: C_20  and  C_24
REMARK    5  A    between atoms: C_33  and  C_36
REMARK                            x       y       z     vdW  Elec       q    Type
REMARK                         _______ _______ _______ _____ _____    ______ ____
ROOT
ATOM      1  S   UNL     1      34.964 -17.108 -25.299  0.00  0.00    -0.064 S 
ATOM      2  O   UNL     1      34.995 -14.945 -20.856  0.00  0.00    -0.274 OA
ATOM      3  N   UNL     1      35.856 -18.320 -23.085  0.00  0.00    -0.379 NA
ATOM      4  N   UNL     1      35.786 -17.111 -21.022  0.00  0.00    -0.255 N 
ATOM      5  C   UNL     1      33.895 -13.668 -23.501  0.00  0.00    +0.028 C 
ATOM      6  C   UNL     1      33.824 -12.770 -24.761  0.00  0.00    +0.005 C 
ATOM      7  C   UNL     1      34.406 -15.044 -23.855  0.00  0.00    -0.027 C 
ATOM      8  C   UNL     1      33.157 -13.480 -25.948  0.00  0.00    +0.006 C 
ATOM      9  C   UNL     1      33.919 -14.748 -26.356  0.00  0.00    +0.032 C 
ATOM     10  C   UNL     1      34.371 -15.519 -25.154  0.00  0.00    +0.002 C 
ATOM     11  C   UNL     1      34.975 -16.020 -22.971  0.00  0.00    +0.154 C 
ATOM     12  C   UNL     1      35.309 -17.195 -23.630  0.00  0.00    +0.152 C 
ATOM     13  C   UNL     1      35.232 -15.939 -21.535  0.00  0.00    +0.239 C 
ATOM     14  C   UNL     1      36.063 -18.220 -21.808  0.00  0.00    +0.240 C 
ATOM     15  H   UNL     1      35.988 -17.154 -20.060  0.00  0.00    +0.157 HD
ENDROOT
BRANCH  14  18
ATOM     16  O   UNL     1      37.608 -19.154 -20.349  0.00  0.00    -0.266 OA
ATOM     17  N   UNL     1      36.021 -20.565 -21.347  0.00  0.00    -0.294 N 
ATOM     18  C   UNL     1      36.653 -19.369 -21.084  0.00  0.00    +0.290 C 
ATOM     19  H   UNL     1      35.259 -20.565 -21.969  0.00  0.00    +0.150 HD
BRANCH  17  20
ATOM     20  C   UNL     1      36.424 -21.818 -20.751  0.00  0.00    +0.117 C 
BRANCH  20  24
ATOM     21  O   UNL     1      33.789 -22.751 -15.834  0.00  0.00    -0.464 OA
ATOM     22  O   UNL     1      30.369 -22.974 -16.982  0.00  0.00    -0.271 OA
ATOM     23  N   UNL     1      32.273 -22.600 -18.218  0.00  0.00    -0.279 N 
ATOM     24  C   UNL     1      35.710 -22.079 -19.457  0.00  0.00    -0.001 C 
ATOM     25  C   UNL     1      33.666 -22.482 -18.239  0.00  0.00    +0.085 C 
ATOM     26  C   UNL     1      34.323 -22.232 -19.445  0.00  0.00    +0.015 C 
ATOM     27  C   UNL     1      34.387 -22.568 -17.049  0.00  0.00    +0.153 C 
ATOM     28  C   UNL     1      36.433 -22.161 -18.266  0.00  0.00    +0.001 C 
ATOM     29  C   UNL     1      35.772 -22.398 -17.061  0.00  0.00    +0.038 C 
ATOM     30  C   UNL     1      32.494 -23.318 -15.906  0.00  0.00    +0.290 C 
ATOM     31  C   UNL     1      31.595 -22.925 -17.066  0.00  0.00    +0.271 C 
ATOM     32  H   UNL     1      31.765 -22.448 -19.047  0.00  0.00    +0.155 HD
ENDBRANCH  20  24
ENDBRANCH  17  20
ENDBRANCH  14  18
BRANCH   5  33
ATOM     33  C   UNL     1      32.527 -13.745 -22.813  0.00  0.00    +0.089 C 
BRANCH  33  36
ATOM     34  O   UNL     1      32.233 -11.523 -21.887  0.00  0.00    -0.275 OA
ATOM     35  N   UNL     1      32.468 -13.312 -20.461  0.00  0.00    -0.329 N 
ATOM     36  C   UNL     1      32.392 -12.727 -21.707  0.00  0.00    +0.220 C 
ATOM     37  H   UNL     1      32.394 -12.757 -19.652  0.00  0.00    +0.145 HD
ATOM     38  H   UNL     1      32.596 -14.284 -20.381  0.00  0.00    +0.145 HD
ENDBRANCH  33  36
ENDBRANCH   5  33
TORSDOF 5
ENDMDL
MODEL 8
REMARK VINA RESULT:     -10.9      3.376     10.744
REMARK  Name = 25174099
REMARK  5 active torsions:
REMARK  status: ('A' for Active; 'I' for Inactive)
REMARK    1  A    between atoms: C_5  and  C_33
REMARK    2  A    between atoms: C_14  and  C_18
REMARK    3  A    between atoms: N_17  and  C_20
REMARK    4  A    between atoms: C_20  and  C_24
REMARK    5  A    between atoms: C_33  and  C_36
REMARK                            x       y       z     vdW  Elec       q    Type
REMARK                         _______ _______ _______ _____ _____    ______ ____
ROOT
ATOM      1  S   UNL     1      34.115 -12.196 -25.122  0.00  0.00    -0.064 S 
ATOM      2  O   UNL     1      33.542 -13.661 -20.438  0.00  0.00    -0.274 OA
ATOM      3  N   UNL     1      34.782 -14.641 -24.258  0.00  0.00    -0.379 NA
ATOM      4  N   UNL     1      34.425 -15.167 -21.953  0.00  0.00    -0.255 N 
ATOM      5  C   UNL     1      32.717 -10.863 -21.590  0.00  0.00    +0.028 C 
ATOM      6  C   UNL     1      32.763  -9.345 -21.891  0.00  0.00    +0.005 C 
ATOM      7  C   UNL     1      33.316 -11.651 -22.730  0.00  0.00    -0.027 C 
ATOM      8  C   UNL     1      32.267  -9.013 -23.306  0.00  0.00    +0.006 C 
ATOM      9  C   UNL     1      33.117  -9.699 -24.383  0.00  0.00    +0.032 C 
ATOM     10  C   UNL     1      33.452 -11.107 -23.996  0.00  0.00    +0.002 C 
ATOM     11  C   UNL     1      33.811 -12.997 -22.699  0.00  0.00    +0.154 C 
ATOM     12  C   UNL     1      34.264 -13.420 -23.942  0.00  0.00    +0.152 C 
ATOM     13  C   UNL     1      33.894 -13.933 -21.581  0.00  0.00    +0.239 C 
ATOM     14  C   UNL     1      34.834 -15.452 -23.247  0.00  0.00    +0.240 C 
ATOM     15  H   UNL     1      34.514 -15.867 -21.266  0.00  0.00    +0.157 HD
ENDROOT
BRANCH  14  18
ATOM     16  O   UNL     1      35.470 -17.232 -24.594  0.00  0.00    -0.266 OA
ATOM     17  N   UNL     1      35.710 -17.451 -22.271  0.00  0.00    -0.294 N 
ATOM     18  C   UNL     1      35.375 -16.816 -23.447  0.00  0.00    +0.290 C 
ATOM     19  H   UNL     1      35.570 -16.971 -21.424  0.00  0.00    +0.150 HD
BRANCH  17  20
ATOM     20  C   UNL     1      36.258 -18.787 -22.224  0.00  0.00    +0.117 C 
BRANCH  20  24
ATOM     21  O   UNL     1      32.967 -22.314 -19.270  0.00  0.00    -0.464 OA
ATOM     22  O   UNL     1      35.397 -23.659 -16.958  0.00  0.00    -0.271 OA
ATOM     23  N   UNL     1      35.714 -22.108 -18.627  0.00  0.00    -0.279 N 
ATOM     24  C   UNL     1      35.396 -19.719 -21.422  0.00  0.00    -0.001 C 
ATOM     25  C   UNL     1      35.149 -21.328 -19.640  0.00  0.00    +0.085 C 
ATOM     26  C   UNL     1      35.957 -20.469 -20.388  0.00  0.00    +0.015 C 
ATOM     27  C   UNL     1      33.790 -21.445 -19.930  0.00  0.00    +0.153 C 
ATOM     28  C   UNL     1      34.037 -19.837 -21.715  0.00  0.00    +0.001 C 
ATOM     29  C   UNL     1      33.235 -20.706 -20.975  0.00  0.00    +0.038 C 
ATOM     30  C   UNL     1      33.445 -22.712 -17.999  0.00  0.00    +0.290 C 
ATOM     31  C   UNL     1      34.941 -22.906 -17.816  0.00  0.00    +0.271 C 
ATOM     32  H   UNL     1      36.688 -22.086 -18.490  0.00  0.00    +0.155 HD
ENDBRANCH  20  24
ENDBRANCH  17  20
ENDBRANCH  14  18
BRANCH   5  33
ATOM     33  C   UNL     1      31.281 -11.315 -21.299  0.00  0.00    +0.089 C 
BRANCH  33  36
ATOM     34  O   UNL     1      30.102 -10.442 -19.367  0.00  0.00    -0.275 OA
ATOM     35  N   UNL     1      31.688 -12.081 -19.070  0.00  0.00    -0.329 N 
ATOM     36  C   UNL     1      30.941 -11.209 -19.833  0.00  0.00    +0.220 C 
ATOM     37  H   UNL     1      31.563 -12.112 -18.094  0.00  0.00    +0.145 HD
ATOM     38  H   UNL     1      32.347 -12.672 -19.501  0.00  0.00    +0.145 HD
ENDBRANCH  33  36
ENDBRANCH   5  33
TORSDOF 5
ENDMDL
MODEL 9
REMARK VINA RESULT:     -10.9      3.710     10.801
REMARK  Name = 25174099
REMARK  5 active torsions:
REMARK  status: ('A' for Active; 'I' for Inactive)
REMARK    1  A    between atoms: C_5  and  C_33
REMARK    2  A    between atoms: C_14  and  C_18
REMARK    3  A    between atoms: N_17  and  C_20
REMARK    4  A    between atoms: C_20  and  C_24
REMARK    5  A    between atoms: C_33  and  C_36
REMARK                            x       y       z     vdW  Elec       q    Type
REMARK                         _______ _______ _______ _____ _____    ______ ____
ROOT
ATOM      1  S   UNL     1      33.775 -11.117 -25.259  0.00  0.00    -0.064 S 
ATOM      2  O   UNL     1      33.289 -13.518 -20.967  0.00  0.00    -0.274 OA
ATOM      3  N   UNL     1      34.378 -13.707 -24.951  0.00  0.00    -0.379 NA
ATOM      4  N   UNL     1      34.071 -14.696 -22.795  0.00  0.00    -0.255 N 
ATOM      5  C   UNL     1      32.532 -10.517 -21.477  0.00  0.00    +0.028 C 
ATOM      6  C   UNL     1      32.624  -8.971 -21.455  0.00  0.00    +0.005 C 
ATOM      7  C   UNL     1      33.068 -11.065 -22.778  0.00  0.00    -0.027 C 
ATOM      8  C   UNL     1      32.099  -8.335 -22.750  0.00  0.00    +0.006 C 
ATOM      9  C   UNL     1      32.891  -8.804 -23.977  0.00  0.00    +0.032 C 
ATOM     10  C   UNL     1      33.186 -10.270 -23.906  0.00  0.00    +0.002 C 
ATOM     11  C   UNL     1      33.515 -12.401 -23.047  0.00  0.00    +0.154 C 
ATOM     12  C   UNL     1      33.914 -12.566 -24.367  0.00  0.00    +0.152 C 
ATOM     13  C   UNL     1      33.597 -13.553 -22.154  0.00  0.00    +0.239 C 
ATOM     14  C   UNL     1      34.430 -14.714 -24.134  0.00  0.00    +0.240 C 
ATOM     15  H   UNL     1      34.155 -15.528 -22.274  0.00  0.00    +0.157 HD
ENDROOT
BRANCH  14  18
ATOM     16  O   UNL     1      35.000 -16.174 -25.847  0.00  0.00    -0.266 OA
ATOM     17  N   UNL     1      35.215 -16.916 -23.632  0.00  0.00    -0.294 N 
ATOM     18  C   UNL     1      34.915 -16.021 -24.635  0.00  0.00    +0.290 C 
ATOM     19  H   UNL     1      35.090 -16.631 -22.698  0.00  0.00    +0.150 HD
BRANCH  17  20
ATOM     20  C   UNL     1      35.707 -18.251 -23.886  0.00  0.00    +0.117 C 
BRANCH  20  24
ATOM     21  O   UNL     1      36.199 -21.222 -19.098  0.00  0.00    -0.464 OA
ATOM     22  O   UNL     1      32.831 -22.498 -18.797  0.00  0.00    -0.271 OA
ATOM     23  N   UNL     1      33.707 -21.142 -20.435  0.00  0.00    -0.279 N 
ATOM     24  C   UNL     1      35.823 -19.055 -22.623  0.00  0.00    -0.001 C 
ATOM     25  C   UNL     1      34.828 -20.487 -20.955  0.00  0.00    +0.085 C 
ATOM     26  C   UNL     1      34.711 -19.736 -22.126  0.00  0.00    +0.015 C 
ATOM     27  C   UNL     1      36.044 -20.551 -20.278  0.00  0.00    +0.153 C 
ATOM     28  C   UNL     1      37.041 -19.114 -21.945  0.00  0.00    +0.001 C 
ATOM     29  C   UNL     1      37.151 -19.856 -20.768  0.00  0.00    +0.038 C 
ATOM     30  C   UNL     1      35.220 -22.218 -18.866  0.00  0.00    +0.290 C 
ATOM     31  C   UNL     1      33.797 -21.957 -19.330  0.00  0.00    +0.271 C 
ATOM     32  H   UNL     1      32.833 -21.018 -20.870  0.00  0.00    +0.155 HD
ENDBRANCH  20  24
ENDBRANCH  17  20
ENDBRANCH  14  18
BRANCH   5  33
ATOM     33  C   UNL     1      31.090 -10.977 -21.234  0.00  0.00    +0.089 C 
BRANCH  33  36
ATOM     34  O   UNL     1      29.808 -10.772 -19.185  0.00  0.00    -0.275 OA
ATOM     35  N   UNL     1      31.800 -11.920 -19.153  0.00  0.00    -0.329 N 
ATOM     36  C   UNL     1      30.805 -11.192 -19.768  0.00  0.00    +0.220 C 
ATOM     37  H   UNL     1      31.736 -12.131 -18.194  0.00  0.00    +0.145 HD
ATOM     38  H   UNL     1      32.576 -12.230 -19.674  0.00  0.00    +0.145 HD
ENDBRANCH  33  36
ENDBRANCH   5  33
TORSDOF 5
ENDMDL
