MODEL 1
REMARK VINA RESULT:     -13.4      0.000      0.000
REMARK  Name = 25171648
REMARK  8 active torsions:
REMARK  status: ('A' for Active; 'I' for Inactive)
REMARK    1  A    between atoms: C_1  and  C_12
REMARK    2  A    between atoms: C_2  and  C_23
REMARK    3  A    between atoms: C_9  and  O_13
REMARK    4  A    between atoms: O_13  and  C_14
REMARK    5  A    between atoms: C_14  and  C_16
REMARK    6  A    between atoms: C_23  and  N_25
REMARK    7  A    between atoms: C_27  and  C_31
REMARK    8  A    between atoms: C_34  and  C_38
REMARK                            x       y       z     vdW  Elec       q    Type
REMARK                         _______ _______ _______ _____ _____    ______ ____
ROOT
ATOM      1  C   UNL     1      35.649 -20.472 -20.541  0.00  0.00    +0.062 C 
ATOM      2  C   UNL     1      34.616 -22.226 -19.239  0.00  0.00    +0.000 C 
ATOM      3  C   UNL     1      34.556 -21.300 -20.281  0.00  0.00    +0.007 C 
ATOM      4  C   UNL     1      36.800 -20.572 -19.760  0.00  0.00    +0.010 C 
ATOM      5  C   UNL     1      35.767 -22.324 -18.458  0.00  0.00    -0.003 C 
ATOM      6  C   UNL     1      36.860 -21.498 -18.719  0.00  0.00    +0.000 C 
ENDROOT
BRANCH   1  12
ATOM      7  N   UNL     1      36.135 -18.310 -21.380  0.00  0.00    -0.212 NA
ATOM      8  N   UNL     1      34.989 -19.926 -22.751  0.00  0.00    -0.190 NA
ATOM      9  C   UNL     1      35.473 -17.735 -23.622  0.00  0.00    +0.161 C 
ATOM     10  C   UNL     1      36.059 -17.440 -22.408  0.00  0.00    +0.201 C 
ATOM     11  C   UNL     1      34.950 -19.007 -23.738  0.00  0.00    +0.144 C 
ATOM     12  C   UNL     1      35.587 -19.517 -21.616  0.00  0.00    +0.031 C 
BRANCH   9  13
ATOM     13  O   UNL     1      35.415 -16.824 -24.648  0.00  0.00    -0.476 OA
BRANCH  13  14
ATOM     14  C   UNL     1      34.146 -16.583 -25.224  0.00  0.00    +0.205 C 
BRANCH  14  16
ATOM     15  N   UNL     1      34.532 -12.307 -24.754  0.00  0.00    +0.386 N 
ATOM     16  C   UNL     1      33.764 -15.128 -24.967  0.00  0.00    +0.040 C 
ATOM     17  C   UNL     1      34.053 -14.259 -26.196  0.00  0.00    -0.019 C 
ATOM     18  C   UNL     1      34.508 -14.568 -23.751  0.00  0.00    -0.019 C 
ATOM     19  C   UNL     1      33.766 -12.782 -25.914  0.00  0.00    -0.077 C 
ATOM     20  C   UNL     1      34.206 -13.082 -23.549  0.00  0.00    -0.077 C 
ATOM     21  C   UNL     1      34.287 -10.882 -24.528  0.00  0.00    -0.101 C 
ATOM     22  H   UNL     1      35.523 -12.440 -24.955  0.00  0.00    -0.080 HD
ENDBRANCH  14  16
ENDBRANCH  13  14
ENDBRANCH   9  13
ENDBRANCH   1  12
BRANCH   2  23
ATOM     23  C   UNL     1      33.448 -23.111 -18.959  0.00  0.00    +0.146 C 
BRANCH  23  25
ATOM     24  O   UNL     1      31.068 -22.226 -17.629  0.00  0.00    -0.268 OA
ATOM     25  N   UNL     1      33.167 -23.221 -17.537  0.00  0.00    -0.173 N 
ATOM     26  N   UNL     1      34.161 -23.798 -16.801  0.00  0.00    -0.175 NA
ATOM     27  C   UNL     1      33.984 -23.923 -15.525  0.00  0.00    +0.099 C 
ATOM     28  C   UNL     1      31.977 -22.761 -16.993  0.00  0.00    +0.268 C 
ATOM     29  C   UNL     1      32.766 -23.506 -14.806  0.00  0.00    +0.025 C 
ATOM     30  C   UNL     1      31.806 -22.943 -15.536  0.00  0.00    +0.061 C 
BRANCH  27  31
ATOM     31  C   UNL     1      35.062 -24.545 -14.711  0.00  0.00    +0.020 C 
ATOM     32  C   UNL     1      35.139 -24.289 -13.342  0.00  0.00    +0.012 C 
ATOM     33  C   UNL     1      35.996 -25.386 -15.317  0.00  0.00    +0.002 C 
ATOM     34  C   UNL     1      36.151 -24.874 -12.579  0.00  0.00    +0.068 C 
ATOM     35  C   UNL     1      37.008 -25.971 -14.554  0.00  0.00    +0.001 C 
ATOM     36  C   UNL     1      37.085 -25.715 -13.185  0.00  0.00    +0.010 C 
BRANCH  34  38
ATOM     37  N   UNL     1      36.297 -24.399 -10.037  0.00  0.00    -0.191 NA
ATOM     38  C   UNL     1      36.231 -24.612 -11.176  0.00  0.00    +0.100 C 
ENDBRANCH  34  38
ENDBRANCH  27  31
ENDBRANCH  23  25
ENDBRANCH   2  23
TORSDOF 8
ENDMDL
MODEL 2
REMARK VINA RESULT:     -13.4      1.390      1.930
REMARK  Name = 25171648
REMARK  8 active torsions:
REMARK  status: ('A' for Active; 'I' for Inactive)
REMARK    1  A    between atoms: C_1  and  C_12
REMARK    2  A    between atoms: C_2  and  C_23
REMARK    3  A    between atoms: C_9  and  O_13
REMARK    4  A    between atoms: O_13  and  C_14
REMARK    5  A    between atoms: C_14  and  C_16
REMARK    6  A    between atoms: C_23  and  N_25
REMARK    7  A    between atoms: C_27  and  C_31
REMARK    8  A    between atoms: C_34  and  C_38
REMARK                            x       y       z     vdW  Elec       q    Type
REMARK                         _______ _______ _______ _____ _____    ______ ____
ROOT
ATOM      1  C   UNL     1      35.522 -19.870 -20.968  0.00  0.00    +0.062 C 
ATOM      2  C   UNL     1      34.432 -21.648 -19.748  0.00  0.00    +0.000 C 
ATOM      3  C   UNL     1      34.358 -20.543 -20.598  0.00  0.00    +0.007 C 
ATOM      4  C   UNL     1      36.759 -20.299 -20.487  0.00  0.00    +0.010 C 
ATOM      5  C   UNL     1      35.669 -22.077 -19.268  0.00  0.00    -0.003 C 
ATOM      6  C   UNL     1      36.832 -21.404 -19.639  0.00  0.00    +0.000 C 
ENDROOT
BRANCH   1  12
ATOM      7  N   UNL     1      35.408 -18.990 -23.165  0.00  0.00    -0.212 NA
ATOM      8  N   UNL     1      35.419 -17.519 -21.256  0.00  0.00    -0.190 NA
ATOM      9  C   UNL     1      35.303 -16.605 -23.480  0.00  0.00    +0.161 C 
ATOM     10  C   UNL     1      35.336 -17.900 -23.957  0.00  0.00    +0.201 C 
ATOM     11  C   UNL     1      35.346 -16.475 -22.107  0.00  0.00    +0.144 C 
ATOM     12  C   UNL     1      35.446 -18.730 -21.845  0.00  0.00    +0.031 C 
BRANCH   9  13
ATOM     13  O   UNL     1      35.229 -15.519 -24.317  0.00  0.00    -0.476 OA
BRANCH  13  14
ATOM     14  C   UNL     1      33.961 -14.911 -24.472  0.00  0.00    +0.205 C 
BRANCH  14  16
ATOM     15  N   UNL     1      32.823 -10.878 -23.427  0.00  0.00    +0.386 N 
ATOM     16  C   UNL     1      33.995 -13.539 -23.807  0.00  0.00    +0.040 C 
ATOM     17  C   UNL     1      32.738 -13.306 -22.961  0.00  0.00    -0.019 C 
ATOM     18  C   UNL     1      34.131 -12.424 -24.849  0.00  0.00    -0.019 C 
ATOM     19  C   UNL     1      32.716 -11.894 -22.371  0.00  0.00    -0.077 C 
ATOM     20  C   UNL     1      34.064 -11.041 -24.196  0.00  0.00    -0.077 C 
ATOM     21  C   UNL     1      32.750  -9.534 -22.852  0.00  0.00    -0.101 C 
ATOM     22  H   UNL     1      32.038 -11.004 -24.065  0.00  0.00    -0.080 HD
ENDBRANCH  14  16
ENDBRANCH  13  14
ENDBRANCH   9  13
ENDBRANCH   1  12
BRANCH   2  23
ATOM     23  C   UNL     1      33.187 -22.369 -19.351  0.00  0.00    +0.146 C 
BRANCH  23  25
ATOM     24  O   UNL     1      30.904 -22.381 -17.619  0.00  0.00    -0.268 OA
ATOM     25  N   UNL     1      33.180 -22.723 -17.942  0.00  0.00    -0.173 N 
ATOM     26  N   UNL     1      34.399 -23.067 -17.432  0.00  0.00    -0.175 NA
ATOM     27  C   UNL     1      34.471 -23.388 -16.181  0.00  0.00    +0.099 C 
ATOM     28  C   UNL     1      32.014 -22.698 -17.191  0.00  0.00    +0.268 C 
ATOM     29  C   UNL     1      33.318 -23.434 -15.262  0.00  0.00    +0.025 C 
ATOM     30  C   UNL     1      32.136 -23.094 -15.773  0.00  0.00    +0.061 C 
BRANCH  27  31
ATOM     31  C   UNL     1      35.795 -23.760 -15.612  0.00  0.00    +0.020 C 
ATOM     32  C   UNL     1      35.870 -24.649 -14.540  0.00  0.00    +0.012 C 
ATOM     33  C   UNL     1      36.962 -23.220 -16.153  0.00  0.00    +0.002 C 
ATOM     34  C   UNL     1      37.112 -24.997 -14.009  0.00  0.00    +0.068 C 
ATOM     35  C   UNL     1      38.204 -23.568 -15.622  0.00  0.00    +0.001 C 
ATOM     36  C   UNL     1      38.279 -24.457 -14.550  0.00  0.00    +0.010 C 
BRANCH  34  38
ATOM     37  N   UNL     1      37.252 -26.646 -12.017  0.00  0.00    -0.191 NA
ATOM     38  C   UNL     1      37.189 -25.907 -12.910  0.00  0.00    +0.100 C 
ENDBRANCH  34  38
ENDBRANCH  27  31
ENDBRANCH  23  25
ENDBRANCH   2  23
TORSDOF 8
ENDMDL
MODEL 3
REMARK VINA RESULT:     -13.3      1.198      1.920
REMARK  Name = 25171648
REMARK  8 active torsions:
REMARK  status: ('A' for Active; 'I' for Inactive)
REMARK    1  A    between atoms: C_1  and  C_12
REMARK    2  A    between atoms: C_2  and  C_23
REMARK    3  A    between atoms: C_9  and  O_13
REMARK    4  A    between atoms: O_13  and  C_14
REMARK    5  A    between atoms: C_14  and  C_16
REMARK    6  A    between atoms: C_23  and  N_25
REMARK    7  A    between atoms: C_27  and  C_31
REMARK    8  A    between atoms: C_34  and  C_38
REMARK                            x       y       z     vdW  Elec       q    Type
REMARK                         _______ _______ _______ _____ _____    ______ ____
ROOT
ATOM      1  C   UNL     1      35.709 -20.817 -20.189  0.00  0.00    +0.062 C 
ATOM      2  C   UNL     1      34.595 -22.467 -18.820  0.00  0.00    +0.000 C 
ATOM      3  C   UNL     1      34.600 -21.622 -19.931  0.00  0.00    +0.007 C 
ATOM      4  C   UNL     1      36.812 -20.855 -19.336  0.00  0.00    +0.010 C 
ATOM      5  C   UNL     1      35.698 -22.505 -17.968  0.00  0.00    -0.003 C 
ATOM      6  C   UNL     1      36.807 -21.700 -18.227  0.00  0.00    +0.000 C 
ENDROOT
BRANCH   1  12
ATOM      7  N   UNL     1      34.721 -20.120 -22.227  0.00  0.00    -0.212 NA
ATOM      8  N   UNL     1      36.713 -19.044 -21.401  0.00  0.00    -0.190 NA
ATOM      9  C   UNL     1      35.725 -18.321 -23.473  0.00  0.00    +0.161 C 
ATOM     10  C   UNL     1      34.757 -19.287 -23.288  0.00  0.00    +0.201 C 
ATOM     11  C   UNL     1      36.687 -18.244 -22.487  0.00  0.00    +0.144 C 
ATOM     12  C   UNL     1      35.714 -19.946 -21.336  0.00  0.00    +0.031 C 
BRANCH   9  13
ATOM     13  O   UNL     1      35.729 -17.489 -24.566  0.00  0.00    -0.476 OA
BRANCH  13  14
ATOM     14  C   UNL     1      34.509 -16.853 -24.896  0.00  0.00    +0.205 C 
BRANCH  14  16
ATOM     15  N   UNL     1      33.607 -12.713 -24.060  0.00  0.00    +0.386 N 
ATOM     16  C   UNL     1      34.694 -15.345 -24.758  0.00  0.00    +0.040 C 
ATOM     17  C   UNL     1      34.494 -14.896 -23.306  0.00  0.00    -0.019 C 
ATOM     18  C   UNL     1      33.727 -14.585 -25.672  0.00  0.00    -0.019 C 
ATOM     19  C   UNL     1      34.578 -13.374 -23.177  0.00  0.00    -0.077 C 
ATOM     20  C   UNL     1      33.837 -13.073 -25.465  0.00  0.00    -0.077 C 
ATOM     21  C   UNL     1      33.665 -11.261 -23.887  0.00  0.00    -0.101 C 
ATOM     22  H   UNL     1      32.676 -13.036 -23.800  0.00  0.00    -0.080 HD
ENDBRANCH  14  16
ENDBRANCH  13  14
ENDBRANCH   9  13
ENDBRANCH   1  12
BRANCH   2  23
ATOM     23  C   UNL     1      33.409 -23.328 -18.543  0.00  0.00    +0.146 C 
BRANCH  23  25
ATOM     24  O   UNL     1      30.954 -22.441 -17.360  0.00  0.00    -0.268 OA
ATOM     25  N   UNL     1      33.073 -23.367 -17.129  0.00  0.00    -0.173 N 
ATOM     26  N   UNL     1      34.052 -23.873 -16.322  0.00  0.00    -0.175 NA
ATOM     27  C   UNL     1      33.826 -23.931 -15.049  0.00  0.00    +0.099 C 
ATOM     28  C   UNL     1      31.850 -22.912 -16.660  0.00  0.00    +0.268 C 
ATOM     29  C   UNL     1      32.568 -23.511 -14.404  0.00  0.00    +0.025 C 
ATOM     30  C   UNL     1      31.624 -23.018 -15.203  0.00  0.00    +0.061 C 
BRANCH  27  31
ATOM     31  C   UNL     1      34.886 -24.475 -14.159  0.00  0.00    +0.020 C 
ATOM     32  C   UNL     1      35.965 -25.173 -14.703  0.00  0.00    +0.012 C 
ATOM     33  C   UNL     1      34.803 -24.286 -12.779  0.00  0.00    +0.002 C 
ATOM     34  C   UNL     1      36.959 -25.682 -13.867  0.00  0.00    +0.068 C 
ATOM     35  C   UNL     1      35.796 -24.795 -11.943  0.00  0.00    +0.001 C 
ATOM     36  C   UNL     1      36.875 -25.493 -12.487  0.00  0.00    +0.010 C 
BRANCH  34  38
ATOM     37  N   UNL     1      38.961 -26.979 -14.876  0.00  0.00    -0.191 NA
ATOM     38  C   UNL     1      38.063 -26.398 -14.424  0.00  0.00    +0.100 C 
ENDBRANCH  34  38
ENDBRANCH  27  31
ENDBRANCH  23  25
ENDBRANCH   2  23
TORSDOF 8
ENDMDL
MODEL 4
REMARK VINA RESULT:     -13.1      4.486      9.335
REMARK  Name = 25171648
REMARK  8 active torsions:
REMARK  status: ('A' for Active; 'I' for Inactive)
REMARK    1  A    between atoms: C_1  and  C_12
REMARK    2  A    between atoms: C_2  and  C_23
REMARK    3  A    between atoms: C_9  and  O_13
REMARK    4  A    between atoms: O_13  and  C_14
REMARK    5  A    between atoms: C_14  and  C_16
REMARK    6  A    between atoms: C_23  and  N_25
REMARK    7  A    between atoms: C_27  and  C_31
REMARK    8  A    between atoms: C_34  and  C_38
REMARK                            x       y       z     vdW  Elec       q    Type
REMARK                         _______ _______ _______ _____ _____    ______ ____
ROOT
ATOM      1  C   UNL     1      33.257 -12.622 -22.415  0.00  0.00    +0.062 C 
ATOM      2  C   UNL     1      34.571 -14.542 -23.069  0.00  0.00    +0.000 C 
ATOM      3  C   UNL     1      34.062 -13.274 -23.350  0.00  0.00    +0.007 C 
ATOM      4  C   UNL     1      32.961 -13.240 -21.200  0.00  0.00    +0.010 C 
ATOM      5  C   UNL     1      34.275 -15.159 -21.853  0.00  0.00    -0.003 C 
ATOM      6  C   UNL     1      33.471 -14.507 -20.918  0.00  0.00    +0.000 C 
ENDROOT
BRANCH   1  12
ATOM      7  N   UNL     1      31.631 -10.944 -22.026  0.00  0.00    -0.212 NA
ATOM      8  N   UNL     1      33.396 -10.590 -23.627  0.00  0.00    -0.190 NA
ATOM      9  C   UNL     1      31.753  -8.872 -23.247  0.00  0.00    +0.161 C 
ATOM     10  C   UNL     1      31.166  -9.712 -22.322  0.00  0.00    +0.201 C 
ATOM     11  C   UNL     1      32.878  -9.369 -23.874  0.00  0.00    +0.144 C 
ATOM     12  C   UNL     1      32.732 -11.314 -22.705  0.00  0.00    +0.031 C 
BRANCH   9  13
ATOM     13  O   UNL     1      31.253  -7.624 -23.522  0.00  0.00    -0.476 OA
BRANCH  13  14
ATOM     14  C   UNL     1      31.412  -6.632 -22.526  0.00  0.00    +0.205 C 
BRANCH  14  16
ATOM     15  N   UNL     1      32.223  -3.374 -25.243  0.00  0.00    +0.386 N 
ATOM     16  C   UNL     1      32.103  -5.423 -23.149  0.00  0.00    +0.040 C 
ATOM     17  C   UNL     1      31.173  -4.204 -23.162  0.00  0.00    -0.019 C 
ATOM     18  C   UNL     1      32.574  -5.730 -24.575  0.00  0.00    -0.019 C 
ATOM     19  C   UNL     1      31.822  -3.016 -23.875  0.00  0.00    -0.077 C 
ATOM     20  C   UNL     1      33.177  -4.491 -25.241  0.00  0.00    -0.077 C 
ATOM     21  C   UNL     1      32.795  -2.214 -25.928  0.00  0.00    -0.101 C 
ATOM     22  H   UNL     1      31.389  -3.673 -25.747  0.00  0.00    -0.080 HD
ENDBRANCH  14  16
ENDBRANCH  13  14
ENDBRANCH   9  13
ENDBRANCH   1  12
BRANCH   2  23
ATOM     23  C   UNL     1      35.431 -15.239 -24.068  0.00  0.00    +0.146 C 
BRANCH  23  25
ATOM     24  O   UNL     1      34.208 -16.508 -26.328  0.00  0.00    -0.268 OA
ATOM     25  N   UNL     1      35.104 -16.650 -24.189  0.00  0.00    -0.173 N 
ATOM     26  N   UNL     1      35.418 -17.405 -23.095  0.00  0.00    -0.175 NA
ATOM     27  C   UNL     1      35.149 -18.671 -23.127  0.00  0.00    +0.099 C 
ATOM     28  C   UNL     1      34.513 -17.165 -25.333  0.00  0.00    +0.268 C 
ATOM     29  C   UNL     1      34.545 -19.368 -24.279  0.00  0.00    +0.025 C 
ATOM     30  C   UNL     1      34.243 -18.618 -25.337  0.00  0.00    +0.061 C 
BRANCH  27  31
ATOM     31  C   UNL     1      35.481 -19.503 -21.940  0.00  0.00    +0.020 C 
ATOM     32  C   UNL     1      34.490 -20.267 -21.323  0.00  0.00    +0.012 C 
ATOM     33  C   UNL     1      36.785 -19.521 -21.444  0.00  0.00    +0.002 C 
ATOM     34  C   UNL     1      34.803 -21.047 -20.210  0.00  0.00    +0.068 C 
ATOM     35  C   UNL     1      37.098 -20.302 -20.331  0.00  0.00    +0.001 C 
ATOM     36  C   UNL     1      36.107 -21.065 -19.714  0.00  0.00    +0.010 C 
BRANCH  34  38
ATOM     37  N   UNL     1      32.963 -22.464 -19.063  0.00  0.00    -0.191 NA
ATOM     38  C   UNL     1      33.788 -21.829 -19.577  0.00  0.00    +0.100 C 
ENDBRANCH  34  38
ENDBRANCH  27  31
ENDBRANCH  23  25
ENDBRANCH   2  23
TORSDOF 8
ENDMDL
MODEL 5
REMARK VINA RESULT:     -13.1      4.573     14.797
REMARK  Name = 25171648
REMARK  8 active torsions:
REMARK  status: ('A' for Active; 'I' for Inactive)
REMARK    1  A    between atoms: C_1  and  C_12
REMARK    2  A    between atoms: C_2  and  C_23
REMARK    3  A    between atoms: C_9  and  O_13
REMARK    4  A    between atoms: O_13  and  C_14
REMARK    5  A    between atoms: C_14  and  C_16
REMARK    6  A    between atoms: C_23  and  N_25
REMARK    7  A    between atoms: C_27  and  C_31
REMARK    8  A    between atoms: C_34  and  C_38
REMARK                            x       y       z     vdW  Elec       q    Type
REMARK                         _______ _______ _______ _____ _____    ______ ____
ROOT
ATOM      1  C   UNL     1      34.043 -13.114 -23.166  0.00  0.00    +0.062 C 
ATOM      2  C   UNL     1      32.657 -11.147 -22.948  0.00  0.00    +0.000 C 
ATOM      3  C   UNL     1      33.084 -12.384 -22.464  0.00  0.00    +0.007 C 
ATOM      4  C   UNL     1      34.574 -12.608 -24.353  0.00  0.00    +0.010 C 
ATOM      5  C   UNL     1      33.189 -10.641 -24.134  0.00  0.00    -0.003 C 
ATOM      6  C   UNL     1      34.148 -11.371 -24.836  0.00  0.00    +0.000 C 
ENDROOT
BRANCH   1  12
ATOM      7  N   UNL     1      34.920 -15.276 -23.582  0.00  0.00    -0.212 NA
ATOM      8  N   UNL     1      34.416 -14.570 -21.333  0.00  0.00    -0.190 NA
ATOM      9  C   UNL     1      35.306 -16.771 -21.734  0.00  0.00    +0.161 C 
ATOM     10  C   UNL     1      35.325 -16.461 -23.079  0.00  0.00    +0.201 C 
ATOM     11  C   UNL     1      34.837 -15.776 -20.899  0.00  0.00    +0.144 C 
ATOM     12  C   UNL     1      34.484 -14.391 -22.667  0.00  0.00    +0.031 C 
BRANCH   9  13
ATOM     13  O   UNL     1      35.727 -17.987 -21.257  0.00  0.00    -0.476 OA
BRANCH  13  14
ATOM     14  C   UNL     1      35.811 -19.049 -22.189  0.00  0.00    +0.205 C 
BRANCH  14  16
ATOM     15  N   UNL     1      34.344 -21.717 -19.125  0.00  0.00    +0.386 N 
ATOM     16  C   UNL     1      35.323 -20.328 -21.514  0.00  0.00    +0.040 C 
ATOM     17  C   UNL     1      33.890 -20.163 -20.996  0.00  0.00    -0.019 C 
ATOM     18  C   UNL     1      36.247 -20.731 -20.361  0.00  0.00    -0.019 C 
ATOM     19  C   UNL     1      33.428 -21.405 -20.231  0.00  0.00    -0.077 C 
ATOM     20  C   UNL     1      35.708 -21.955 -19.617  0.00  0.00    -0.077 C 
ATOM     21  C   UNL     1      33.862 -22.875 -18.372  0.00  0.00    -0.101 C 
ATOM     22  H   UNL     1      34.370 -20.910 -18.502  0.00  0.00    -0.080 HD
ENDBRANCH  14  16
ENDBRANCH  13  14
ENDBRANCH   9  13
ENDBRANCH   1  12
BRANCH   2  23
ATOM     23  C   UNL     1      31.632 -10.365 -22.198  0.00  0.00    +0.146 C 
BRANCH  23  25
ATOM     24  O   UNL     1      32.372  -9.636 -19.527  0.00  0.00    -0.268 OA
ATOM     25  N   UNL     1      32.131  -9.070 -21.768  0.00  0.00    -0.173 N 
ATOM     26  N   UNL     1      32.232  -8.138 -22.761  0.00  0.00    -0.175 NA
ATOM     27  C   UNL     1      32.662  -6.957 -22.451  0.00  0.00    +0.099 C 
ATOM     28  C   UNL     1      32.464  -8.821 -20.445  0.00  0.00    +0.268 C 
ATOM     29  C   UNL     1      33.078  -6.549 -21.096  0.00  0.00    +0.025 C 
ATOM     30  C   UNL     1      32.972  -7.467 -20.138  0.00  0.00    +0.061 C 
BRANCH  27  31
ATOM     31  C   UNL     1      32.772  -5.932 -23.523  0.00  0.00    +0.020 C 
ATOM     32  C   UNL     1      31.885  -4.855 -23.553  0.00  0.00    +0.012 C 
ATOM     33  C   UNL     1      33.763  -6.046 -24.498  0.00  0.00    +0.002 C 
ATOM     34  C   UNL     1      31.989  -3.894 -24.558  0.00  0.00    +0.068 C 
ATOM     35  C   UNL     1      33.868  -5.084 -25.503  0.00  0.00    +0.001 C 
ATOM     36  C   UNL     1      32.981  -4.008 -25.533  0.00  0.00    +0.010 C 
BRANCH  34  38
ATOM     37  N   UNL     1      30.343  -1.896 -24.617  0.00  0.00    -0.191 NA
ATOM     38  C   UNL     1      31.081  -2.791 -24.590  0.00  0.00    +0.100 C 
ENDBRANCH  34  38
ENDBRANCH  27  31
ENDBRANCH  23  25
ENDBRANCH   2  23
TORSDOF 8
ENDMDL
MODEL 6
REMARK VINA RESULT:     -11.8      3.719     14.197
REMARK  Name = 25171648
REMARK  8 active torsions:
REMARK  status: ('A' for Active; 'I' for Inactive)
REMARK    1  A    between atoms: C_1  and  C_12
REMARK    2  A    between atoms: C_2  and  C_23
REMARK    3  A    between atoms: C_9  and  O_13
REMARK    4  A    between atoms: O_13  and  C_14
REMARK    5  A    between atoms: C_14  and  C_16
REMARK    6  A    between atoms: C_23  and  N_25
REMARK    7  A    between atoms: C_27  and  C_31
REMARK    8  A    between atoms: C_34  and  C_38
REMARK                            x       y       z     vdW  Elec       q    Type
REMARK                         _______ _______ _______ _____ _____    ______ ____
ROOT
ATOM      1  C   UNL     1      34.265 -14.753 -25.221  0.00  0.00    +0.062 C 
ATOM      2  C   UNL     1      34.260 -12.339 -25.121  0.00  0.00    +0.000 C 
ATOM      3  C   UNL     1      34.584 -13.572 -24.552  0.00  0.00    +0.007 C 
ATOM      4  C   UNL     1      33.622 -14.703 -26.457  0.00  0.00    +0.010 C 
ATOM      5  C   UNL     1      33.617 -12.289 -26.357  0.00  0.00    -0.003 C 
ATOM      6  C   UNL     1      33.299 -13.471 -27.026  0.00  0.00    +0.000 C 
ENDROOT
BRANCH   1  12
ATOM      7  N   UNL     1      34.261 -17.120 -25.339  0.00  0.00    -0.212 NA
ATOM      8  N   UNL     1      35.219 -15.991 -23.438  0.00  0.00    -0.190 NA
ATOM      9  C   UNL     1      35.225 -18.396 -23.539  0.00  0.00    +0.161 C 
ATOM     10  C   UNL     1      34.590 -18.294 -24.760  0.00  0.00    +0.201 C 
ATOM     11  C   UNL     1      35.519 -17.199 -22.918  0.00  0.00    +0.144 C 
ATOM     12  C   UNL     1      34.600 -16.025 -24.634  0.00  0.00    +0.031 C 
BRANCH   9  13
ATOM     13  O   UNL     1      35.545 -19.608 -22.980  0.00  0.00    -0.476 OA
BRANCH  13  14
ATOM     14  C   UNL     1      36.403 -19.592 -21.855  0.00  0.00    +0.205 C 
BRANCH  14  16
ATOM     15  N   UNL     1      34.220 -22.405 -19.411  0.00  0.00    +0.386 N 
ATOM     16  C   UNL     1      35.651 -20.172 -20.661  0.00  0.00    +0.040 C 
ATOM     17  C   UNL     1      36.374 -21.403 -20.101  0.00  0.00    -0.019 C 
ATOM     18  C   UNL     1      34.214 -20.545 -21.042  0.00  0.00    -0.019 C 
ATOM     19  C   UNL     1      35.575 -22.050 -18.968  0.00  0.00    -0.077 C 
ATOM     20  C   UNL     1      33.487 -21.220 -19.878  0.00  0.00    -0.077 C 
ATOM     21  C   UNL     1      33.486 -23.069 -18.332  0.00  0.00    -0.101 C 
ATOM     22  H   UNL     1      34.305 -23.052 -20.195  0.00  0.00    -0.080 HD
ENDBRANCH  14  16
ENDBRANCH  13  14
ENDBRANCH   9  13
ENDBRANCH   1  12
BRANCH   2  23
ATOM     23  C   UNL     1      34.600 -11.075 -24.406  0.00  0.00    +0.146 C 
BRANCH  23  25
ATOM     24  O   UNL     1      32.771 -12.535 -22.751  0.00  0.00    -0.268 OA
ATOM     25  N   UNL     1      33.463 -10.523 -23.688  0.00  0.00    -0.173 N 
ATOM     26  N   UNL     1      33.279  -9.180 -23.853  0.00  0.00    -0.175 NA
ATOM     27  C   UNL     1      32.281  -8.620 -23.249  0.00  0.00    +0.099 C 
ATOM     28  C   UNL     1      32.638 -11.321 -22.909  0.00  0.00    +0.268 C 
ATOM     29  C   UNL     1      31.333  -9.329 -22.368  0.00  0.00    +0.025 C 
ATOM     30  C   UNL     1      31.524 -10.638 -22.219  0.00  0.00    +0.061 C 
BRANCH  27  31
ATOM     31  C   UNL     1      32.067  -7.159 -23.425  0.00  0.00    +0.020 C 
ATOM     32  C   UNL     1      32.714  -6.477 -24.455  0.00  0.00    +0.012 C 
ATOM     33  C   UNL     1      31.216  -6.470 -22.559  0.00  0.00    +0.002 C 
ATOM     34  C   UNL     1      32.512  -5.107 -24.620  0.00  0.00    +0.068 C 
ATOM     35  C   UNL     1      31.014  -5.099 -22.723  0.00  0.00    +0.001 C 
ATOM     36  C   UNL     1      31.662  -4.418 -23.754  0.00  0.00    +0.010 C 
BRANCH  34  38
ATOM     37  N   UNL     1      33.715  -3.840 -26.531  0.00  0.00    -0.191 NA
ATOM     38  C   UNL     1      33.176  -4.408 -25.674  0.00  0.00    +0.100 C 
ENDBRANCH  34  38
ENDBRANCH  27  31
ENDBRANCH  23  25
ENDBRANCH   2  23
TORSDOF 8
ENDMDL
MODEL 7
REMARK VINA RESULT:     -11.7      4.123      8.723
REMARK  Name = 25171648
REMARK  8 active torsions:
REMARK  status: ('A' for Active; 'I' for Inactive)
REMARK    1  A    between atoms: C_1  and  C_12
REMARK    2  A    between atoms: C_2  and  C_23
REMARK    3  A    between atoms: C_9  and  O_13
REMARK    4  A    between atoms: O_13  and  C_14
REMARK    5  A    between atoms: C_14  and  C_16
REMARK    6  A    between atoms: C_23  and  N_25
REMARK    7  A    between atoms: C_27  and  C_31
REMARK    8  A    between atoms: C_34  and  C_38
REMARK                            x       y       z     vdW  Elec       q    Type
REMARK                         _______ _______ _______ _____ _____    ______ ____
ROOT
ATOM      1  C   UNL     1      33.177 -12.856 -21.987  0.00  0.00    +0.062 C 
ATOM      2  C   UNL     1      34.573 -14.828 -21.973  0.00  0.00    +0.000 C 
ATOM      3  C   UNL     1      34.256 -13.576 -22.501  0.00  0.00    +0.007 C 
ATOM      4  C   UNL     1      32.415 -13.388 -20.948  0.00  0.00    +0.010 C 
ATOM      5  C   UNL     1      33.811 -15.360 -20.933  0.00  0.00    -0.003 C 
ATOM      6  C   UNL     1      32.733 -14.640 -20.420  0.00  0.00    +0.000 C 
ENDROOT
BRANCH   1  12
ATOM      7  N   UNL     1      31.836 -10.903 -21.944  0.00  0.00    -0.212 NA
ATOM      8  N   UNL     1      33.593 -11.145 -23.574  0.00  0.00    -0.190 NA
ATOM      9  C   UNL     1      32.242  -9.153 -23.547  0.00  0.00    +0.161 C 
ATOM     10  C   UNL     1      31.557  -9.696 -22.479  0.00  0.00    +0.201 C 
ATOM     11  C   UNL     1      33.261  -9.931 -24.059  0.00  0.00    +0.144 C 
ATOM     12  C   UNL     1      32.850 -11.564 -22.532  0.00  0.00    +0.031 C 
BRANCH   9  13
ATOM     13  O   UNL     1      31.931  -7.921 -24.066  0.00  0.00    -0.476 OA
BRANCH  13  14
ATOM     14  C   UNL     1      32.775  -6.842 -23.710  0.00  0.00    +0.205 C 
BRANCH  14  16
ATOM     15  N   UNL     1      34.416  -3.758 -26.250  0.00  0.00    +0.386 N 
ATOM     16  C   UNL     1      33.094  -6.040 -24.968  0.00  0.00    +0.040 C 
ATOM     17  C   UNL     1      34.604  -6.003 -25.228  0.00  0.00    -0.019 C 
ATOM     18  C   UNL     1      32.552  -4.610 -24.864  0.00  0.00    -0.019 C 
ATOM     19  C   UNL     1      34.941  -5.118 -26.430  0.00  0.00    -0.077 C 
ATOM     20  C   UNL     1      32.957  -3.771 -26.078  0.00  0.00    -0.077 C 
ATOM     21  C   UNL     1      34.790  -2.911 -27.383  0.00  0.00    -0.101 C 
ATOM     22  H   UNL     1      34.829  -3.371 -25.402  0.00  0.00    -0.080 HD
ENDBRANCH  14  16
ENDBRANCH  13  14
ENDBRANCH   9  13
ENDBRANCH   1  12
BRANCH   2  23
ATOM     23  C   UNL     1      35.726 -15.599 -22.522  0.00  0.00    +0.146 C 
BRANCH  23  25
ATOM     24  O   UNL     1      35.273 -16.400 -25.236  0.00  0.00    -0.268 OA
ATOM     25  N   UNL     1      35.339 -16.925 -22.973  0.00  0.00    -0.173 N 
ATOM     26  N   UNL     1      35.178 -17.844 -21.976  0.00  0.00    -0.175 NA
ATOM     27  C   UNL     1      34.826 -19.046 -22.302  0.00  0.00    +0.099 C 
ATOM     28  C   UNL     1      35.147 -17.209 -24.317  0.00  0.00    +0.268 C 
ATOM     29  C   UNL     1      34.609 -19.506 -23.686  0.00  0.00    +0.025 C 
ATOM     30  C   UNL     1      34.768 -18.599 -24.647  0.00  0.00    +0.061 C 
BRANCH  27  31
ATOM     31  C   UNL     1      34.642 -20.055 -21.224  0.00  0.00    +0.020 C 
ATOM     32  C   UNL     1      35.729 -20.452 -20.446  0.00  0.00    +0.012 C 
ATOM     33  C   UNL     1      33.380 -20.603 -20.992  0.00  0.00    +0.002 C 
ATOM     34  C   UNL     1      35.555 -21.398 -19.435  0.00  0.00    +0.068 C 
ATOM     35  C   UNL     1      33.206 -21.549 -19.981  0.00  0.00    +0.001 C 
ATOM     36  C   UNL     1      34.293 -21.946 -19.203  0.00  0.00    +0.010 C 
BRANCH  34  38
ATOM     37  N   UNL     1      37.573 -22.137 -17.991  0.00  0.00    -0.191 NA
ATOM     38  C   UNL     1      36.668 -21.805 -18.638  0.00  0.00    +0.100 C 
ENDBRANCH  34  38
ENDBRANCH  27  31
ENDBRANCH  23  25
ENDBRANCH   2  23
TORSDOF 8
ENDMDL
MODEL 8
REMARK VINA RESULT:     -11.6      2.513     12.373
REMARK  Name = 25171648
REMARK  8 active torsions:
REMARK  status: ('A' for Active; 'I' for Inactive)
REMARK    1  A    between atoms: C_1  and  C_12
REMARK    2  A    between atoms: C_2  and  C_23
REMARK    3  A    between atoms: C_9  and  O_13
REMARK    4  A    between atoms: O_13  and  C_14
REMARK    5  A    between atoms: C_14  and  C_16
REMARK    6  A    between atoms: C_23  and  N_25
REMARK    7  A    between atoms: C_27  and  C_31
REMARK    8  A    between atoms: C_34  and  C_38
REMARK                            x       y       z     vdW  Elec       q    Type
REMARK                         _______ _______ _______ _____ _____    ______ ____
ROOT
ATOM      1  C   UNL     1      35.272 -19.573 -22.263  0.00  0.00    +0.062 C 
ATOM      2  C   UNL     1      35.483 -17.512 -23.506  0.00  0.00    +0.000 C 
ATOM      3  C   UNL     1      35.686 -18.243 -22.335  0.00  0.00    +0.007 C 
ATOM      4  C   UNL     1      34.655 -20.171 -23.362  0.00  0.00    +0.010 C 
ATOM      5  C   UNL     1      34.867 -18.111 -24.604  0.00  0.00    -0.003 C 
ATOM      6  C   UNL     1      34.454 -19.441 -24.533  0.00  0.00    +0.000 C 
ENDROOT
BRANCH   1  12
ATOM      7  N   UNL     1      36.701 -20.237 -20.493  0.00  0.00    -0.212 NA
ATOM      8  N   UNL     1      34.434 -21.047 -20.607  0.00  0.00    -0.190 NA
ATOM      9  C   UNL     1      35.869 -21.734 -18.801  0.00  0.00    +0.161 C 
ATOM     10  C   UNL     1      36.861 -20.957 -19.363  0.00  0.00    +0.201 C 
ATOM     11  C   UNL     1      34.664 -21.741 -19.473  0.00  0.00    +0.144 C 
ATOM     12  C   UNL     1      35.481 -20.328 -21.055  0.00  0.00    +0.031 C 
BRANCH   9  13
ATOM     13  O   UNL     1      36.068 -22.453 -17.648  0.00  0.00    -0.476 OA
BRANCH  13  14
ATOM     14  C   UNL     1      37.249 -22.182 -16.916  0.00  0.00    +0.205 C 
BRANCH  14  16
ATOM     15  N   UNL     1      37.290 -25.746 -14.477  0.00  0.00    +0.386 N 
ATOM     16  C   UNL     1      37.267 -23.070 -15.677  0.00  0.00    +0.040 C 
ATOM     17  C   UNL     1      38.523 -23.949 -15.648  0.00  0.00    -0.019 C 
ATOM     18  C   UNL     1      36.017 -23.954 -15.612  0.00  0.00    -0.019 C 
ATOM     19  C   UNL     1      38.501 -24.914 -14.461  0.00  0.00    -0.077 C 
ATOM     20  C   UNL     1      36.078 -24.918 -14.425  0.00  0.00    -0.077 C 
ATOM     21  C   UNL     1      37.309 -26.698 -13.366  0.00  0.00    -0.101 C 
ATOM     22  H   UNL     1      37.279 -26.267 -15.354  0.00  0.00    -0.080 HD
ENDBRANCH  14  16
ENDBRANCH  13  14
ENDBRANCH   9  13
ENDBRANCH   1  12
BRANCH   2  23
ATOM     23  C   UNL     1      35.926 -16.089 -23.584  0.00  0.00    +0.146 C 
BRANCH  23  25
ATOM     24  O   UNL     1      34.947 -15.898 -26.271  0.00  0.00    -0.268 OA
ATOM     25  N   UNL     1      34.870 -15.208 -24.053  0.00  0.00    -0.173 N 
ATOM     26  N   UNL     1      34.327 -14.404 -23.092  0.00  0.00    -0.175 NA
ATOM     27  C   UNL     1      33.386 -13.586 -23.438  0.00  0.00    +0.099 C 
ATOM     28  C   UNL     1      34.469 -15.195 -25.381  0.00  0.00    +0.268 C 
ATOM     29  C   UNL     1      32.835 -13.475 -24.802  0.00  0.00    +0.025 C 
ATOM     30  C   UNL     1      33.376 -14.263 -25.729  0.00  0.00    +0.061 C 
BRANCH  27  31
ATOM     31  C   UNL     1      32.789 -12.701 -22.401  0.00  0.00    +0.020 C 
ATOM     32  C   UNL     1      32.636 -11.338 -22.651  0.00  0.00    +0.012 C 
ATOM     33  C   UNL     1      32.382 -13.237 -21.179  0.00  0.00    +0.002 C 
ATOM     34  C   UNL     1      32.076 -10.509 -21.678  0.00  0.00    +0.068 C 
ATOM     35  C   UNL     1      31.822 -12.408 -20.206  0.00  0.00    +0.001 C 
ATOM     36  C   UNL     1      31.669 -11.045 -20.456  0.00  0.00    +0.010 C 
BRANCH  34  38
ATOM     37  N   UNL     1      31.793  -7.977 -22.140  0.00  0.00    -0.191 NA
ATOM     38  C   UNL     1      31.920  -9.112 -21.933  0.00  0.00    +0.100 C 
ENDBRANCH  34  38
ENDBRANCH  27  31
ENDBRANCH  23  25
ENDBRANCH   2  23
TORSDOF 8
ENDMDL
MODEL 9
REMARK VINA RESULT:     -11.6      6.730     11.804
REMARK  Name = 25171648
REMARK  8 active torsions:
REMARK  status: ('A' for Active; 'I' for Inactive)
REMARK    1  A    between atoms: C_1  and  C_12
REMARK    2  A    between atoms: C_2  and  C_23
REMARK    3  A    between atoms: C_9  and  O_13
REMARK    4  A    between atoms: O_13  and  C_14
REMARK    5  A    between atoms: C_14  and  C_16
REMARK    6  A    between atoms: C_23  and  N_25
REMARK    7  A    between atoms: C_27  and  C_31
REMARK    8  A    between atoms: C_34  and  C_38
REMARK                            x       y       z     vdW  Elec       q    Type
REMARK                         _______ _______ _______ _____ _____    ______ ____
ROOT
ATOM      1  C   UNL     1      32.108 -10.068 -22.563  0.00  0.00    +0.062 C 
ATOM      2  C   UNL     1      33.538 -11.941 -23.098  0.00  0.00    +0.000 C 
ATOM      3  C   UNL     1      33.232 -10.584 -23.208  0.00  0.00    +0.007 C 
ATOM      4  C   UNL     1      31.289 -10.910 -21.809  0.00  0.00    +0.010 C 
ATOM      5  C   UNL     1      32.719 -12.782 -22.345  0.00  0.00    -0.003 C 
ATOM      6  C   UNL     1      31.595 -12.266 -21.700  0.00  0.00    +0.000 C 
ENDROOT
BRANCH   1  12
ATOM      7  N   UNL     1      31.110  -8.292 -23.773  0.00  0.00    -0.212 NA
ATOM      8  N   UNL     1      32.212  -7.874 -21.671  0.00  0.00    -0.190 NA
ATOM      9  C   UNL     1      31.205  -6.056 -22.885  0.00  0.00    +0.161 C 
ATOM     10  C   UNL     1      30.832  -6.974 -23.846  0.00  0.00    +0.201 C 
ATOM     11  C   UNL     1      31.900  -6.569 -21.809  0.00  0.00    +0.144 C 
ATOM     12  C   UNL     1      31.793  -8.668 -22.676  0.00  0.00    +0.031 C 
BRANCH   9  13
ATOM     13  O   UNL     1      30.904  -4.721 -22.992  0.00  0.00    -0.476 OA
BRANCH  13  14
ATOM     14  C   UNL     1      31.953  -3.853 -23.375  0.00  0.00    +0.205 C 
BRANCH  14  16
ATOM     15  N   UNL     1      33.769  -3.438 -27.272  0.00  0.00    +0.386 N 
ATOM     16  C   UNL     1      32.153  -3.966 -24.883  0.00  0.00    +0.040 C 
ATOM     17  C   UNL     1      33.419  -4.764 -25.213  0.00  0.00    -0.019 C 
ATOM     18  C   UNL     1      32.230  -2.581 -25.535  0.00  0.00    -0.019 C 
ATOM     19  C   UNL     1      33.681  -4.797 -26.720  0.00  0.00    -0.077 C 
ATOM     20  C   UNL     1      32.530  -2.686 -27.032  0.00  0.00    -0.077 C 
ATOM     21  C   UNL     1      34.070  -3.485 -28.703  0.00  0.00    -0.101 C 
ATOM     22  H   UNL     1      34.529  -2.954 -26.794  0.00  0.00    -0.080 HD
ENDBRANCH  14  16
ENDBRANCH  13  14
ENDBRANCH   9  13
ENDBRANCH   1  12
BRANCH   2  23
ATOM     23  C   UNL     1      34.740 -12.494 -23.788  0.00  0.00    +0.146 C 
BRANCH  23  25
ATOM     24  O   UNL     1      33.452 -12.292 -26.340  0.00  0.00    -0.268 OA
ATOM     25  N   UNL     1      34.409 -13.598 -24.673  0.00  0.00    -0.173 N 
ATOM     26  N   UNL     1      34.754 -14.832 -24.201  0.00  0.00    -0.175 NA
ATOM     27  C   UNL     1      34.484 -15.865 -24.933  0.00  0.00    +0.099 C 
ATOM     28  C   UNL     1      33.785 -13.390 -25.894  0.00  0.00    +0.268 C 
ATOM     29  C   UNL     1      33.847 -15.803 -26.262  0.00  0.00    +0.025 C 
ATOM     30  C   UNL     1      33.515 -14.593 -26.708  0.00  0.00    +0.061 C 
BRANCH  27  31
ATOM     31  C   UNL     1      34.849 -17.215 -24.428  0.00  0.00    +0.020 C 
ATOM     32  C   UNL     1      35.664 -17.343 -23.303  0.00  0.00    +0.012 C 
ATOM     33  C   UNL     1      34.376 -18.354 -25.079  0.00  0.00    +0.002 C 
ATOM     34  C   UNL     1      36.006 -18.610 -22.830  0.00  0.00    +0.068 C 
ATOM     35  C   UNL     1      34.717 -19.622 -24.606  0.00  0.00    +0.001 C 
ATOM     36  C   UNL     1      35.532 -19.749 -23.481  0.00  0.00    +0.010 C 
BRANCH  34  38
ATOM     37  N   UNL     1      37.520 -18.848 -20.743  0.00  0.00    -0.191 NA
ATOM     38  C   UNL     1      36.841 -18.741 -21.678  0.00  0.00    +0.100 C 
ENDBRANCH  34  38
ENDBRANCH  27  31
ENDBRANCH  23  25
ENDBRANCH   2  23
TORSDOF 8
ENDMDL
