MODEL 1
REMARK VINA RESULT:     -11.9      0.000      0.000
REMARK  Name = 11538992
REMARK  4 active torsions:
REMARK  status: ('A' for Active; 'I' for Inactive)
REMARK    1  A    between atoms: C_1  and  N_7
REMARK    2  A    between atoms: C_3  and  C_24
REMARK    3  A    between atoms: C_4  and  N_30
REMARK    4  A    between atoms: C_15  and  C_20
REMARK                            x       y       z     vdW  Elec       q    Type
REMARK                         _______ _______ _______ _____ _____    ______ ____
ROOT
ATOM      1  C   UNL     1      35.213 -22.045 -19.634  0.00  0.00    -0.059 C 
ATOM      2  C   UNL     1      36.393 -21.068 -19.613  0.00  0.00    -0.042 C 
ATOM      3  C   UNL     1      35.100 -19.472 -21.117  0.00  0.00    +0.005 C 
ATOM      4  C   UNL     1      36.441 -20.217 -20.893  0.00  0.00    -0.064 C 
ATOM      5  C   UNL     1      33.889 -21.302 -19.836  0.00  0.00    -0.021 C 
ATOM      6  C   UNL     1      33.916 -20.460 -21.110  0.00  0.00    +0.000 C 
ENDROOT
BRANCH   1   7
ATOM      7  N   UNL     1      35.170 -22.799 -18.381  0.00  0.00    +0.394 N 
ATOM      8  N   UNL     1      34.877 -23.528 -15.710  0.00  0.00    -0.299 N 
ATOM      9  N   UNL     1      32.730 -23.903 -15.806  0.00  0.00    -0.136 NA
ATOM     10  N   UNL     1      33.206 -24.332 -14.577  0.00  0.00    -0.125 NA
ATOM     11  C   UNL     1      36.128 -22.247 -17.405  0.00  0.00    -0.052 C 
ATOM     12  C   UNL     1      33.798 -22.806 -17.831  0.00  0.00    -0.009 C 
ATOM     13  C   UNL     1      36.195 -23.138 -16.156  0.00  0.00    +0.086 C 
ATOM     14  C   UNL     1      33.754 -23.424 -16.480  0.00  0.00    +0.122 A 
ATOM     15  C   UNL     1      34.500 -24.098 -14.543  0.00  0.00    +0.238 A 
ATOM     16  H   UNL     1      35.442 -23.763 -18.576  0.00  0.00    -0.079 HD
BRANCH  15  20
ATOM     17  F   UNL     1      36.410 -25.309 -13.759  0.00  0.00    -0.163 F 
ATOM     18  F   UNL     1      36.120 -23.309 -12.969  0.00  0.00    -0.163 F 
ATOM     19  F   UNL     1      34.811 -24.927 -12.336  0.00  0.00    -0.163 F 
ATOM     20  C   UNL     1      35.430 -24.400 -13.441  0.00  0.00    +0.452 C 
ENDBRANCH  15  20
ENDBRANCH   1   7
BRANCH   3  24
ATOM     21  F   UNL     1      35.656 -16.690 -21.161  0.00  0.00    -0.204 F 
ATOM     22  F   UNL     1      34.478 -19.060 -25.947  0.00  0.00    -0.202 F 
ATOM     23  F   UNL     1      35.034 -16.387 -25.843  0.00  0.00    -0.202 F 
ATOM     24  C   UNL     1      35.082 -18.637 -22.391  0.00  0.00    +0.005 C 
ATOM     25  C   UNL     1      35.366 -17.277 -22.331  0.00  0.00    +0.138 C 
ATOM     26  C   UNL     1      34.782 -19.244 -23.606  0.00  0.00    +0.030 C 
ATOM     27  C   UNL     1      34.765 -18.482 -24.774  0.00  0.00    +0.167 C 
ATOM     28  C   UNL     1      35.349 -16.515 -23.499  0.00  0.00    +0.061 C 
ATOM     29  C   UNL     1      35.048 -17.117 -24.720  0.00  0.00    +0.170 C 
ENDBRANCH   3  24
BRANCH   4  30
ATOM     30  N   UNL     1      37.555 -19.267 -20.805  0.00  0.00    +0.382 N 
ATOM     31  H   UNL     1      38.149 -19.513 -20.013  0.00  0.00    -0.089 HD
ATOM     32  H   UNL     1      37.188 -18.324 -20.675  0.00  0.00    -0.089 HD
ATOM     33  H   UNL     1      38.103 -19.303 -21.665  0.00  0.00    -0.089 HD
ENDBRANCH   4  30
TORSDOF 4
ENDMDL
MODEL 2
REMARK VINA RESULT:     -11.8      0.814      1.588
REMARK  Name = 11538992
REMARK  4 active torsions:
REMARK  status: ('A' for Active; 'I' for Inactive)
REMARK    1  A    between atoms: C_1  and  N_7
REMARK    2  A    between atoms: C_3  and  C_24
REMARK    3  A    between atoms: C_4  and  N_30
REMARK    4  A    between atoms: C_15  and  C_20
REMARK                            x       y       z     vdW  Elec       q    Type
REMARK                         _______ _______ _______ _____ _____    ______ ____
ROOT
ATOM      1  C   UNL     1      35.325 -21.787 -19.917  0.00  0.00    -0.059 C 
ATOM      2  C   UNL     1      36.499 -20.804 -19.856  0.00  0.00    -0.042 C 
ATOM      3  C   UNL     1      35.205 -19.168 -21.316  0.00  0.00    +0.005 C 
ATOM      4  C   UNL     1      36.550 -19.912 -21.108  0.00  0.00    -0.064 C 
ATOM      5  C   UNL     1      33.998 -21.046 -20.103  0.00  0.00    -0.021 C 
ATOM      6  C   UNL     1      34.028 -20.162 -21.349  0.00  0.00    +0.000 C 
ENDROOT
BRANCH   1   7
ATOM      7  N   UNL     1      35.279 -22.581 -18.689  0.00  0.00    +0.394 N 
ATOM      8  N   UNL     1      34.965 -23.401 -16.047  0.00  0.00    -0.299 N 
ATOM      9  N   UNL     1      32.827 -23.808 -16.183  0.00  0.00    -0.136 NA
ATOM     10  N   UNL     1      33.294 -24.269 -14.962  0.00  0.00    -0.125 NA
ATOM     11  C   UNL     1      36.215 -22.045 -17.683  0.00  0.00    -0.052 C 
ATOM     12  C   UNL     1      33.901 -22.629 -18.158  0.00  0.00    -0.009 C 
ATOM     13  C   UNL     1      36.281 -22.975 -16.462  0.00  0.00    +0.086 C 
ATOM     14  C   UNL     1      33.850 -23.291 -16.828  0.00  0.00    +0.122 A 
ATOM     15  C   UNL     1      34.583 -24.015 -14.903  0.00  0.00    +0.238 A 
ATOM     16  H   UNL     1      35.571 -23.534 -18.911  0.00  0.00    -0.079 HD
BRANCH  15  20
ATOM     17  F   UNL     1      36.440 -25.294 -14.103  0.00  0.00    -0.163 F 
ATOM     18  F   UNL     1      36.244 -23.268 -13.352  0.00  0.00    -0.163 F 
ATOM     19  F   UNL     1      34.867 -24.812 -12.682  0.00  0.00    -0.163 F 
ATOM     20  C   UNL     1      35.504 -24.336 -13.800  0.00  0.00    +0.452 C 
ENDBRANCH  15  20
ENDBRANCH   1   7
BRANCH   3  24
ATOM     21  F   UNL     1      35.078 -20.213 -23.952  0.00  0.00    -0.204 F 
ATOM     22  F   UNL     1      35.271 -14.771 -23.448  0.00  0.00    -0.202 F 
ATOM     23  F   UNL     1      35.146 -15.914 -25.927  0.00  0.00    -0.202 F 
ATOM     24  C   UNL     1      35.190 -18.292 -22.562  0.00  0.00    +0.005 C 
ATOM     25  C   UNL     1      35.126 -18.880 -23.822  0.00  0.00    +0.138 C 
ATOM     26  C   UNL     1      35.238 -16.909 -22.430  0.00  0.00    +0.030 C 
ATOM     27  C   UNL     1      35.224 -16.103 -23.568  0.00  0.00    +0.167 C 
ATOM     28  C   UNL     1      35.112 -18.075 -24.960  0.00  0.00    +0.061 C 
ATOM     29  C   UNL     1      35.162 -16.687 -24.834  0.00  0.00    +0.170 C 
ENDBRANCH   3  24
BRANCH   4  30
ATOM     30  N   UNL     1      37.657 -18.958 -20.982  0.00  0.00    +0.382 N 
ATOM     31  H   UNL     1      37.298 -18.064 -20.647  0.00  0.00    -0.089 HD
ATOM     32  H   UNL     1      38.099 -18.827 -21.891  0.00  0.00    -0.089 HD
ATOM     33  H   UNL     1      38.343 -19.319 -20.318  0.00  0.00    -0.089 HD
ENDBRANCH   4  30
TORSDOF 4
ENDMDL
MODEL 3
REMARK VINA RESULT:     -11.4      7.615     11.645
REMARK  Name = 11538992
REMARK  4 active torsions:
REMARK  status: ('A' for Active; 'I' for Inactive)
REMARK    1  A    between atoms: C_1  and  N_7
REMARK    2  A    between atoms: C_3  and  C_24
REMARK    3  A    between atoms: C_4  and  N_30
REMARK    4  A    between atoms: C_15  and  C_20
REMARK                            x       y       z     vdW  Elec       q    Type
REMARK                         _______ _______ _______ _____ _____    ______ ____
ROOT
ATOM      1  C   UNL     1      34.342 -12.131 -23.350  0.00  0.00    -0.059 C 
ATOM      2  C   UNL     1      32.881 -12.079 -22.892  0.00  0.00    -0.042 C 
ATOM      3  C   UNL     1      32.729  -9.654 -23.653  0.00  0.00    +0.005 C 
ATOM      4  C   UNL     1      32.467 -10.651 -22.495  0.00  0.00    -0.064 C 
ATOM      5  C   UNL     1      34.591 -11.158 -24.506  0.00  0.00    -0.021 C 
ATOM      6  C   UNL     1      34.194  -9.733 -24.125  0.00  0.00    +0.000 C 
ENDROOT
BRANCH   1   7
ATOM      7  N   UNL     1      34.684 -13.491 -23.767  0.00  0.00    +0.394 N 
ATOM      8  N   UNL     1      34.585 -16.213 -24.344  0.00  0.00    -0.299 N 
ATOM      9  N   UNL     1      33.753 -15.995 -26.349  0.00  0.00    -0.136 NA
ATOM     10  N   UNL     1      34.113 -17.319 -26.155  0.00  0.00    -0.125 NA
ATOM     11  C   UNL     1      34.553 -14.432 -22.639  0.00  0.00    -0.052 C 
ATOM     12  C   UNL     1      33.839 -13.908 -24.905  0.00  0.00    -0.009 C 
ATOM     13  C   UNL     1      35.066 -15.824 -23.039  0.00  0.00    +0.086 C 
ATOM     14  C   UNL     1      34.049 -15.339 -25.246  0.00  0.00    +0.122 A 
ATOM     15  C   UNL     1      34.613 -17.426 -24.942  0.00  0.00    +0.238 A 
ATOM     16  H   UNL     1      35.658 -13.500 -24.070  0.00  0.00    -0.079 HD
BRANCH  15  20
ATOM     17  F   UNL     1      36.467 -18.573 -23.957  0.00  0.00    -0.163 F 
ATOM     18  F   UNL     1      34.503 -18.986 -23.132  0.00  0.00    -0.163 F 
ATOM     19  F   UNL     1      35.042 -19.760 -25.092  0.00  0.00    -0.163 F 
ATOM     20  C   UNL     1      35.139 -18.643 -24.301  0.00  0.00    +0.452 C 
ENDBRANCH  15  20
ENDBRANCH   1   7
BRANCH   3  24
ATOM     21  F   UNL     1      31.167  -7.988 -25.339  0.00  0.00    -0.204 F 
ATOM     22  F   UNL     1      32.896  -5.823 -20.623  0.00  0.00    -0.202 F 
ATOM     23  F   UNL     1      31.383  -4.332 -22.342  0.00  0.00    -0.202 F 
ATOM     24  C   UNL     1      32.365  -8.218 -23.302  0.00  0.00    +0.005 C 
ATOM     25  C   UNL     1      31.594  -7.464 -24.182  0.00  0.00    +0.138 C 
ATOM     26  C   UNL     1      32.806  -7.670 -22.102  0.00  0.00    +0.030 C 
ATOM     27  C   UNL     1      32.475  -6.355 -21.777  0.00  0.00    +0.167 C 
ATOM     28  C   UNL     1      31.263  -6.149 -23.857  0.00  0.00    +0.061 C 
ATOM     29  C   UNL     1      31.703  -5.594 -22.656  0.00  0.00    +0.170 C 
ENDBRANCH   3  24
BRANCH   4  30
ATOM     30  N   UNL     1      31.051 -10.644 -22.113  0.00  0.00    +0.382 N 
ATOM     31  H   UNL     1      30.473 -10.600 -22.953  0.00  0.00    -0.089 HD
ATOM     32  H   UNL     1      30.861  -9.831 -21.527  0.00  0.00    -0.089 HD
ATOM     33  H   UNL     1      30.834 -11.495 -21.595  0.00  0.00    -0.089 HD
ENDBRANCH   4  30
TORSDOF 4
ENDMDL
MODEL 4
REMARK VINA RESULT:     -11.2      7.432     11.490
REMARK  Name = 11538992
REMARK  4 active torsions:
REMARK  status: ('A' for Active; 'I' for Inactive)
REMARK    1  A    between atoms: C_1  and  N_7
REMARK    2  A    between atoms: C_3  and  C_24
REMARK    3  A    between atoms: C_4  and  N_30
REMARK    4  A    between atoms: C_15  and  C_20
REMARK                            x       y       z     vdW  Elec       q    Type
REMARK                         _______ _______ _______ _____ _____    ______ ____
ROOT
ATOM      1  C   UNL     1      33.570 -12.140 -24.117  0.00  0.00    -0.059 C 
ATOM      2  C   UNL     1      34.640 -11.051 -24.248  0.00  0.00    -0.042 C 
ATOM      3  C   UNL     1      33.271  -9.524 -22.739  0.00  0.00    +0.005 C 
ATOM      4  C   UNL     1      34.036  -9.647 -24.083  0.00  0.00    -0.064 C 
ATOM      5  C   UNL     1      32.831 -12.026 -22.781  0.00  0.00    -0.021 C 
ATOM      6  C   UNL     1      32.216 -10.640 -22.605  0.00  0.00    +0.000 C 
ENDROOT
BRANCH   1   7
ATOM      7  N   UNL     1      34.189 -13.461 -24.228  0.00  0.00    +0.394 N 
ATOM      8  N   UNL     1      34.636 -16.209 -24.257  0.00  0.00    -0.299 N 
ATOM      9  N   UNL     1      34.000 -16.526 -26.320  0.00  0.00    -0.136 NA
ATOM     10  N   UNL     1      34.565 -17.697 -25.840  0.00  0.00    -0.125 NA
ATOM     11  C   UNL     1      34.105 -14.188 -22.948  0.00  0.00    -0.052 C 
ATOM     12  C   UNL     1      33.560 -14.234 -25.319  0.00  0.00    -0.009 C 
ATOM     13  C   UNL     1      34.896 -15.503 -23.024  0.00  0.00    +0.086 C 
ATOM     14  C   UNL     1      34.055 -15.635 -25.352  0.00  0.00    +0.122 A 
ATOM     15  C   UNL     1      34.942 -17.482 -24.598  0.00  0.00    +0.238 A 
ATOM     16  H   UNL     1      35.177 -13.336 -24.452  0.00  0.00    -0.079 HD
BRANCH  15  20
ATOM     17  F   UNL     1      36.894 -18.105 -23.363  0.00  0.00    -0.163 F 
ATOM     18  F   UNL     1      34.974 -18.591 -22.479  0.00  0.00    -0.163 F 
ATOM     19  F   UNL     1      35.687 -19.705 -24.205  0.00  0.00    -0.163 F 
ATOM     20  C   UNL     1      35.602 -18.436 -23.691  0.00  0.00    +0.452 C 
ENDBRANCH  15  20
ENDBRANCH   1   7
BRANCH   3  24
ATOM     21  F   UNL     1      33.334  -8.121 -20.273  0.00  0.00    -0.204 F 
ATOM     22  F   UNL     1      30.738  -5.705 -24.437  0.00  0.00    -0.202 F 
ATOM     23  F   UNL     1      30.875  -4.467 -22.005  0.00  0.00    -0.202 F 
ATOM     24  C   UNL     1      32.625  -8.160 -22.538  0.00  0.00    +0.005 C 
ATOM     25  C   UNL     1      32.699  -7.535 -21.297  0.00  0.00    +0.138 C 
ATOM     26  C   UNL     1      31.966  -7.549 -23.600  0.00  0.00    +0.030 C 
ATOM     27  C   UNL     1      31.374  -6.299 -23.419  0.00  0.00    +0.167 C 
ATOM     28  C   UNL     1      32.106  -6.285 -21.117  0.00  0.00    +0.061 C 
ATOM     29  C   UNL     1      31.443  -5.668 -22.177  0.00  0.00    +0.170 C 
ENDBRANCH   3  24
BRANCH   4  30
ATOM     30  N   UNL     1      35.103  -8.644 -24.166  0.00  0.00    +0.382 N 
ATOM     31  H   UNL     1      34.972  -7.947 -23.435  0.00  0.00    -0.089 HD
ATOM     32  H   UNL     1      35.072  -8.190 -25.079  0.00  0.00    -0.089 HD
ATOM     33  H   UNL     1      36.008  -9.100 -24.043  0.00  0.00    -0.089 HD
ENDBRANCH   4  30
TORSDOF 4
ENDMDL
MODEL 5
REMARK VINA RESULT:     -10.3      7.080     10.876
REMARK  Name = 11538992
REMARK  4 active torsions:
REMARK  status: ('A' for Active; 'I' for Inactive)
REMARK    1  A    between atoms: C_1  and  N_7
REMARK    2  A    between atoms: C_3  and  C_24
REMARK    3  A    between atoms: C_4  and  N_30
REMARK    4  A    between atoms: C_15  and  C_20
REMARK                            x       y       z     vdW  Elec       q    Type
REMARK                         _______ _______ _______ _____ _____    ______ ____
ROOT
ATOM      1  C   UNL     1      32.976 -12.669 -23.372  0.00  0.00    -0.059 C 
ATOM      2  C   UNL     1      34.148 -11.764 -23.764  0.00  0.00    -0.042 C 
ATOM      3  C   UNL     1      33.055  -9.818 -22.540  0.00  0.00    +0.005 C 
ATOM      4  C   UNL     1      33.713 -10.292 -23.862  0.00  0.00    -0.064 C 
ATOM      5  C   UNL     1      32.342 -12.208 -22.057  0.00  0.00    -0.021 C 
ATOM      6  C   UNL     1      31.895 -10.750 -22.140  0.00  0.00    +0.000 C 
ENDROOT
BRANCH   1   7
ATOM      7  N   UNL     1      33.438 -14.051 -23.239  0.00  0.00    +0.394 N 
ATOM      8  N   UNL     1      35.022 -16.323 -22.960  0.00  0.00    -0.299 N 
ATOM      9  N   UNL     1      35.136 -16.261 -20.782  0.00  0.00    -0.136 NA
ATOM     10  N   UNL     1      35.685 -17.454 -21.225  0.00  0.00    -0.125 NA
ATOM     11  C   UNL     1      34.328 -14.415 -24.357  0.00  0.00    -0.052 C 
ATOM     12  C   UNL     1      34.114 -14.246 -21.939  0.00  0.00    -0.009 C 
ATOM     13  C   UNL     1      34.679 -15.909 -24.300  0.00  0.00    +0.086 C 
ATOM     14  C   UNL     1      34.736 -15.592 -21.843  0.00  0.00    +0.122 A 
ATOM     15  C   UNL     1      35.604 -17.470 -22.539  0.00  0.00    +0.238 A 
ATOM     16  H   UNL     1      32.625 -14.667 -23.273  0.00  0.00    -0.079 HD
BRANCH  15  20
ATOM     17  F   UNL     1      35.792 -18.306 -24.773  0.00  0.00    -0.163 F 
ATOM     18  F   UNL     1      37.401 -18.793 -23.401  0.00  0.00    -0.163 F 
ATOM     19  F   UNL     1      35.461 -19.754 -23.185  0.00  0.00    -0.163 F 
ATOM     20  C   UNL     1      36.050 -18.542 -23.444  0.00  0.00    +0.452 C 
ENDBRANCH  15  20
ENDBRANCH   1   7
BRANCH   3  24
ATOM     21  F   UNL     1      33.527  -7.946 -20.459  0.00  0.00    -0.204 F 
ATOM     22  F   UNL     1      30.755  -6.159 -24.823  0.00  0.00    -0.202 F 
ATOM     23  F   UNL     1      31.280  -4.464 -22.745  0.00  0.00    -0.202 F 
ATOM     24  C   UNL     1      32.577  -8.373 -22.593  0.00  0.00    +0.005 C 
ATOM     25  C   UNL     1      32.847  -7.515 -21.531  0.00  0.00    +0.138 C 
ATOM     26  C   UNL     1      31.873  -7.922 -23.704  0.00  0.00    +0.030 C 
ATOM     27  C   UNL     1      31.433  -6.600 -23.756  0.00  0.00    +0.167 C 
ATOM     28  C   UNL     1      32.408  -6.192 -21.583  0.00  0.00    +0.061 C 
ATOM     29  C   UNL     1      31.701  -5.735 -22.694  0.00  0.00    +0.170 C 
ENDBRANCH   3  24
BRANCH   4  30
ATOM     30  N   UNL     1      34.877  -9.462 -24.191  0.00  0.00    +0.382 N 
ATOM     31  H   UNL     1      34.573  -8.651 -24.729  0.00  0.00    -0.089 HD
ATOM     32  H   UNL     1      35.539 -10.007 -24.741  0.00  0.00    -0.089 HD
ATOM     33  H   UNL     1      35.325  -9.149 -23.329  0.00  0.00    -0.089 HD
ENDBRANCH   4  30
TORSDOF 4
ENDMDL
MODEL 6
REMARK VINA RESULT:      -9.7     10.001     15.550
REMARK  Name = 11538992
REMARK  4 active torsions:
REMARK  status: ('A' for Active; 'I' for Inactive)
REMARK    1  A    between atoms: C_1  and  N_7
REMARK    2  A    between atoms: C_3  and  C_24
REMARK    3  A    between atoms: C_4  and  N_30
REMARK    4  A    between atoms: C_15  and  C_20
REMARK                            x       y       z     vdW  Elec       q    Type
REMARK                         _______ _______ _______ _____ _____    ______ ____
ROOT
ATOM      1  C   UNL     1      33.648  -8.762 -23.041  0.00  0.00    -0.059 C 
ATOM      2  C   UNL     1      34.502  -9.043 -24.282  0.00  0.00    -0.042 C 
ATOM      3  C   UNL     1      33.657 -11.444 -24.320  0.00  0.00    +0.005 C 
ATOM      4  C   UNL     1      34.905 -10.525 -24.363  0.00  0.00    -0.064 C 
ATOM      5  C   UNL     1      32.407  -9.658 -23.014  0.00  0.00    -0.021 C 
ATOM      6  C   UNL     1      32.790 -11.135 -23.084  0.00  0.00    +0.000 C 
ENDROOT
BRANCH   1   7
ATOM      7  N   UNL     1      33.242  -7.356 -23.026  0.00  0.00    +0.394 N 
ATOM      8  N   UNL     1      31.895  -4.959 -23.462  0.00  0.00    -0.299 N 
ATOM      9  N   UNL     1      30.439  -5.215 -21.858  0.00  0.00    -0.136 NA
ATOM     10  N   UNL     1      30.322  -3.932 -22.368  0.00  0.00    -0.125 NA
ATOM     11  C   UNL     1      33.260  -6.791 -24.388  0.00  0.00    -0.052 C 
ATOM     12  C   UNL     1      31.906  -7.212 -22.411  0.00  0.00    -0.009 C 
ATOM     13  C   UNL     1      32.992  -5.279 -24.346  0.00  0.00    +0.086 C 
ATOM     14  C   UNL     1      31.397  -5.821 -22.527  0.00  0.00    +0.122 A 
ATOM     15  C   UNL     1      31.209  -3.800 -23.331  0.00  0.00    +0.238 A 
ATOM     16  H   UNL     1      33.913  -6.834 -22.462  0.00  0.00    -0.079 HD
BRANCH  15  20
ATOM     17  F   UNL     1      32.455  -1.787 -23.676  0.00  0.00    -0.163 F 
ATOM     18  F   UNL     1      31.833  -2.874 -25.447  0.00  0.00    -0.163 F 
ATOM     19  F   UNL     1      30.363  -1.786 -24.269  0.00  0.00    -0.163 F 
ATOM     20  C   UNL     1      31.459  -2.604 -24.153  0.00  0.00    +0.452 C 
ENDBRANCH  15  20
ENDBRANCH   1   7
BRANCH   3  24
ATOM     21  F   UNL     1      33.328 -13.047 -26.639  0.00  0.00    -0.204 F 
ATOM     22  F   UNL     1      35.304 -15.515 -22.177  0.00  0.00    -0.202 F 
ATOM     23  F   UNL     1      34.937 -16.938 -24.481  0.00  0.00    -0.202 F 
ATOM     24  C   UNL     1      34.001 -12.927 -24.366  0.00  0.00    +0.005 C 
ATOM     25  C   UNL     1      33.812 -13.646 -25.542  0.00  0.00    +0.138 C 
ATOM     26  C   UNL     1      34.504 -13.551 -23.229  0.00  0.00    +0.030 C 
ATOM     27  C   UNL     1      34.820 -14.908 -23.267  0.00  0.00    +0.167 C 
ATOM     28  C   UNL     1      34.128 -15.003 -25.580  0.00  0.00    +0.061 C 
ATOM     29  C   UNL     1      34.632 -15.635 -24.444  0.00  0.00    +0.170 C 
ENDBRANCH   3  24
BRANCH   4  30
ATOM     30  N   UNL     1      35.677 -10.754 -25.588  0.00  0.00    +0.382 N 
ATOM     31  H   UNL     1      36.438 -10.077 -25.641  0.00  0.00    -0.089 HD
ATOM     32  H   UNL     1      35.068 -10.645 -26.399  0.00  0.00    -0.089 HD
ATOM     33  H   UNL     1      36.063 -11.698 -25.576  0.00  0.00    -0.089 HD
ENDBRANCH   4  30
TORSDOF 4
ENDMDL
MODEL 7
REMARK VINA RESULT:      -9.5      7.745     13.235
REMARK  Name = 11538992
REMARK  4 active torsions:
REMARK  status: ('A' for Active; 'I' for Inactive)
REMARK    1  A    between atoms: C_1  and  N_7
REMARK    2  A    between atoms: C_3  and  C_24
REMARK    3  A    between atoms: C_4  and  N_30
REMARK    4  A    between atoms: C_15  and  C_20
REMARK                            x       y       z     vdW  Elec       q    Type
REMARK                         _______ _______ _______ _____ _____    ______ ____
ROOT
ATOM      1  C   UNL     1      33.011 -11.872 -23.705  0.00  0.00    -0.059 C 
ATOM      2  C   UNL     1      32.884 -12.412 -22.276  0.00  0.00    -0.042 C 
ATOM      3  C   UNL     1      34.567 -14.243 -22.817  0.00  0.00    +0.005 C 
ATOM      4  C   UNL     1      33.174 -13.921 -22.217  0.00  0.00    -0.064 C 
ATOM      5  C   UNL     1      34.395 -12.177 -24.285  0.00  0.00    -0.021 C 
ATOM      6  C   UNL     1      34.696 -13.673 -24.243  0.00  0.00    +0.000 C 
ENDROOT
BRANCH   1   7
ATOM      7  N   UNL     1      32.779 -10.428 -23.713  0.00  0.00    +0.394 N 
ATOM      8  N   UNL     1      32.792  -7.716 -23.084  0.00  0.00    -0.299 N 
ATOM      9  N   UNL     1      34.652  -7.246 -24.124  0.00  0.00    -0.136 NA
ATOM     10  N   UNL     1      34.056  -6.063 -23.714  0.00  0.00    -0.125 NA
ATOM     11  C   UNL     1      32.094 -10.001 -22.479  0.00  0.00    -0.052 C 
ATOM     12  C   UNL     1      34.054  -9.702 -23.889  0.00  0.00    -0.009 C 
ATOM     13  C   UNL     1      31.709  -8.517 -22.564  0.00  0.00    +0.086 C 
ATOM     14  C   UNL     1      33.873  -8.235 -23.738  0.00  0.00    +0.122 A 
ATOM     15  C   UNL     1      32.938  -6.371 -23.092  0.00  0.00    +0.238 A 
ATOM     16  H   UNL     1      32.171 -10.204 -24.501  0.00  0.00    -0.079 HD
BRANCH  15  20
ATOM     17  F   UNL     1      30.673  -5.620 -22.920  0.00  0.00    -0.163 F 
ATOM     18  F   UNL     1      31.886  -5.505 -21.126  0.00  0.00    -0.163 F 
ATOM     19  F   UNL     1      32.240  -4.121 -22.766  0.00  0.00    -0.163 F 
ATOM     20  C   UNL     1      31.967  -5.439 -22.496  0.00  0.00    +0.452 C 
ENDBRANCH  15  20
ENDBRANCH   1   7
BRANCH   3  24
ATOM     21  F   UNL     1      35.303 -15.667 -20.474  0.00  0.00    -0.204 F 
ATOM     22  F   UNL     1      35.078 -18.513 -25.140  0.00  0.00    -0.202 F 
ATOM     23  F   UNL     1      35.773 -19.757 -22.808  0.00  0.00    -0.202 F 
ATOM     24  C   UNL     1      34.893 -15.731 -22.812  0.00  0.00    +0.005 C 
ATOM     25  C   UNL     1      35.246 -16.359 -21.621  0.00  0.00    +0.138 C 
ATOM     26  C   UNL     1      34.835 -16.451 -24.000  0.00  0.00    +0.030 C 
ATOM     27  C   UNL     1      35.133 -17.813 -24.000  0.00  0.00    +0.167 C 
ATOM     28  C   UNL     1      35.544 -17.721 -21.621  0.00  0.00    +0.061 C 
ATOM     29  C   UNL     1      35.488 -18.448 -22.809  0.00  0.00    +0.170 C 
ENDBRANCH   3  24
BRANCH   4  30
ATOM     30  N   UNL     1      33.088 -14.379 -20.827  0.00  0.00    +0.382 N 
ATOM     31  H   UNL     1      33.670 -15.207 -20.706  0.00  0.00    -0.089 HD
ATOM     32  H   UNL     1      32.120 -14.609 -20.604  0.00  0.00    -0.089 HD
ATOM     33  H   UNL     1      33.414 -13.640 -20.204  0.00  0.00    -0.089 HD
ENDBRANCH   4  30
TORSDOF 4
ENDMDL
MODEL 8
REMARK VINA RESULT:      -9.3      1.578      2.486
REMARK  Name = 11538992
REMARK  4 active torsions:
REMARK  status: ('A' for Active; 'I' for Inactive)
REMARK    1  A    between atoms: C_1  and  N_7
REMARK    2  A    between atoms: C_3  and  C_24
REMARK    3  A    between atoms: C_4  and  N_30
REMARK    4  A    between atoms: C_15  and  C_20
REMARK                            x       y       z     vdW  Elec       q    Type
REMARK                         _______ _______ _______ _____ _____    ______ ____
ROOT
ATOM      1  C   UNL     1      35.591 -21.194 -19.765  0.00  0.00    -0.059 C 
ATOM      2  C   UNL     1      36.769 -20.239 -19.983  0.00  0.00    -0.042 C 
ATOM      3  C   UNL     1      35.333 -18.821 -21.535  0.00  0.00    +0.005 C 
ATOM      4  C   UNL     1      36.689 -19.552 -21.357  0.00  0.00    -0.064 C 
ATOM      5  C   UNL     1      34.255 -20.464 -19.924  0.00  0.00    -0.021 C 
ATOM      6  C   UNL     1      34.154 -19.784 -21.287  0.00  0.00    +0.000 C 
ENDROOT
BRANCH   1   7
ATOM      7  N   UNL     1      35.675 -21.789 -18.431  0.00  0.00    +0.394 N 
ATOM      8  N   UNL     1      36.165 -23.511 -16.300  0.00  0.00    -0.299 N 
ATOM      9  N   UNL     1      38.221 -22.871 -15.952  0.00  0.00    -0.136 NA
ATOM     10  N   UNL     1      37.834 -23.712 -14.921  0.00  0.00    -0.125 NA
ATOM     11  C   UNL     1      34.911 -23.049 -18.371  0.00  0.00    -0.052 C 
ATOM     12  C   UNL     1      37.086 -22.006 -18.052  0.00  0.00    -0.009 C 
ATOM     13  C   UNL     1      34.868 -23.583 -16.931  0.00  0.00    +0.086 C 
ATOM     14  C   UNL     1      37.200 -22.757 -16.774  0.00  0.00    +0.122 A 
ATOM     15  C   UNL     1      36.592 -24.083 -15.150  0.00  0.00    +0.238 A 
ATOM     16  H   UNL     1      35.260 -21.139 -17.763  0.00  0.00    -0.079 HD
BRANCH  15  20
ATOM     17  F   UNL     1      36.403 -25.479 -13.216  0.00  0.00    -0.163 F 
ATOM     18  F   UNL     1      34.636 -24.366 -13.804  0.00  0.00    -0.163 F 
ATOM     19  F   UNL     1      35.291 -26.067 -14.990  0.00  0.00    -0.163 F 
ATOM     20  C   UNL     1      35.760 -24.967 -14.317  0.00  0.00    +0.452 C 
ENDBRANCH  15  20
ENDBRANCH   1   7
BRANCH   3  24
ATOM     21  F   UNL     1      34.939 -20.259 -23.950  0.00  0.00    -0.204 F 
ATOM     22  F   UNL     1      35.166 -14.806 -24.317  0.00  0.00    -0.202 F 
ATOM     23  F   UNL     1      34.791 -16.316 -26.564  0.00  0.00    -0.202 F 
ATOM     24  C   UNL     1      35.187 -18.148 -22.893  0.00  0.00    +0.005 C 
ATOM     25  C   UNL     1      34.996 -18.922 -24.033  0.00  0.00    +0.138 C 
ATOM     26  C   UNL     1      35.245 -16.761 -22.982  0.00  0.00    +0.030 C 
ATOM     27  C   UNL     1      35.112 -16.141 -24.224  0.00  0.00    +0.167 C 
ATOM     28  C   UNL     1      34.863 -18.302 -25.275  0.00  0.00    +0.061 C 
ATOM     29  C   UNL     1      34.921 -16.912 -25.371  0.00  0.00    +0.170 C 
ENDBRANCH   3  24
BRANCH   4  30
ATOM     30  N   UNL     1      37.807 -18.613 -21.498  0.00  0.00    +0.382 N 
ATOM     31  H   UNL     1      38.496 -19.001 -22.142  0.00  0.00    -0.089 HD
ATOM     32  H   UNL     1      38.240 -18.461 -20.588  0.00  0.00    -0.089 HD
ATOM     33  H   UNL     1      37.462 -17.726 -21.863  0.00  0.00    -0.089 HD
ENDBRANCH   4  30
TORSDOF 4
ENDMDL
MODEL 9
REMARK VINA RESULT:      -9.2      7.161     11.280
REMARK  Name = 11538992
REMARK  4 active torsions:
REMARK  status: ('A' for Active; 'I' for Inactive)
REMARK    1  A    between atoms: C_1  and  N_7
REMARK    2  A    between atoms: C_3  and  C_24
REMARK    3  A    between atoms: C_4  and  N_30
REMARK    4  A    between atoms: C_15  and  C_20
REMARK                            x       y       z     vdW  Elec       q    Type
REMARK                         _______ _______ _______ _____ _____    ______ ____
ROOT
ATOM      1  C   UNL     1      33.734 -12.468 -22.732  0.00  0.00    -0.059 C 
ATOM      2  C   UNL     1      32.420 -12.136 -22.018  0.00  0.00    -0.042 C 
ATOM      3  C   UNL     1      32.376  -9.860 -23.158  0.00  0.00    +0.005 C 
ATOM      4  C   UNL     1      32.260 -10.620 -21.811  0.00  0.00    -0.064 C 
ATOM      5  C   UNL     1      33.835 -11.729 -24.069  0.00  0.00    -0.021 C 
ATOM      6  C   UNL     1      33.688 -10.221 -23.881  0.00  0.00    +0.000 C 
ENDROOT
BRANCH   1   7
ATOM      7  N   UNL     1      33.827 -13.910 -22.956  0.00  0.00    +0.394 N 
ATOM      8  N   UNL     1      34.755 -16.470 -23.538  0.00  0.00    -0.299 N 
ATOM      9  N   UNL     1      35.496 -16.910 -21.534  0.00  0.00    -0.136 NA
ATOM     10  N   UNL     1      35.555 -18.065 -22.298  0.00  0.00    -0.125 NA
ATOM     11  C   UNL     1      34.230 -14.200 -24.344  0.00  0.00    -0.052 C 
ATOM     12  C   UNL     1      34.767 -14.522 -21.993  0.00  0.00    -0.009 C 
ATOM     13  C   UNL     1      34.168 -15.710 -24.618  0.00  0.00    +0.086 C 
ATOM     14  C   UNL     1      35.006 -15.957 -22.298  0.00  0.00    +0.122 A 
ATOM     15  C   UNL     1      35.102 -17.777 -23.499  0.00  0.00    +0.238 A 
ATOM     16  H   UNL     1      32.904 -14.320 -22.806  0.00  0.00    -0.079 HD
BRANCH  15  20
ATOM     17  F   UNL     1      35.733 -19.832 -24.550  0.00  0.00    -0.163 F 
ATOM     18  F   UNL     1      33.691 -19.161 -24.846  0.00  0.00    -0.163 F 
ATOM     19  F   UNL     1      35.327 -18.129 -25.840  0.00  0.00    -0.163 F 
ATOM     20  C   UNL     1      34.967 -18.695 -24.643  0.00  0.00    +0.452 C 
ENDBRANCH  15  20
ENDBRANCH   1   7
BRANCH   3  24
ATOM     21  F   UNL     1      31.262  -8.179 -25.155  0.00  0.00    -0.204 F 
ATOM     22  F   UNL     1      33.028  -5.759 -20.580  0.00  0.00    -0.202 F 
ATOM     23  F   UNL     1      31.933  -4.262 -22.587  0.00  0.00    -0.202 F 
ATOM     24  C   UNL     1      32.256  -8.349 -23.006  0.00  0.00    +0.005 C 
ATOM     25  C   UNL     1      31.697  -7.592 -24.032  0.00  0.00    +0.138 C 
ATOM     26  C   UNL     1      32.706  -7.737 -21.841  0.00  0.00    +0.030 C 
ATOM     27  C   UNL     1      32.597  -6.354 -21.699  0.00  0.00    +0.167 C 
ATOM     28  C   UNL     1      31.589  -6.209 -23.890  0.00  0.00    +0.061 C 
ATOM     29  C   UNL     1      32.038  -5.590 -22.724  0.00  0.00    +0.170 C 
ENDBRANCH   3  24
BRANCH   4  30
ATOM     30  N   UNL     1      30.969 -10.349 -21.171  0.00  0.00    +0.382 N 
ATOM     31  H   UNL     1      30.412 -11.203 -21.156  0.00  0.00    -0.089 HD
ATOM     32  H   UNL     1      30.473  -9.629 -21.696  0.00  0.00    -0.089 HD
ATOM     33  H   UNL     1      31.124 -10.028 -20.215  0.00  0.00    -0.089 HD
ENDBRANCH   4  30
TORSDOF 4
ENDMDL
