MODEL 1
REMARK VINA RESULT:     -10.9      0.000      0.000
REMARK  Name = 3559
REMARK  7 active torsions:
REMARK  status: ('A' for Active; 'I' for Inactive)
REMARK    1  A    between atoms: N_1  and  C_17
REMARK    2  A    between atoms: C_2  and  C_9
REMARK    3  A    between atoms: C_2  and  O_15
REMARK    4  A    between atoms: C_17  and  C_18
REMARK    5  A    between atoms: C_18  and  C_19
REMARK    6  A    between atoms: C_19  and  C_21
REMARK    7  A    between atoms: C_21  and  C_23
REMARK                            x       y       z     vdW  Elec       q    Type
REMARK                         _______ _______ _______ _____ _____    ______ ____
ROOT
ATOM      1  N   UNL     1      35.615 -20.319 -20.444  0.00  0.00    +0.387 N 
ATOM      2  C   UNL     1      34.237 -22.471 -18.928  0.00  0.00    +0.103 C 
ATOM      3  C   UNL     1      33.503 -21.309 -19.634  0.00  0.00    +0.008 C 
ATOM      4  C   UNL     1      35.696 -22.038 -18.654  0.00  0.00    +0.008 C 
ATOM      5  C   UNL     1      34.272 -20.756 -20.839  0.00  0.00    -0.075 C 
ATOM      6  C   UNL     1      36.388 -21.433 -19.883  0.00  0.00    -0.075 C 
ATOM      7  H   UNL     1      35.515 -19.609 -19.719  0.00  0.00    -0.080 HD
ENDROOT
BRANCH   2   9
ATOM      8 CL   UNL     1      31.623 -24.419 -13.845  0.00  0.00    -0.082 Cl
ATOM      9  C   UNL     1      33.575 -22.965 -17.641  0.00  0.00    +0.002 C 
ATOM     10  C   UNL     1      32.192 -22.876 -17.491  0.00  0.00    -0.001 C 
ATOM     11  C   UNL     1      34.355 -23.504 -16.619  0.00  0.00    -0.001 C 
ATOM     12  C   UNL     1      31.588 -23.326 -16.317  0.00  0.00    +0.011 C 
ATOM     13  C   UNL     1      33.752 -23.954 -15.446  0.00  0.00    +0.011 C 
ATOM     14  C   UNL     1      32.368 -23.865 -15.295  0.00  0.00    +0.058 C 
ENDBRANCH   2   9
BRANCH   2  15
ATOM     15  O   UNL     1      34.232 -23.597 -19.817  0.00  0.00    -0.383 OA
ATOM     16  H   UNL     1      34.457 -24.401 -19.322  0.00  0.00    +0.211 HD
ENDBRANCH   2  15
BRANCH   1  17
ATOM     17  C   UNL     1      36.319 -19.729 -21.583  0.00  0.00    -0.077 C 
BRANCH  17  18
ATOM     18  C   UNL     1      35.314 -19.190 -22.603  0.00  0.00    -0.015 C 
BRANCH  18  19
ATOM     19  C   UNL     1      35.867 -17.997 -23.388  0.00  0.00    +0.067 C 
BRANCH  19  21
ATOM     20  O   UNL     1      34.449 -18.308 -25.317  0.00  0.00    -0.291 OA
ATOM     21  C   UNL     1      34.944 -17.530 -24.505  0.00  0.00    +0.173 C 
BRANCH  21  23
ATOM     22  F   UNL     1      33.709 -12.096 -24.854  0.00  0.00    -0.204 F 
ATOM     23  C   UNL     1      34.612 -16.079 -24.597  0.00  0.00    +0.035 C 
ATOM     24  C   UNL     1      35.001 -15.246 -23.572  0.00  0.00    +0.005 C 
ATOM     25  C   UNL     1      33.932 -15.625 -25.706  0.00  0.00    +0.005 C 
ATOM     26  C   UNL     1      34.693 -13.888 -23.659  0.00  0.00    +0.030 C 
ATOM     27  C   UNL     1      33.624 -14.268 -25.793  0.00  0.00    +0.030 C 
ATOM     28  C   UNL     1      34.005 -13.399 -24.770  0.00  0.00    +0.140 C 
ENDBRANCH  21  23
ENDBRANCH  19  21
ENDBRANCH  18  19
ENDBRANCH  17  18
ENDBRANCH   1  17
TORSDOF 7
ENDMDL
MODEL 2
REMARK VINA RESULT:     -10.7      2.952      4.897
REMARK  Name = 3559
REMARK  7 active torsions:
REMARK  status: ('A' for Active; 'I' for Inactive)
REMARK    1  A    between atoms: N_1  and  C_17
REMARK    2  A    between atoms: C_2  and  C_9
REMARK    3  A    between atoms: C_2  and  O_15
REMARK    4  A    between atoms: C_17  and  C_18
REMARK    5  A    between atoms: C_18  and  C_19
REMARK    6  A    between atoms: C_19  and  C_21
REMARK    7  A    between atoms: C_21  and  C_23
REMARK                            x       y       z     vdW  Elec       q    Type
REMARK                         _______ _______ _______ _____ _____    ______ ____
ROOT
ATOM      1  N   UNL     1      35.005 -16.639 -23.638  0.00  0.00    +0.387 N 
ATOM      2  C   UNL     1      35.597 -19.040 -21.992  0.00  0.00    +0.103 C 
ATOM      3  C   UNL     1      34.981 -19.097 -23.408  0.00  0.00    +0.008 C 
ATOM      4  C   UNL     1      35.320 -17.643 -21.390  0.00  0.00    +0.008 C 
ATOM      5  C   UNL     1      35.375 -17.902 -24.284  0.00  0.00    -0.075 C 
ATOM      6  C   UNL     1      35.675 -16.493 -22.341  0.00  0.00    -0.075 C 
ATOM      7  H   UNL     1      33.999 -16.652 -23.472  0.00  0.00    -0.080 HD
ENDROOT
BRANCH   2   9
ATOM      8 CL   UNL     1      33.734 -23.372 -18.220  0.00  0.00    -0.082 Cl
ATOM      9  C   UNL     1      35.125 -20.138 -21.038  0.00  0.00    +0.002 C 
ATOM     10  C   UNL     1      33.762 -20.374 -20.869  0.00  0.00    -0.001 C 
ATOM     11  C   UNL     1      36.059 -20.900 -20.338  0.00  0.00    -0.001 C 
ATOM     12  C   UNL     1      33.332 -21.375 -19.997  0.00  0.00    +0.011 C 
ATOM     13  C   UNL     1      35.629 -21.901 -19.467  0.00  0.00    +0.011 C 
ATOM     14  C   UNL     1      34.265 -22.138 -19.297  0.00  0.00    +0.058 C 
ENDBRANCH   2   9
BRANCH   2  15
ATOM     15  O   UNL     1      37.013 -19.231 -22.123  0.00  0.00    -0.383 OA
ATOM     16  H   UNL     1      37.362 -18.620 -22.792  0.00  0.00    +0.211 HD
ENDBRANCH   2  15
BRANCH   1  17
ATOM     17  C   UNL     1      35.320 -15.506 -24.508  0.00  0.00    -0.077 C 
BRANCH  17  18
ATOM     18  C   UNL     1      34.200 -15.296 -25.529  0.00  0.00    -0.015 C 
BRANCH  18  19
ATOM     19  C   UNL     1      33.122 -14.335 -25.020  0.00  0.00    +0.067 C 
BRANCH  19  21
ATOM     20  O   UNL     1      34.541 -12.425 -24.616  0.00  0.00    -0.291 OA
ATOM     21  C   UNL     1      33.680 -13.190 -24.187  0.00  0.00    +0.173 C 
BRANCH  21  23
ATOM     22  F   UNL     1      31.671 -12.391 -19.039  0.00  0.00    -0.204 F 
ATOM     23  C   UNL     1      33.142 -12.977 -22.813  0.00  0.00    +0.035 C 
ATOM     24  C   UNL     1      33.313 -13.971 -21.876  0.00  0.00    +0.005 C 
ATOM     25  C   UNL     1      32.495 -11.793 -22.531  0.00  0.00    +0.005 C 
ATOM     26  C   UNL     1      32.811 -13.772 -20.590  0.00  0.00    +0.030 C 
ATOM     27  C   UNL     1      31.994 -11.594 -21.245  0.00  0.00    +0.030 C 
ATOM     28  C   UNL     1      32.152 -12.583 -20.274  0.00  0.00    +0.140 C 
ENDBRANCH  21  23
ENDBRANCH  19  21
ENDBRANCH  18  19
ENDBRANCH  17  18
ENDBRANCH   1  17
TORSDOF 7
ENDMDL
MODEL 3
REMARK VINA RESULT:     -10.6      3.608      5.735
REMARK  Name = 3559
REMARK  7 active torsions:
REMARK  status: ('A' for Active; 'I' for Inactive)
REMARK    1  A    between atoms: N_1  and  C_17
REMARK    2  A    between atoms: C_2  and  C_9
REMARK    3  A    between atoms: C_2  and  O_15
REMARK    4  A    between atoms: C_17  and  C_18
REMARK    5  A    between atoms: C_18  and  C_19
REMARK    6  A    between atoms: C_19  and  C_21
REMARK    7  A    between atoms: C_21  and  C_23
REMARK                            x       y       z     vdW  Elec       q    Type
REMARK                         _______ _______ _______ _____ _____    ______ ____
ROOT
ATOM      1  N   UNL     1      34.744 -16.142 -23.534  0.00  0.00    +0.387 N 
ATOM      2  C   UNL     1      35.565 -18.590 -22.065  0.00  0.00    +0.103 C 
ATOM      3  C   UNL     1      34.962 -18.600 -23.488  0.00  0.00    +0.008 C 
ATOM      4  C   UNL     1      35.148 -17.277 -21.364  0.00  0.00    +0.008 C 
ATOM      5  C   UNL     1      35.239 -17.310 -24.268  0.00  0.00    -0.075 C 
ATOM      6  C   UNL     1      35.391 -16.028 -22.222  0.00  0.00    -0.075 C 
ATOM      7  H   UNL     1      33.743 -16.266 -23.380  0.00  0.00    -0.080 HD
ENDROOT
BRANCH   2   9
ATOM      8 CL   UNL     1      34.128 -23.363 -18.658  0.00  0.00    -0.082 Cl
ATOM      9  C   UNL     1      35.201 -19.798 -21.201  0.00  0.00    +0.002 C 
ATOM     10  C   UNL     1      36.208 -20.565 -20.618  0.00  0.00    -0.001 C 
ATOM     11  C   UNL     1      33.862 -20.131 -20.999  0.00  0.00    -0.001 C 
ATOM     12  C   UNL     1      35.876 -21.668 -19.830  0.00  0.00    +0.011 C 
ATOM     13  C   UNL     1      33.531 -21.233 -20.212  0.00  0.00    +0.011 C 
ATOM     14  C   UNL     1      34.537 -22.001 -19.628  0.00  0.00    +0.058 C 
ENDBRANCH   2   9
BRANCH   2  15
ATOM     15  O   UNL     1      36.994 -18.630 -22.195  0.00  0.00    -0.383 OA
ATOM     16  H   UNL     1      37.380 -17.854 -21.760  0.00  0.00    +0.211 HD
ENDBRANCH   2  15
BRANCH   1  17
ATOM     17  C   UNL     1      34.948 -14.920 -24.313  0.00  0.00    -0.077 C 
BRANCH  17  18
ATOM     18  C   UNL     1      34.639 -13.690 -23.458  0.00  0.00    -0.015 C 
BRANCH  18  19
ATOM     19  C   UNL     1      33.137 -13.409 -23.366  0.00  0.00    +0.067 C 
BRANCH  19  21
ATOM     20  O   UNL     1      32.410 -14.413 -21.294  0.00  0.00    -0.291 OA
ATOM     21  C   UNL     1      32.614 -13.385 -21.936  0.00  0.00    +0.173 C 
BRANCH  21  23
ATOM     22  F   UNL     1      31.674  -8.443 -19.513  0.00  0.00    -0.204 F 
ATOM     23  C   UNL     1      32.365 -12.065 -21.289  0.00  0.00    +0.035 C 
ATOM     24  C   UNL     1      32.243 -10.951 -22.088  0.00  0.00    +0.005 C 
ATOM     25  C   UNL     1      32.263 -12.010 -19.916  0.00  0.00    +0.005 C 
ATOM     26  C   UNL     1      32.008  -9.716 -21.483  0.00  0.00    +0.030 C 
ATOM     27  C   UNL     1      32.028 -10.776 -19.311  0.00  0.00    +0.030 C 
ATOM     28  C   UNL     1      31.900  -9.628 -20.094  0.00  0.00    +0.140 C 
ENDBRANCH  21  23
ENDBRANCH  19  21
ENDBRANCH  18  19
ENDBRANCH  17  18
ENDBRANCH   1  17
TORSDOF 7
ENDMDL
MODEL 4
REMARK VINA RESULT:     -10.5      5.435     10.759
REMARK  Name = 3559
REMARK  7 active torsions:
REMARK  status: ('A' for Active; 'I' for Inactive)
REMARK    1  A    between atoms: N_1  and  C_17
REMARK    2  A    between atoms: C_2  and  C_9
REMARK    3  A    between atoms: C_2  and  O_15
REMARK    4  A    between atoms: C_17  and  C_18
REMARK    5  A    between atoms: C_18  and  C_19
REMARK    6  A    between atoms: C_19  and  C_21
REMARK    7  A    between atoms: C_21  and  C_23
REMARK                            x       y       z     vdW  Elec       q    Type
REMARK                         _______ _______ _______ _____ _____    ______ ____
ROOT
ATOM      1  N   UNL     1      34.952 -15.307 -24.244  0.00  0.00    +0.387 N 
ATOM      2  C   UNL     1      33.537 -12.769 -23.625  0.00  0.00    +0.103 C 
ATOM      3  C   UNL     1      33.698 -13.340 -25.052  0.00  0.00    +0.008 C 
ATOM      4  C   UNL     1      34.647 -13.365 -22.729  0.00  0.00    +0.008 C 
ATOM      5  C   UNL     1      33.829 -14.868 -25.078  0.00  0.00    -0.075 C 
ATOM      6  C   UNL     1      34.770 -14.889 -22.849  0.00  0.00    -0.075 C 
ATOM      7  H   UNL     1      35.800 -14.863 -24.597  0.00  0.00    -0.080 HD
ENDROOT
BRANCH   2   9
ATOM      8 CL   UNL     1      33.545  -6.741 -23.271  0.00  0.00    -0.082 Cl
ATOM      9  C   UNL     1      33.539 -11.243 -23.537  0.00  0.00    +0.002 C 
ATOM     10  C   UNL     1      34.542 -10.510 -24.168  0.00  0.00    -0.001 C 
ATOM     11  C   UNL     1      32.537 -10.586 -22.824  0.00  0.00    -0.001 C 
ATOM     12  C   UNL     1      34.544  -9.117 -24.086  0.00  0.00    +0.011 C 
ATOM     13  C   UNL     1      32.538  -9.194 -22.743  0.00  0.00    +0.011 C 
ATOM     14  C   UNL     1      33.542  -8.460 -23.374  0.00  0.00    +0.058 C 
ENDBRANCH   2   9
BRANCH   2  15
ATOM     15  O   UNL     1      32.253 -13.179 -23.132  0.00  0.00    -0.383 OA
ATOM     16  H   UNL     1      32.326 -14.063 -22.737  0.00  0.00    +0.211 HD
ENDBRANCH   2  15
BRANCH   1  17
ATOM     17  C   UNL     1      35.116 -16.759 -24.327  0.00  0.00    -0.077 C 
BRANCH  17  18
ATOM     18  C   UNL     1      35.696 -17.301 -23.019  0.00  0.00    -0.015 C 
BRANCH  18  19
ATOM     19  C   UNL     1      35.857 -18.823 -23.041  0.00  0.00    +0.067 C 
BRANCH  19  21
ATOM     20  O   UNL     1      37.534 -19.121 -21.331  0.00  0.00    -0.291 OA
ATOM     21  C   UNL     1      36.408 -19.391 -21.741  0.00  0.00    +0.173 C 
BRANCH  21  23
ATOM     22  F   UNL     1      33.146 -22.742 -18.690  0.00  0.00    -0.204 F 
ATOM     23  C   UNL     1      35.537 -20.287 -20.928  0.00  0.00    +0.035 C 
ATOM     24  C   UNL     1      36.131 -21.240 -20.131  0.00  0.00    +0.005 C 
ATOM     25  C   UNL     1      34.170 -20.127 -21.001  0.00  0.00    +0.005 C 
ATOM     26  C   UNL     1      35.316 -22.077 -19.368  0.00  0.00    +0.030 C 
ATOM     27  C   UNL     1      33.356 -20.963 -20.239  0.00  0.00    +0.030 C 
ATOM     28  C   UNL     1      33.928 -21.939 -19.422  0.00  0.00    +0.140 C 
ENDBRANCH  21  23
ENDBRANCH  19  21
ENDBRANCH  18  19
ENDBRANCH  17  18
ENDBRANCH   1  17
TORSDOF 7
ENDMDL
MODEL 5
REMARK VINA RESULT:     -10.4      5.596     10.722
REMARK  Name = 3559
REMARK  7 active torsions:
REMARK  status: ('A' for Active; 'I' for Inactive)
REMARK    1  A    between atoms: N_1  and  C_17
REMARK    2  A    between atoms: C_2  and  C_9
REMARK    3  A    between atoms: C_2  and  O_15
REMARK    4  A    between atoms: C_17  and  C_18
REMARK    5  A    between atoms: C_18  and  C_19
REMARK    6  A    between atoms: C_19  and  C_21
REMARK    7  A    between atoms: C_21  and  C_23
REMARK                            x       y       z     vdW  Elec       q    Type
REMARK                         _______ _______ _______ _____ _____    ______ ____
ROOT
ATOM      1  N   UNL     1      33.139 -23.431 -15.570  0.00  0.00    +0.387 N 
ATOM      2  C   UNL     1      33.940 -22.831 -18.367  0.00  0.00    +0.103 C 
ATOM      3  C   UNL     1      34.936 -22.942 -17.191  0.00  0.00    +0.008 C 
ATOM      4  C   UNL     1      32.538 -22.515 -17.797  0.00  0.00    +0.008 C 
ATOM      5  C   UNL     1      34.445 -23.868 -16.072  0.00  0.00    -0.075 C 
ATOM      6  C   UNL     1      32.134 -23.436 -16.638  0.00  0.00    -0.075 C 
ATOM      7  H   UNL     1      33.235 -22.474 -15.233  0.00  0.00    -0.080 HD
ENDROOT
BRANCH   2   9
ATOM      8 CL   UNL     1      35.450 -18.814 -22.614  0.00  0.00    -0.082 Cl
ATOM      9  C   UNL     1      34.322 -21.815 -19.443  0.00  0.00    +0.002 C 
ATOM     10  C   UNL     1      35.666 -21.557 -19.711  0.00  0.00    -0.001 C 
ATOM     11  C   UNL     1      33.327 -21.147 -20.155  0.00  0.00    -0.001 C 
ATOM     12  C   UNL     1      36.015 -20.629 -20.693  0.00  0.00    +0.011 C 
ATOM     13  C   UNL     1      33.676 -20.219 -21.136  0.00  0.00    +0.011 C 
ATOM     14  C   UNL     1      35.020 -19.960 -21.405  0.00  0.00    +0.058 C 
ENDBRANCH   2   9
BRANCH   2  15
ATOM     15  O   UNL     1      33.908 -24.101 -19.035  0.00  0.00    -0.383 OA
ATOM     16  H   UNL     1      33.906 -23.961 -19.995  0.00  0.00    +0.211 HD
ENDBRANCH   2  15
BRANCH   1  17
ATOM     17  C   UNL     1      32.708 -24.277 -14.456  0.00  0.00    -0.077 C 
BRANCH  17  18
ATOM     18  C   UNL     1      33.904 -25.034 -13.874  0.00  0.00    -0.015 C 
BRANCH  18  19
ATOM     19  C   UNL     1      34.605 -24.246 -12.764  0.00  0.00    +0.067 C 
BRANCH  19  21
ATOM     20  O   UNL     1      35.968 -25.386 -11.130  0.00  0.00    -0.291 OA
ATOM     21  C   UNL     1      35.877 -24.914 -12.261  0.00  0.00    +0.173 C 
BRANCH  21  23
ATOM     22  F   UNL     1      40.236 -25.310 -15.728  0.00  0.00    -0.204 F 
ATOM     23  C   UNL     1      37.042 -25.019 -13.185  0.00  0.00    +0.035 C 
ATOM     24  C   UNL     1      37.849 -26.132 -13.108  0.00  0.00    +0.005 C 
ATOM     25  C   UNL     1      37.267 -24.000 -14.085  0.00  0.00    +0.005 C 
ATOM     26  C   UNL     1      38.938 -26.231 -13.974  0.00  0.00    +0.030 C 
ATOM     27  C   UNL     1      38.355 -24.099 -14.951  0.00  0.00    +0.030 C 
ATOM     28  C   UNL     1      39.191 -25.215 -14.896  0.00  0.00    +0.140 C 
ENDBRANCH  21  23
ENDBRANCH  19  21
ENDBRANCH  18  19
ENDBRANCH  17  18
ENDBRANCH   1  17
TORSDOF 7
ENDMDL
MODEL 6
REMARK VINA RESULT:     -10.4      3.389      5.843
REMARK  Name = 3559
REMARK  7 active torsions:
REMARK  status: ('A' for Active; 'I' for Inactive)
REMARK    1  A    between atoms: N_1  and  C_17
REMARK    2  A    between atoms: C_2  and  C_9
REMARK    3  A    between atoms: C_2  and  O_15
REMARK    4  A    between atoms: C_17  and  C_18
REMARK    5  A    between atoms: C_18  and  C_19
REMARK    6  A    between atoms: C_19  and  C_21
REMARK    7  A    between atoms: C_21  and  C_23
REMARK                            x       y       z     vdW  Elec       q    Type
REMARK                         _______ _______ _______ _____ _____    ______ ____
ROOT
ATOM      1  N   UNL     1      34.556 -16.336 -24.179  0.00  0.00    +0.387 N 
ATOM      2  C   UNL     1      35.690 -18.545 -22.548  0.00  0.00    +0.103 C 
ATOM      3  C   UNL     1      34.865 -18.762 -23.837  0.00  0.00    +0.008 C 
ATOM      4  C   UNL     1      35.346 -17.152 -21.972  0.00  0.00    +0.008 C 
ATOM      5  C   UNL     1      34.967 -17.589 -24.820  0.00  0.00    -0.075 C 
ATOM      6  C   UNL     1      35.403 -16.033 -23.021  0.00  0.00    -0.075 C 
ATOM      7  H   UNL     1      33.599 -16.450 -23.848  0.00  0.00    -0.080 HD
ENDROOT
BRANCH   2   9
ATOM      8 CL   UNL     1      34.992 -22.812 -18.333  0.00  0.00    -0.082 Cl
ATOM      9  C   UNL     1      35.513 -19.624 -21.480  0.00  0.00    +0.002 C 
ATOM     10  C   UNL     1      36.628 -20.147 -20.827  0.00  0.00    -0.001 C 
ATOM     11  C   UNL     1      34.237 -20.086 -21.160  0.00  0.00    -0.001 C 
ATOM     12  C   UNL     1      36.467 -21.133 -19.853  0.00  0.00    +0.011 C 
ATOM     13  C   UNL     1      34.076 -21.071 -20.187  0.00  0.00    +0.011 C 
ATOM     14  C   UNL     1      35.191 -21.594 -19.533  0.00  0.00    +0.058 C 
ENDBRANCH   2   9
BRANCH   2  15
ATOM     15  O   UNL     1      37.079 -18.586 -22.905  0.00  0.00    -0.383 OA
ATOM     16  H   UNL     1      37.346 -17.725 -23.266  0.00  0.00    +0.211 HD
ENDBRANCH   2  15
BRANCH   1  17
ATOM     17  C   UNL     1      34.589 -15.234 -25.141  0.00  0.00    -0.077 C 
BRANCH  17  18
ATOM     18  C   UNL     1      33.592 -14.147 -24.733  0.00  0.00    -0.015 C 
BRANCH  18  19
ATOM     19  C   UNL     1      34.275 -12.962 -24.044  0.00  0.00    +0.067 C 
BRANCH  19  21
ATOM     20  O   UNL     1      34.455 -11.737 -26.116  0.00  0.00    -0.291 OA
ATOM     21  C   UNL     1      34.302 -11.702 -24.898  0.00  0.00    +0.173 C 
BRANCH  21  23
ATOM     22  F   UNL     1      33.591  -6.764 -22.391  0.00  0.00    -0.204 F 
ATOM     23  C   UNL     1      34.111 -10.383 -24.230  0.00  0.00    +0.035 C 
ATOM     24  C   UNL     1      32.978 -10.183 -23.474  0.00  0.00    +0.005 C 
ATOM     25  C   UNL     1      35.077  -9.414 -24.391  0.00  0.00    +0.005 C 
ATOM     26  C   UNL     1      32.800  -8.949 -22.847  0.00  0.00    +0.030 C 
ATOM     27  C   UNL     1      34.900  -8.181 -23.764  0.00  0.00    +0.030 C 
ATOM     28  C   UNL     1      33.761  -7.948 -22.992  0.00  0.00    +0.140 C 
ENDBRANCH  21  23
ENDBRANCH  19  21
ENDBRANCH  18  19
ENDBRANCH  17  18
ENDBRANCH   1  17
TORSDOF 7
ENDMDL
MODEL 7
REMARK VINA RESULT:     -10.3      4.715      9.983
REMARK  Name = 3559
REMARK  7 active torsions:
REMARK  status: ('A' for Active; 'I' for Inactive)
REMARK    1  A    between atoms: N_1  and  C_17
REMARK    2  A    between atoms: C_2  and  C_9
REMARK    3  A    between atoms: C_2  and  O_15
REMARK    4  A    between atoms: C_17  and  C_18
REMARK    5  A    between atoms: C_18  and  C_19
REMARK    6  A    between atoms: C_19  and  C_21
REMARK    7  A    between atoms: C_21  and  C_23
REMARK                            x       y       z     vdW  Elec       q    Type
REMARK                         _______ _______ _______ _____ _____    ______ ____
ROOT
ATOM      1  N   UNL     1      36.175 -19.963 -20.369  0.00  0.00    +0.387 N 
ATOM      2  C   UNL     1      35.727 -18.568 -22.953  0.00  0.00    +0.103 C 
ATOM      3  C   UNL     1      36.922 -18.282 -22.016  0.00  0.00    +0.008 C 
ATOM      4  C   UNL     1      34.590 -19.204 -22.122  0.00  0.00    +0.008 C 
ATOM      5  C   UNL     1      37.316 -19.490 -21.159  0.00  0.00    -0.075 C 
ATOM      6  C   UNL     1      35.063 -20.365 -21.237  0.00  0.00    -0.075 C 
ATOM      7  H   UNL     1      35.855 -19.192 -19.785  0.00  0.00    -0.080 HD
ENDROOT
BRANCH   2   9
ATOM      8 CL   UNL     1      33.692 -13.781 -26.019  0.00  0.00    -0.082 Cl
ATOM      9  C   UNL     1      35.210 -17.356 -23.729  0.00  0.00    +0.002 C 
ATOM     10  C   UNL     1      34.692 -17.521 -25.013  0.00  0.00    -0.001 C 
ATOM     11  C   UNL     1      35.259 -16.088 -23.153  0.00  0.00    -0.001 C 
ATOM     12  C   UNL     1      34.222 -16.414 -25.721  0.00  0.00    +0.011 C 
ATOM     13  C   UNL     1      34.789 -14.982 -23.861  0.00  0.00    +0.011 C 
ATOM     14  C   UNL     1      34.271 -15.146 -25.145  0.00  0.00    +0.058 C 
ENDBRANCH   2   9
BRANCH   2  15
ATOM     15  O   UNL     1      36.168 -19.501 -23.952  0.00  0.00    -0.383 OA
ATOM     16  H   UNL     1      35.553 -20.250 -23.988  0.00  0.00    +0.211 HD
ENDBRANCH   2  15
BRANCH   1  17
ATOM     17  C   UNL     1      36.575 -21.072 -19.502  0.00  0.00    -0.077 C 
BRANCH  17  18
ATOM     18  C   UNL     1      35.567 -22.217 -19.610  0.00  0.00    -0.015 C 
BRANCH  18  19
ATOM     19  C   UNL     1      34.993 -22.616 -18.248  0.00  0.00    +0.067 C 
BRANCH  19  21
ATOM     20  O   UNL     1      32.790 -22.401 -19.213  0.00  0.00    -0.291 OA
ATOM     21  C   UNL     1      33.471 -22.644 -18.219  0.00  0.00    +0.173 C 
BRANCH  21  23
ATOM     22  F   UNL     1      30.912 -23.994 -13.443  0.00  0.00    -0.204 F 
ATOM     23  C   UNL     1      32.787 -23.003 -16.943  0.00  0.00    +0.035 C 
ATOM     24  C   UNL     1      31.412 -22.963 -16.897  0.00  0.00    +0.005 C 
ATOM     25  C   UNL     1      33.557 -23.363 -15.859  0.00  0.00    +0.005 C 
ATOM     26  C   UNL     1      30.773 -23.300 -15.704  0.00  0.00    +0.030 C 
ATOM     27  C   UNL     1      32.918 -23.701 -14.666  0.00  0.00    +0.030 C 
ATOM     28  C   UNL     1      31.525 -23.670 -14.589  0.00  0.00    +0.140 C 
ENDBRANCH  21  23
ENDBRANCH  19  21
ENDBRANCH  18  19
ENDBRANCH  17  18
ENDBRANCH   1  17
TORSDOF 7
ENDMDL
MODEL 8
REMARK VINA RESULT:     -10.0      4.749      9.289
REMARK  Name = 3559
REMARK  7 active torsions:
REMARK  status: ('A' for Active; 'I' for Inactive)
REMARK    1  A    between atoms: N_1  and  C_17
REMARK    2  A    between atoms: C_2  and  C_9
REMARK    3  A    between atoms: C_2  and  O_15
REMARK    4  A    between atoms: C_17  and  C_18
REMARK    5  A    between atoms: C_18  and  C_19
REMARK    6  A    between atoms: C_19  and  C_21
REMARK    7  A    between atoms: C_21  and  C_23
REMARK                            x       y       z     vdW  Elec       q    Type
REMARK                         _______ _______ _______ _____ _____    ______ ____
ROOT
ATOM      1  N   UNL     1      34.563 -16.549 -24.091  0.00  0.00    +0.387 N 
ATOM      2  C   UNL     1      34.028 -13.909 -22.840  0.00  0.00    +0.103 C 
ATOM      3  C   UNL     1      34.672 -15.100 -22.096  0.00  0.00    +0.008 C 
ATOM      4  C   UNL     1      33.232 -14.455 -24.048  0.00  0.00    +0.008 C 
ATOM      5  C   UNL     1      35.437 -16.048 -23.026  0.00  0.00    -0.075 C 
ATOM      6  C   UNL     1      34.032 -15.447 -24.902  0.00  0.00    -0.075 C 
ATOM      7  H   UNL     1      33.775 -17.026 -23.655  0.00  0.00    -0.080 HD
ENDROOT
BRANCH   2   9
ATOM      8 CL   UNL     1      30.534 -10.358 -19.428  0.00  0.00    -0.082 Cl
ATOM      9  C   UNL     1      33.142 -13.010 -21.977  0.00  0.00    +0.002 C 
ATOM     10  C   UNL     1      32.585 -11.853 -22.519  0.00  0.00    -0.001 C 
ATOM     11  C   UNL     1      32.893 -13.348 -20.647  0.00  0.00    -0.001 C 
ATOM     12  C   UNL     1      31.777 -11.033 -21.731  0.00  0.00    +0.011 C 
ATOM     13  C   UNL     1      32.086 -12.529 -19.860  0.00  0.00    +0.011 C 
ATOM     14  C   UNL     1      31.528 -11.371 -20.401  0.00  0.00    +0.058 C 
ENDBRANCH   2   9
BRANCH   2  15
ATOM     15  O   UNL     1      35.087 -13.062 -23.310  0.00  0.00    -0.383 OA
ATOM     16  H   UNL     1      34.735 -12.434 -23.962  0.00  0.00    +0.211 HD
ENDBRANCH   2  15
BRANCH   1  17
ATOM     17  C   UNL     1      35.279 -17.507 -24.935  0.00  0.00    -0.077 C 
BRANCH  17  18
ATOM     18  C   UNL     1      36.053 -18.501 -24.066  0.00  0.00    -0.015 C 
BRANCH  18  19
ATOM     19  C   UNL     1      35.133 -19.298 -23.137  0.00  0.00    +0.067 C 
BRANCH  19  21
ATOM     20  O   UNL     1      36.622 -18.769 -21.312  0.00  0.00    -0.291 OA
ATOM     21  C   UNL     1      35.682 -19.444 -21.724  0.00  0.00    +0.173 C 
BRANCH  21  23
ATOM     22  F   UNL     1      33.263 -23.110 -18.277  0.00  0.00    -0.204 F 
ATOM     23  C   UNL     1      35.036 -20.424 -20.805  0.00  0.00    +0.035 C 
ATOM     24  C   UNL     1      35.838 -21.271 -20.075  0.00  0.00    +0.005 C 
ATOM     25  C   UNL     1      33.661 -20.443 -20.719  0.00  0.00    +0.005 C 
ATOM     26  C   UNL     1      35.233 -22.187 -19.213  0.00  0.00    +0.030 C 
ATOM     27  C   UNL     1      33.057 -21.359 -19.858  0.00  0.00    +0.030 C 
ATOM     28  C   UNL     1      33.843 -22.231 -19.104  0.00  0.00    +0.140 C 
ENDBRANCH  21  23
ENDBRANCH  19  21
ENDBRANCH  18  19
ENDBRANCH  17  18
ENDBRANCH   1  17
TORSDOF 7
ENDMDL
MODEL 9
REMARK VINA RESULT:      -9.9      5.599     10.521
REMARK  Name = 3559
REMARK  7 active torsions:
REMARK  status: ('A' for Active; 'I' for Inactive)
REMARK    1  A    between atoms: N_1  and  C_17
REMARK    2  A    between atoms: C_2  and  C_9
REMARK    3  A    between atoms: C_2  and  O_15
REMARK    4  A    between atoms: C_17  and  C_18
REMARK    5  A    between atoms: C_18  and  C_19
REMARK    6  A    between atoms: C_19  and  C_21
REMARK    7  A    between atoms: C_21  and  C_23
REMARK                            x       y       z     vdW  Elec       q    Type
REMARK                         _______ _______ _______ _____ _____    ______ ____
ROOT
ATOM      1  N   UNL     1      34.575 -14.870 -21.406  0.00  0.00    +0.387 N 
ATOM      2  C   UNL     1      32.849 -12.610 -22.266  0.00  0.00    +0.103 C 
ATOM      3  C   UNL     1      34.117 -13.063 -23.025  0.00  0.00    +0.008 C 
ATOM      4  C   UNL     1      32.955 -13.089 -20.801  0.00  0.00    +0.008 C 
ATOM      5  C   UNL     1      34.435 -14.550 -22.830  0.00  0.00    -0.075 C 
ATOM      6  C   UNL     1      33.340 -14.569 -20.674  0.00  0.00    -0.075 C 
ATOM      7  H   UNL     1      35.317 -14.286 -21.023  0.00  0.00    -0.080 HD
ENDROOT
BRANCH   2   9
ATOM      8 CL   UNL     1      31.740  -6.678 -22.475  0.00  0.00    -0.082 Cl
ATOM      9  C   UNL     1      32.567 -11.108 -22.320  0.00  0.00    +0.002 C 
ATOM     10  C   UNL     1      32.792 -10.399 -23.498  0.00  0.00    -0.001 C 
ATOM     11  C   UNL     1      32.086 -10.449 -21.189  0.00  0.00    -0.001 C 
ATOM     12  C   UNL     1      32.536  -9.028 -23.547  0.00  0.00    +0.011 C 
ATOM     13  C   UNL     1      31.829  -9.079 -21.238  0.00  0.00    +0.011 C 
ATOM     14  C   UNL     1      32.054  -8.369 -22.416  0.00  0.00    +0.058 C 
ENDBRANCH   2   9
BRANCH   2  15
ATOM     15  O   UNL     1      31.718 -13.233 -22.893  0.00  0.00    -0.383 OA
ATOM     16  H   UNL     1      32.018 -13.758 -23.652  0.00  0.00    +0.211 HD
ENDBRANCH   2  15
BRANCH   1  17
ATOM     17  C   UNL     1      34.947 -16.274 -21.230  0.00  0.00    -0.077 C 
BRANCH  17  18
ATOM     18  C   UNL     1      35.636 -16.800 -22.491  0.00  0.00    -0.015 C 
BRANCH  18  19
ATOM     19  C   UNL     1      36.211 -18.206 -22.295  0.00  0.00    +0.067 C 
BRANCH  19  21
ATOM     20  O   UNL     1      34.488 -19.468 -23.420  0.00  0.00    -0.291 OA
ATOM     21  C   UNL     1      35.165 -19.306 -22.407  0.00  0.00    +0.173 C 
BRANCH  21  23
ATOM     22  F   UNL     1      34.458 -22.781 -18.095  0.00  0.00    -0.204 F 
ATOM     23  C   UNL     1      34.976 -20.233 -21.255  0.00  0.00    +0.035 C 
ATOM     24  C   UNL     1      33.695 -20.532 -20.851  0.00  0.00    +0.005 C 
ATOM     25  C   UNL     1      36.091 -20.757 -20.638  0.00  0.00    +0.005 C 
ATOM     26  C   UNL     1      33.518 -21.400 -19.773  0.00  0.00    +0.030 C 
ATOM     27  C   UNL     1      35.915 -21.625 -19.561  0.00  0.00    +0.030 C 
ATOM     28  C   UNL     1      34.627 -21.947 -19.129  0.00  0.00    +0.140 C 
ENDBRANCH  21  23
ENDBRANCH  19  21
ENDBRANCH  18  19
ENDBRANCH  17  18
ENDBRANCH   1  17
TORSDOF 7
ENDMDL
