MODEL 1
REMARK VINA RESULT:     -12.4      0.000      0.000
REMARK  Name = 448889
REMARK  5 active torsions:
REMARK  status: ('A' for Active; 'I' for Inactive)
REMARK    1  A    between atoms: C_1  and  N_2
REMARK    2  A    between atoms: C_1  and  C_16
REMARK    3  A    between atoms: C_6  and  C_10
REMARK    4  A    between atoms: C_16  and  C_17
REMARK    5  A    between atoms: C_17  and  C_21
REMARK                            x       y       z     vdW  Elec       q    Type
REMARK                         _______ _______ _______ _____ _____    ______ ____
ROOT
ATOM      1  C   UNL     1      35.040 -16.027 -25.099  0.00  0.00    -0.076 C 
ENDROOT
BRANCH   1   2
ATOM      2  N   UNL     1      34.792 -16.968 -24.010  0.00  0.00    +0.390 N 
ATOM      3  C   UNL     1      35.787 -16.817 -22.943  0.00  0.00    -0.072 C 
ATOM      4  C   UNL     1      35.404 -17.697 -21.744  0.00  0.00    +0.003 C 
ATOM      5  C   UNL     1      34.774 -18.352 -24.510  0.00  0.00    -0.051 C 
ATOM      6  C   UNL     1      35.049 -19.113 -22.140  0.00  0.00    -0.031 C 
ATOM      7  C   UNL     1      34.763 -19.395 -23.426  0.00  0.00    -0.053 C 
ATOM      8  H   UNL     1      33.875 -16.757 -23.617  0.00  0.00    -0.079 HD
BRANCH   6  10
ATOM      9  F   UNL     1      34.948 -23.051 -18.139  0.00  0.00    -0.204 F 
ATOM     10  C   UNL     1      35.021 -20.153 -21.084  0.00  0.00    -0.004 C 
ATOM     11  C   UNL     1      33.803 -20.676 -20.647  0.00  0.00    +0.002 C 
ATOM     12  C   UNL     1      36.215 -20.613 -20.524  0.00  0.00    +0.002 C 
ATOM     13  C   UNL     1      33.778 -21.655 -19.653  0.00  0.00    +0.030 C 
ATOM     14  C   UNL     1      36.190 -21.592 -19.530  0.00  0.00    +0.030 C 
ATOM     15  C   UNL     1      34.971 -22.112 -19.094  0.00  0.00    +0.140 C 
ENDBRANCH   6  10
ENDBRANCH   1   2
BRANCH   1  16
ATOM     16  C   UNL     1      33.894 -15.016 -25.196  0.00  0.00    -0.014 C 
BRANCH  16  17
ATOM     17  C   UNL     1      34.291 -13.635 -24.699  0.00  0.00    +0.074 C 
BRANCH  17  21
ATOM     18  O   UNL     1      33.307 -14.947 -20.297  0.00  0.00    -0.209 OA
ATOM     19  N   UNL     1      33.089 -12.150 -23.160  0.00  0.00    -0.290 N 
ATOM     20  N   UNL     1      33.790 -14.314 -22.445  0.00  0.00    -0.322 NA
ATOM     21  C   UNL     1      33.693 -13.372 -23.339  0.00  0.00    +0.173 C 
ATOM     22  C   UNL     1      32.518 -11.851 -21.921  0.00  0.00    +0.058 C 
ATOM     23  C   UNL     1      32.579 -12.807 -20.899  0.00  0.00    +0.108 C 
ATOM     24  C   UNL     1      31.892 -10.625 -21.676  0.00  0.00    -0.008 C 
ATOM     25  C   UNL     1      33.254 -14.105 -21.187  0.00  0.00    +0.207 C 
ATOM     26  C   UNL     1      32.021 -12.546 -19.644  0.00  0.00    +0.014 C 
ATOM     27  C   UNL     1      31.333 -10.362 -20.424  0.00  0.00    -0.003 C 
ATOM     28  C   UNL     1      31.397 -11.320 -19.412  0.00  0.00    +0.001 C 
ATOM     29  C   UNL     1      31.801  -9.571 -22.731  0.00  0.00    +0.032 C 
ATOM     30  H   UNL     1      33.060 -11.496 -23.894  0.00  0.00    +0.154 HD
ENDBRANCH  17  21
ENDBRANCH  16  17
ENDBRANCH   1  16
TORSDOF 5
ENDMDL
MODEL 2
REMARK VINA RESULT:     -12.2      1.387      2.341
REMARK  Name = 448889
REMARK  5 active torsions:
REMARK  status: ('A' for Active; 'I' for Inactive)
REMARK    1  A    between atoms: C_1  and  N_2
REMARK    2  A    between atoms: C_1  and  C_16
REMARK    3  A    between atoms: C_6  and  C_10
REMARK    4  A    between atoms: C_16  and  C_17
REMARK    5  A    between atoms: C_17  and  C_21
REMARK                            x       y       z     vdW  Elec       q    Type
REMARK                         _______ _______ _______ _____ _____    ______ ____
ROOT
ATOM      1  C   UNL     1      35.324 -16.040 -25.198  0.00  0.00    -0.076 C 
ENDROOT
BRANCH   1   2
ATOM      2  N   UNL     1      35.540 -17.117 -24.235  0.00  0.00    +0.390 N 
ATOM      3  C   UNL     1      34.629 -18.239 -24.484  0.00  0.00    -0.072 C 
ATOM      4  C   UNL     1      34.991 -19.418 -23.568  0.00  0.00    +0.003 C 
ATOM      5  C   UNL     1      35.390 -16.623 -22.858  0.00  0.00    -0.051 C 
ATOM      6  C   UNL     1      35.179 -19.009 -22.125  0.00  0.00    -0.031 C 
ATOM      7  C   UNL     1      35.360 -17.710 -21.817  0.00  0.00    -0.053 C 
ATOM      8  H   UNL     1      36.495 -17.455 -24.353  0.00  0.00    -0.079 HD
BRANCH   6  10
ATOM      9  F   UNL     1      35.126 -23.013 -18.188  0.00  0.00    -0.204 F 
ATOM     10  C   UNL     1      35.164 -20.066 -21.086  0.00  0.00    -0.004 C 
ATOM     11  C   UNL     1      33.952 -20.608 -20.654  0.00  0.00    +0.002 C 
ATOM     12  C   UNL     1      36.364 -20.524 -20.537  0.00  0.00    +0.002 C 
ATOM     13  C   UNL     1      33.938 -21.603 -19.676  0.00  0.00    +0.030 C 
ATOM     14  C   UNL     1      36.350 -21.520 -19.559  0.00  0.00    +0.030 C 
ATOM     15  C   UNL     1      35.138 -22.058 -19.128  0.00  0.00    +0.140 C 
ENDBRANCH   6  10
ENDBRANCH   1   2
BRANCH   1  16
ATOM     16  C   UNL     1      34.211 -15.109 -24.709  0.00  0.00    -0.014 C 
BRANCH  16  17
ATOM     17  C   UNL     1      34.509 -13.645 -24.993  0.00  0.00    +0.074 C 
BRANCH  17  21
ATOM     18  O   UNL     1      32.680  -9.512 -23.709  0.00  0.00    -0.209 OA
ATOM     19  N   UNL     1      33.456 -13.339 -22.798  0.00  0.00    -0.290 N 
ATOM     20  N   UNL     1      33.574 -11.526 -24.341  0.00  0.00    -0.322 NA
ATOM     21  C   UNL     1      33.801 -12.760 -23.997  0.00  0.00    +0.173 C 
ATOM     22  C   UNL     1      32.799 -12.568 -21.837  0.00  0.00    +0.058 C 
ATOM     23  C   UNL     1      32.512 -11.226 -22.125  0.00  0.00    +0.108 C 
ATOM     24  C   UNL     1      32.419 -13.098 -20.601  0.00  0.00    -0.008 C 
ATOM     25  C   UNL     1      32.926 -10.686 -23.452  0.00  0.00    +0.207 C 
ATOM     26  C   UNL     1      31.854 -10.421 -21.191  0.00  0.00    +0.014 C 
ATOM     27  C   UNL     1      31.763 -12.296 -19.666  0.00  0.00    -0.003 C 
ATOM     28  C   UNL     1      31.482 -10.962 -19.960  0.00  0.00    +0.001 C 
ATOM     29  C   UNL     1      32.700 -14.522 -20.244  0.00  0.00    +0.032 C 
ATOM     30  H   UNL     1      33.668 -14.283 -22.620  0.00  0.00    +0.154 HD
ENDBRANCH  17  21
ENDBRANCH  16  17
ENDBRANCH   1  16
TORSDOF 5
ENDMDL
MODEL 3
REMARK VINA RESULT:     -11.8      2.805      5.044
REMARK  Name = 448889
REMARK  5 active torsions:
REMARK  status: ('A' for Active; 'I' for Inactive)
REMARK    1  A    between atoms: C_1  and  N_2
REMARK    2  A    between atoms: C_1  and  C_16
REMARK    3  A    between atoms: C_6  and  C_10
REMARK    4  A    between atoms: C_16  and  C_17
REMARK    5  A    between atoms: C_17  and  C_21
REMARK                            x       y       z     vdW  Elec       q    Type
REMARK                         _______ _______ _______ _____ _____    ______ ____
ROOT
ATOM      1  C   UNL     1      36.029 -19.791 -21.862  0.00  0.00    -0.076 C 
ENDROOT
BRANCH   1   2
ATOM      2  N   UNL     1      35.514 -20.340 -20.609  0.00  0.00    +0.390 N 
ATOM      3  C   UNL     1      36.304 -21.496 -20.175  0.00  0.00    -0.072 C 
ATOM      4  C   UNL     1      35.846 -21.945 -18.779  0.00  0.00    +0.003 C 
ATOM      5  C   UNL     1      34.094 -20.701 -20.744  0.00  0.00    -0.051 C 
ATOM      6  C   UNL     1      34.344 -22.071 -18.661  0.00  0.00    -0.031 C 
ATOM      7  C   UNL     1      33.551 -21.490 -19.582  0.00  0.00    -0.053 C 
ATOM      8  H   UNL     1      35.596 -19.617 -19.894  0.00  0.00    -0.079 HD
BRANCH   6  10
ATOM      9  F   UNL     1      32.244 -24.961 -14.329  0.00  0.00    -0.204 F 
ATOM     10  C   UNL     1      33.789 -22.834 -17.518  0.00  0.00    -0.004 C 
ATOM     11  C   UNL     1      32.409 -23.016 -17.400  0.00  0.00    +0.002 C 
ATOM     12  C   UNL     1      34.645 -23.374 -16.556  0.00  0.00    +0.002 C 
ATOM     13  C   UNL     1      31.887 -23.734 -16.324  0.00  0.00    +0.030 C 
ATOM     14  C   UNL     1      34.123 -24.093 -15.480  0.00  0.00    +0.030 C 
ATOM     15  C   UNL     1      32.745 -24.272 -15.363  0.00  0.00    +0.140 C 
ENDBRANCH   6  10
ENDBRANCH   1   2
BRANCH   1  16
ATOM     16  C   UNL     1      34.874 -19.484 -22.818  0.00  0.00    -0.014 C 
BRANCH  16  17
ATOM     17  C   UNL     1      35.356 -19.025 -24.185  0.00  0.00    +0.074 C 
BRANCH  17  21
ATOM     18  O   UNL     1      33.876 -15.614 -27.058  0.00  0.00    -0.209 OA
ATOM     19  N   UNL     1      34.928 -16.753 -23.361  0.00  0.00    -0.290 N 
ATOM     20  N   UNL     1      34.598 -17.282 -25.662  0.00  0.00    -0.322 NA
ATOM     21  C   UNL     1      34.929 -17.601 -24.444  0.00  0.00    +0.173 C 
ATOM     22  C   UNL     1      34.542 -15.424 -23.540  0.00  0.00    +0.058 C 
ATOM     23  C   UNL     1      34.167 -14.994 -24.821  0.00  0.00    +0.108 C 
ATOM     24  C   UNL     1      34.518 -14.514 -22.479  0.00  0.00    -0.008 C 
ATOM     25  C   UNL     1      34.200 -15.985 -25.935  0.00  0.00    +0.207 C 
ATOM     26  C   UNL     1      33.773 -13.671 -25.042  0.00  0.00    +0.014 C 
ATOM     27  C   UNL     1      34.126 -13.193 -22.698  0.00  0.00    -0.003 C 
ATOM     28  C   UNL     1      33.755 -12.773 -23.975  0.00  0.00    +0.001 C 
ATOM     29  C   UNL     1      34.908 -14.921 -21.095  0.00  0.00    +0.032 C 
ATOM     30  H   UNL     1      35.196 -17.080 -22.472  0.00  0.00    +0.154 HD
ENDBRANCH  17  21
ENDBRANCH  16  17
ENDBRANCH   1  16
TORSDOF 5
ENDMDL
MODEL 4
REMARK VINA RESULT:     -11.5      6.102     11.516
REMARK  Name = 448889
REMARK  5 active torsions:
REMARK  status: ('A' for Active; 'I' for Inactive)
REMARK    1  A    between atoms: C_1  and  N_2
REMARK    2  A    between atoms: C_1  and  C_16
REMARK    3  A    between atoms: C_6  and  C_10
REMARK    4  A    between atoms: C_16  and  C_17
REMARK    5  A    between atoms: C_17  and  C_21
REMARK                            x       y       z     vdW  Elec       q    Type
REMARK                         _______ _______ _______ _____ _____    ______ ____
ROOT
ATOM      1  C   UNL     1      35.212 -22.779 -17.810  0.00  0.00    -0.076 C 
ENDROOT
BRANCH   1   2
ATOM      2  N   UNL     1      35.154 -21.666 -18.755  0.00  0.00    +0.390 N 
ATOM      3  C   UNL     1      34.062 -21.844 -19.717  0.00  0.00    -0.072 C 
ATOM      4  C   UNL     1      33.922 -20.585 -20.586  0.00  0.00    +0.003 C 
ATOM      5  C   UNL     1      36.440 -21.509 -19.453  0.00  0.00    -0.051 C 
ATOM      6  C   UNL     1      35.241 -20.103 -21.145  0.00  0.00    -0.031 C 
ATOM      7  C   UNL     1      36.395 -20.545 -20.609  0.00  0.00    -0.053 C 
ATOM      8  H   UNL     1      34.971 -20.814 -18.225  0.00  0.00    -0.079 HD
BRANCH   6  10
ATOM      9  F   UNL     1      35.152 -16.475 -25.429  0.00  0.00    -0.204 F 
ATOM     10  C   UNL     1      35.219 -19.145 -22.276  0.00  0.00    -0.004 C 
ATOM     11  C   UNL     1      35.638 -17.827 -22.086  0.00  0.00    +0.002 C 
ATOM     12  C   UNL     1      34.778 -19.558 -23.535  0.00  0.00    +0.002 C 
ATOM     13  C   UNL     1      35.617 -16.925 -23.151  0.00  0.00    +0.030 C 
ATOM     14  C   UNL     1      34.756 -18.657 -24.599  0.00  0.00    +0.030 C 
ATOM     15  C   UNL     1      35.175 -17.340 -24.407  0.00  0.00    +0.140 C 
ENDBRANCH   6  10
ENDBRANCH   1   2
BRANCH   1  16
ATOM     16  C   UNL     1      33.816 -23.072 -17.253  0.00  0.00    -0.014 C 
BRANCH  16  17
ATOM     17  C   UNL     1      33.811 -23.216 -15.740  0.00  0.00    +0.074 C 
BRANCH  17  21
ATOM     18  O   UNL     1      36.420 -27.103 -16.134  0.00  0.00    -0.209 OA
ATOM     19  N   UNL     1      35.682 -23.661 -14.216  0.00  0.00    -0.290 N 
ATOM     20  N   UNL     1      35.143 -25.209 -15.947  0.00  0.00    -0.322 NA
ATOM     21  C   UNL     1      34.947 -24.102 -15.291  0.00  0.00    +0.173 C 
ATOM     22  C   UNL     1      36.746 -24.440 -13.756  0.00  0.00    +0.058 C 
ATOM     23  C   UNL     1      37.031 -25.649 -14.406  0.00  0.00    +0.108 C 
ATOM     24  C   UNL     1      37.532 -24.045 -12.670  0.00  0.00    -0.008 C 
ATOM     25  C   UNL     1      36.178 -26.045 -15.563  0.00  0.00    +0.207 C 
ATOM     26  C   UNL     1      38.088 -26.457 -13.978  0.00  0.00    +0.014 C 
ATOM     27  C   UNL     1      38.589 -24.850 -12.240  0.00  0.00    -0.003 C 
ATOM     28  C   UNL     1      38.864 -26.053 -12.892  0.00  0.00    +0.001 C 
ATOM     29  C   UNL     1      37.272 -22.766 -11.943  0.00  0.00    +0.032 C 
ATOM     30  H   UNL     1      35.462 -22.808 -13.777  0.00  0.00    +0.154 HD
ENDBRANCH  17  21
ENDBRANCH  16  17
ENDBRANCH   1  16
TORSDOF 5
ENDMDL
MODEL 5
REMARK VINA RESULT:     -11.4      2.878      5.355
REMARK  Name = 448889
REMARK  5 active torsions:
REMARK  status: ('A' for Active; 'I' for Inactive)
REMARK    1  A    between atoms: C_1  and  N_2
REMARK    2  A    between atoms: C_1  and  C_16
REMARK    3  A    between atoms: C_6  and  C_10
REMARK    4  A    between atoms: C_16  and  C_17
REMARK    5  A    between atoms: C_17  and  C_21
REMARK                            x       y       z     vdW  Elec       q    Type
REMARK                         _______ _______ _______ _____ _____    ______ ____
ROOT
ATOM      1  C   UNL     1      34.681 -20.149 -21.609  0.00  0.00    -0.076 C 
ENDROOT
BRANCH   1   2
ATOM      2  N   UNL     1      34.892 -20.657 -20.256  0.00  0.00    +0.390 N 
ATOM      3  C   UNL     1      36.218 -21.270 -20.122  0.00  0.00    -0.072 C 
ATOM      4  C   UNL     1      36.474 -21.642 -18.654  0.00  0.00    +0.003 C 
ATOM      5  C   UNL     1      33.838 -21.616 -19.889  0.00  0.00    -0.051 C 
ATOM      6  C   UNL     1      35.319 -22.387 -18.022  0.00  0.00    -0.031 C 
ATOM      7  C   UNL     1      34.108 -22.364 -18.611  0.00  0.00    -0.053 C 
ATOM      8  H   UNL     1      34.845 -19.866 -19.614  0.00  0.00    -0.079 HD
BRANCH   6  10
ATOM      9  F   UNL     1      36.238 -25.167 -13.232  0.00  0.00    -0.204 F 
ATOM     10  C   UNL     1      35.563 -23.120 -16.757  0.00  0.00    -0.004 C 
ATOM     11  C   UNL     1      36.816 -23.066 -16.145  0.00  0.00    +0.002 C 
ATOM     12  C   UNL     1      34.537 -23.867 -16.174  0.00  0.00    +0.002 C 
ATOM     13  C   UNL     1      37.045 -23.757 -14.954  0.00  0.00    +0.030 C 
ATOM     14  C   UNL     1      34.765 -24.557 -14.983  0.00  0.00    +0.030 C 
ATOM     15  C   UNL     1      36.019 -24.503 -14.374  0.00  0.00    +0.140 C 
ENDBRANCH   6  10
ENDBRANCH   1   2
BRANCH   1  16
ATOM     16  C   UNL     1      35.696 -19.047 -21.925  0.00  0.00    -0.014 C 
BRANCH  16  17
ATOM     17  C   UNL     1      35.916 -18.867 -23.418  0.00  0.00    +0.074 C 
BRANCH  17  21
ATOM     18  O   UNL     1      34.106 -16.115 -26.769  0.00  0.00    -0.209 OA
ATOM     19  N   UNL     1      35.180 -16.576 -22.934  0.00  0.00    -0.290 N 
ATOM     20  N   UNL     1      34.990 -17.462 -25.139  0.00  0.00    -0.322 NA
ATOM     21  C   UNL     1      35.321 -17.561 -23.884  0.00  0.00    +0.173 C 
ATOM     22  C   UNL     1      34.635 -15.346 -23.308  0.00  0.00    +0.058 C 
ATOM     23  C   UNL     1      34.248 -15.153 -24.641  0.00  0.00    +0.108 C 
ATOM     24  C   UNL     1      34.464 -14.307 -22.388  0.00  0.00    -0.008 C 
ATOM     25  C   UNL     1      34.440 -16.279 -25.600  0.00  0.00    +0.207 C 
ATOM     26  C   UNL     1      33.697 -13.937 -25.055  0.00  0.00    +0.014 C 
ATOM     27  C   UNL     1      33.914 -13.091 -22.799  0.00  0.00    -0.003 C 
ATOM     28  C   UNL     1      33.533 -12.908 -24.129  0.00  0.00    +0.001 C 
ATOM     29  C   UNL     1      34.858 -14.461 -20.956  0.00  0.00    +0.032 C 
ATOM     30  H   UNL     1      35.459 -16.737 -22.004  0.00  0.00    +0.154 HD
ENDBRANCH  17  21
ENDBRANCH  16  17
ENDBRANCH   1  16
TORSDOF 5
ENDMDL
MODEL 6
REMARK VINA RESULT:     -11.4      1.844      2.835
REMARK  Name = 448889
REMARK  5 active torsions:
REMARK  status: ('A' for Active; 'I' for Inactive)
REMARK    1  A    between atoms: C_1  and  N_2
REMARK    2  A    between atoms: C_1  and  C_16
REMARK    3  A    between atoms: C_6  and  C_10
REMARK    4  A    between atoms: C_16  and  C_17
REMARK    5  A    between atoms: C_17  and  C_21
REMARK                            x       y       z     vdW  Elec       q    Type
REMARK                         _______ _______ _______ _____ _____    ______ ____
ROOT
ATOM      1  C   UNL     1      34.034 -14.166 -25.332  0.00  0.00    -0.076 C 
ENDROOT
BRANCH   1   2
ATOM      2  N   UNL     1      34.183 -15.304 -24.428  0.00  0.00    +0.390 N 
ATOM      3  C   UNL     1      34.992 -14.948 -23.258  0.00  0.00    -0.072 C 
ATOM      4  C   UNL     1      34.990 -16.107 -22.250  0.00  0.00    +0.003 C 
ATOM      5  C   UNL     1      34.766 -16.456 -25.132  0.00  0.00    -0.051 C 
ATOM      6  C   UNL     1      35.280 -17.447 -22.890  0.00  0.00    -0.031 C 
ATOM      7  C   UNL     1      35.173 -17.586 -24.225  0.00  0.00    -0.053 C 
ATOM      8  H   UNL     1      33.253 -15.565 -24.099  0.00  0.00    -0.079 HD
BRANCH   6  10
ATOM      9  F   UNL     1      36.763 -21.721 -19.564  0.00  0.00    -0.204 F 
ATOM     10  C   UNL     1      35.671 -18.576 -22.012  0.00  0.00    -0.004 C 
ATOM     11  C   UNL     1      34.714 -19.502 -21.593  0.00  0.00    +0.002 C 
ATOM     12  C   UNL     1      36.998 -18.716 -21.602  0.00  0.00    +0.002 C 
ATOM     13  C   UNL     1      35.082 -20.565 -20.767  0.00  0.00    +0.030 C 
ATOM     14  C   UNL     1      37.366 -19.778 -20.776  0.00  0.00    +0.030 C 
ATOM     15  C   UNL     1      36.409 -20.702 -20.358  0.00  0.00    +0.140 C 
ENDBRANCH   6  10
ENDBRANCH   1   2
BRANCH   1  16
ATOM     16  C   UNL     1      34.540 -12.886 -24.659  0.00  0.00    -0.014 C 
BRANCH  16  17
ATOM     17  C   UNL     1      33.622 -11.699 -24.902  0.00  0.00    +0.074 C 
BRANCH  17  21
ATOM     18  O   UNL     1      32.027  -8.205 -22.196  0.00  0.00    -0.209 OA
ATOM     19  N   UNL     1      32.922 -12.094 -22.584  0.00  0.00    -0.290 N 
ATOM     20  N   UNL     1      32.806  -9.905 -23.521  0.00  0.00    -0.322 NA
ATOM     21  C   UNL     1      33.080 -11.175 -23.595  0.00  0.00    +0.173 C 
ATOM     22  C   UNL     1      32.424 -11.667 -21.351  0.00  0.00    +0.058 C 
ATOM     23  C   UNL     1      32.100 -10.313 -21.184  0.00  0.00    +0.108 C 
ATOM     24  C   UNL     1      32.239 -12.552 -20.285  0.00  0.00    -0.008 C 
ATOM     25  C   UNL     1      32.306  -9.391 -22.337  0.00  0.00    +0.207 C 
ATOM     26  C   UNL     1      31.598  -9.845 -19.966  0.00  0.00    +0.014 C 
ATOM     27  C   UNL     1      31.737 -12.087 -19.068  0.00  0.00    -0.003 C 
ATOM     28  C   UNL     1      31.419 -10.738 -18.909  0.00  0.00    +0.001 C 
ATOM     29  C   UNL     1      32.567 -14.004 -20.411  0.00  0.00    +0.032 C 
ATOM     30  H   UNL     1      33.157 -13.038 -22.727  0.00  0.00    +0.154 HD
ENDBRANCH  17  21
ENDBRANCH  16  17
ENDBRANCH   1  16
TORSDOF 5
ENDMDL
MODEL 7
REMARK VINA RESULT:     -11.2      4.788      9.934
REMARK  Name = 448889
REMARK  5 active torsions:
REMARK  status: ('A' for Active; 'I' for Inactive)
REMARK    1  A    between atoms: C_1  and  N_2
REMARK    2  A    between atoms: C_1  and  C_16
REMARK    3  A    between atoms: C_6  and  C_10
REMARK    4  A    between atoms: C_16  and  C_17
REMARK    5  A    between atoms: C_17  and  C_21
REMARK                            x       y       z     vdW  Elec       q    Type
REMARK                         _______ _______ _______ _____ _____    ______ ____
ROOT
ATOM      1  C   UNL     1      36.698 -21.418 -19.874  0.00  0.00    -0.076 C 
ENDROOT
BRANCH   1   2
ATOM      2  N   UNL     1      36.198 -20.216 -20.537  0.00  0.00    +0.390 N 
ATOM      3  C   UNL     1      35.251 -20.556 -21.603  0.00  0.00    -0.072 C 
ATOM      4  C   UNL     1      34.619 -19.274 -22.167  0.00  0.00    +0.003 C 
ATOM      5  C   UNL     1      37.311 -19.413 -21.068  0.00  0.00    -0.051 C 
ATOM      6  C   UNL     1      35.638 -18.203 -22.485  0.00  0.00    -0.031 C 
ATOM      7  C   UNL     1      36.879 -18.287 -21.968  0.00  0.00    -0.053 C 
ATOM      8  H   UNL     1      35.702 -19.658 -19.842  0.00  0.00    -0.079 HD
BRANCH   6  10
ATOM      9  F   UNL     1      34.087 -13.946 -25.802  0.00  0.00    -0.204 F 
ATOM     10  C   UNL     1      35.228 -17.080 -23.361  0.00  0.00    -0.004 C 
ATOM     11  C   UNL     1      34.994 -17.299 -24.720  0.00  0.00    +0.002 C 
ATOM     12  C   UNL     1      35.074 -15.798 -22.829  0.00  0.00    +0.002 C 
ATOM     13  C   UNL     1      34.608 -16.242 -25.544  0.00  0.00    +0.030 C 
ATOM     14  C   UNL     1      34.688 -14.740 -23.653  0.00  0.00    +0.030 C 
ATOM     15  C   UNL     1      34.456 -14.962 -25.011  0.00  0.00    +0.140 C 
ENDBRANCH   6  10
ENDBRANCH   1   2
BRANCH   1  16
ATOM     16  C   UNL     1      35.757 -21.824 -18.736  0.00  0.00    -0.014 C 
BRANCH  16  17
ATOM     17  C   UNL     1      34.509 -22.532 -19.236  0.00  0.00    +0.074 C 
BRANCH  17  21
ATOM     18  O   UNL     1      30.239 -22.517 -17.275  0.00  0.00    -0.209 OA
ATOM     19  N   UNL     1      34.138 -23.402 -16.971  0.00  0.00    -0.290 N 
ATOM     20  N   UNL     1      32.319 -22.522 -18.237  0.00  0.00    -0.322 NA
ATOM     21  C   UNL     1      33.576 -22.829 -18.088  0.00  0.00    +0.173 C 
ATOM     22  C   UNL     1      33.322 -23.699 -15.878  0.00  0.00    +0.058 C 
ATOM     23  C   UNL     1      31.954 -23.403 -15.953  0.00  0.00    +0.108 C 
ATOM     24  C   UNL     1      33.833 -24.284 -14.716  0.00  0.00    -0.008 C 
ATOM     25  C   UNL     1      31.435 -22.781 -17.205  0.00  0.00    +0.207 C 
ATOM     26  C   UNL     1      31.103 -23.686 -14.880  0.00  0.00    +0.014 C 
ATOM     27  C   UNL     1      32.986 -24.567 -13.643  0.00  0.00    -0.003 C 
ATOM     28  C   UNL     1      31.626 -24.268 -13.725  0.00  0.00    +0.001 C 
ATOM     29  C   UNL     1      35.283 -24.620 -14.584  0.00  0.00    +0.032 C 
ATOM     30  H   UNL     1      35.101 -23.600 -16.944  0.00  0.00    +0.154 HD
ENDBRANCH  17  21
ENDBRANCH  16  17
ENDBRANCH   1  16
TORSDOF 5
ENDMDL
MODEL 8
REMARK VINA RESULT:     -11.1      2.213      3.291
REMARK  Name = 448889
REMARK  5 active torsions:
REMARK  status: ('A' for Active; 'I' for Inactive)
REMARK    1  A    between atoms: C_1  and  N_2
REMARK    2  A    between atoms: C_1  and  C_16
REMARK    3  A    between atoms: C_6  and  C_10
REMARK    4  A    between atoms: C_16  and  C_17
REMARK    5  A    between atoms: C_17  and  C_21
REMARK                            x       y       z     vdW  Elec       q    Type
REMARK                         _______ _______ _______ _____ _____    ______ ____
ROOT
ATOM      1  C   UNL     1      34.160 -14.171 -24.896  0.00  0.00    -0.076 C 
ENDROOT
BRANCH   1   2
ATOM      2  N   UNL     1      34.288 -15.359 -24.056  0.00  0.00    +0.390 N 
ATOM      3  C   UNL     1      34.971 -15.045 -22.797  0.00  0.00    -0.072 C 
ATOM      4  C   UNL     1      34.941 -16.269 -21.869  0.00  0.00    +0.003 C 
ATOM      5  C   UNL     1      34.993 -16.432 -24.775  0.00  0.00    -0.051 C 
ATOM      6  C   UNL     1      35.358 -17.546 -22.562  0.00  0.00    -0.031 C 
ATOM      7  C   UNL     1      35.378 -17.600 -23.908  0.00  0.00    -0.053 C 
ATOM      8  H   UNL     1      33.349 -15.686 -23.832  0.00  0.00    -0.079 HD
BRANCH   6  10
ATOM      9  F   UNL     1      36.763 -21.964 -19.394  0.00  0.00    -0.204 F 
ATOM     10  C   UNL     1      35.730 -18.712 -21.726  0.00  0.00    -0.004 C 
ATOM     11  C   UNL     1      37.053 -18.889 -21.317  0.00  0.00    +0.002 C 
ATOM     12  C   UNL     1      34.756 -19.637 -21.343  0.00  0.00    +0.002 C 
ATOM     13  C   UNL     1      37.402 -19.986 -20.529  0.00  0.00    +0.030 C 
ATOM     14  C   UNL     1      35.105 -20.734 -20.555  0.00  0.00    +0.030 C 
ATOM     15  C   UNL     1      36.428 -20.910 -20.149  0.00  0.00    +0.140 C 
ENDBRANCH   6  10
ENDBRANCH   1   2
BRANCH   1  16
ATOM     16  C   UNL     1      34.508 -12.915 -24.093  0.00  0.00    -0.014 C 
BRANCH  16  17
ATOM     17  C   UNL     1      34.120 -11.634 -24.816  0.00  0.00    +0.074 C 
BRANCH  17  21
ATOM     18  O   UNL     1      31.398 -10.581 -21.135  0.00  0.00    -0.209 OA
ATOM     19  N   UNL     1      33.882  -9.325 -24.020  0.00  0.00    -0.290 N 
ATOM     20  N   UNL     1      32.724 -11.101 -22.930  0.00  0.00    -0.322 NA
ATOM     21  C   UNL     1      33.525 -10.642 -23.848  0.00  0.00    +0.173 C 
ATOM     22  C   UNL     1      33.362  -8.362 -23.154  0.00  0.00    +0.058 C 
ATOM     23  C   UNL     1      32.491  -8.769 -22.133  0.00  0.00    +0.108 C 
ATOM     24  C   UNL     1      33.688  -7.009 -23.276  0.00  0.00    -0.008 C 
ATOM     25  C   UNL     1      32.161 -10.219 -22.024  0.00  0.00    +0.207 C 
ATOM     26  C   UNL     1      31.950  -7.837 -21.244  0.00  0.00    +0.014 C 
ATOM     27  C   UNL     1      33.148  -6.075 -22.389  0.00  0.00    -0.003 C 
ATOM     28  C   UNL     1      32.281  -6.488 -21.377  0.00  0.00    +0.001 C 
ATOM     29  C   UNL     1      34.611  -6.523 -24.345  0.00  0.00    +0.032 C 
ATOM     30  H   UNL     1      34.495  -9.066 -24.745  0.00  0.00    +0.154 HD
ENDBRANCH  17  21
ENDBRANCH  16  17
ENDBRANCH   1  16
TORSDOF 5
ENDMDL
MODEL 9
REMARK VINA RESULT:     -11.1      5.261     10.127
REMARK  Name = 448889
REMARK  5 active torsions:
REMARK  status: ('A' for Active; 'I' for Inactive)
REMARK    1  A    between atoms: C_1  and  N_2
REMARK    2  A    between atoms: C_1  and  C_16
REMARK    3  A    between atoms: C_6  and  C_10
REMARK    4  A    between atoms: C_16  and  C_17
REMARK    5  A    between atoms: C_17  and  C_21
REMARK                            x       y       z     vdW  Elec       q    Type
REMARK                         _______ _______ _______ _____ _____    ______ ____
ROOT
ATOM      1  C   UNL     1      36.658 -21.658 -19.053  0.00  0.00    -0.076 C 
ENDROOT
BRANCH   1   2
ATOM      2  N   UNL     1      36.227 -20.551 -19.904  0.00  0.00    +0.390 N 
ATOM      3  C   UNL     1      35.166 -20.974 -20.824  0.00  0.00    -0.072 C 
ATOM      4  C   UNL     1      34.619 -19.756 -21.584  0.00  0.00    +0.003 C 
ATOM      5  C   UNL     1      37.366 -19.991 -20.647  0.00  0.00    -0.051 C 
ATOM      6  C   UNL     1      35.709 -18.883 -22.165  0.00  0.00    -0.031 C 
ATOM      7  C   UNL     1      36.975 -19.010 -21.720  0.00  0.00    -0.053 C 
ATOM      8  H   UNL     1      35.847 -19.822 -19.300  0.00  0.00    -0.079 HD
BRANCH   6  10
ATOM      9  F   UNL     1      34.319 -15.167 -26.138  0.00  0.00    -0.204 F 
ATOM     10  C   UNL     1      35.342 -17.903 -23.214  0.00  0.00    -0.004 C 
ATOM     11  C   UNL     1      34.899 -18.345 -24.463  0.00  0.00    +0.002 C 
ATOM     12  C   UNL     1      35.437 -16.534 -22.956  0.00  0.00    +0.002 C 
ATOM     13  C   UNL     1      34.553 -17.422 -25.450  0.00  0.00    +0.030 C 
ATOM     14  C   UNL     1      35.091 -15.611 -23.944  0.00  0.00    +0.030 C 
ATOM     15  C   UNL     1      34.650 -16.054 -25.190  0.00  0.00    +0.140 C 
ENDBRANCH   6  10
ENDBRANCH   1   2
BRANCH   1  16
ATOM     16  C   UNL     1      37.199 -21.124 -17.724  0.00  0.00    -0.014 C 
BRANCH  16  17
ATOM     17  C   UNL     1      37.749 -22.226 -16.834  0.00  0.00    +0.074 C 
BRANCH  17  21
ATOM     18  O   UNL     1      36.212 -24.246 -12.880  0.00  0.00    -0.209 OA
ATOM     19  N   UNL     1      35.392 -22.844 -16.546  0.00  0.00    -0.290 N 
ATOM     20  N   UNL     1      36.968 -23.261 -14.806  0.00  0.00    -0.322 NA
ATOM     21  C   UNL     1      36.649 -22.819 -15.989  0.00  0.00    +0.173 C 
ATOM     22  C   UNL     1      34.334 -23.381 -15.809  0.00  0.00    +0.058 C 
ATOM     23  C   UNL     1      34.588 -23.879 -14.524  0.00  0.00    +0.108 C 
ATOM     24  C   UNL     1      33.034 -23.433 -16.319  0.00  0.00    -0.008 C 
ATOM     25  C   UNL     1      35.984 -23.810 -14.004  0.00  0.00    +0.207 C 
ATOM     26  C   UNL     1      33.556 -24.424 -13.753  0.00  0.00    +0.014 C 
ATOM     27  C   UNL     1      32.002 -23.977 -15.552  0.00  0.00    -0.003 C 
ATOM     28  C   UNL     1      32.263 -24.471 -14.274  0.00  0.00    +0.001 C 
ATOM     29  C   UNL     1      32.710 -22.916 -17.683  0.00  0.00    +0.032 C 
ATOM     30  H   UNL     1      35.240 -22.488 -17.450  0.00  0.00    +0.154 HD
ENDBRANCH  17  21
ENDBRANCH  16  17
ENDBRANCH   1  16
TORSDOF 5
ENDMDL
