MODEL 1
REMARK VINA RESULT:     -11.6      0.000      0.000
REMARK  Name = 6918388
REMARK  5 active torsions:
REMARK  status: ('A' for Active; 'I' for Inactive)
REMARK    1  A    between atoms: N_1  and  C_4
REMARK    2  A    between atoms: N_1  and  C_15
REMARK    3  A    between atoms: C_4  and  C_6
REMARK    4  A    between atoms: C_15  and  C_17
REMARK    5  A    between atoms: C_19  and  C_23
REMARK                            x       y       z     vdW  Elec       q    Type
REMARK                         _______ _______ _______ _____ _____    ______ ____
ROOT
ATOM      1  N   UNL     1      35.744 -16.043 -24.071  0.00  0.00    +0.389 N 
ATOM      2  H   UNL     1      36.095 -15.839 -23.137  0.00  0.00    -0.084 HD
ATOM      3  H   UNL     1      36.479 -15.910 -24.766  0.00  0.00    -0.084 HD
ENDROOT
BRANCH   1   4
ATOM      4  C   UNL     1      34.647 -15.136 -24.377  0.00  0.00    -0.037 C 
BRANCH   4   6
ATOM      5  O   UNL     1      33.284 -13.506 -23.299  0.00  0.00    -0.482 OA
ATOM      6  C   UNL     1      33.836 -14.819 -23.127  0.00  0.00    +0.145 C 
ATOM      7  C   UNL     1      34.713 -14.893 -21.878  0.00  0.00    +0.046 C 
ATOM      8  C   UNL     1      33.854 -14.623 -20.648  0.00  0.00    +0.033 C 
ATOM      9  C   UNL     1      32.965 -13.435 -20.880  0.00  0.00    +0.012 C 
ATOM     10  C   UNL     1      32.724 -12.958 -22.174  0.00  0.00    +0.134 C 
ATOM     11  C   UNL     1      32.341 -12.807 -19.793  0.00  0.00    -0.001 C 
ATOM     12  C   UNL     1      31.905 -11.843 -22.373  0.00  0.00    +0.037 C 
ATOM     13  C   UNL     1      31.513 -11.703 -19.995  0.00  0.00    -0.000 C 
ATOM     14  C   UNL     1      31.299 -11.219 -21.284  0.00  0.00    +0.003 C 
ENDBRANCH   4   6
ENDBRANCH   1   4
BRANCH   1  15
ATOM     15  C   UNL     1      35.304 -17.431 -24.123  0.00  0.00    -0.053 C 
BRANCH  15  17
ATOM     16  N   UNL     1      37.919 -18.923 -21.858  0.00  0.00    -0.243 NA
ATOM     17  C   UNL     1      35.934 -18.261 -23.037  0.00  0.00    -0.025 C 
ATOM     18  C   UNL     1      35.157 -19.089 -22.252  0.00  0.00    -0.003 C 
ATOM     19  C   UNL     1      35.766 -19.844 -21.256  0.00  0.00    +0.019 C 
ATOM     20  C   UNL     1      37.291 -18.204 -22.816  0.00  0.00    +0.092 C 
ATOM     21  C   UNL     1      37.139 -19.726 -21.101  0.00  0.00    +0.099 C 
BRANCH  19  23
ATOM     22  F   UNL     1      32.786 -23.235 -17.984  0.00  0.00    -0.204 F 
ATOM     23  C   UNL     1      34.995 -20.723 -20.409  0.00  0.00    +0.002 C 
ATOM     24  C   UNL     1      33.601 -20.651 -20.411  0.00  0.00    +0.002 C 
ATOM     25  C   UNL     1      35.640 -21.646 -19.584  0.00  0.00    +0.002 C 
ATOM     26  C   UNL     1      32.855 -21.499 -19.592  0.00  0.00    +0.030 C 
ATOM     27  C   UNL     1      34.895 -22.494 -18.765  0.00  0.00    +0.030 C 
ATOM     28  C   UNL     1      33.502 -22.420 -18.770  0.00  0.00    +0.140 C 
ENDBRANCH  19  23
ENDBRANCH  15  17
ENDBRANCH   1  15
TORSDOF 5
ENDMDL
MODEL 2
REMARK VINA RESULT:     -11.1      3.188      8.274
REMARK  Name = 6918388
REMARK  5 active torsions:
REMARK  status: ('A' for Active; 'I' for Inactive)
REMARK    1  A    between atoms: N_1  and  C_4
REMARK    2  A    between atoms: N_1  and  C_15
REMARK    3  A    between atoms: C_4  and  C_6
REMARK    4  A    between atoms: C_15  and  C_17
REMARK    5  A    between atoms: C_19  and  C_23
REMARK                            x       y       z     vdW  Elec       q    Type
REMARK                         _______ _______ _______ _____ _____    ______ ____
ROOT
ATOM      1  N   UNL     1      36.434 -17.319 -23.211  0.00  0.00    +0.389 N 
ATOM      2  H   UNL     1      35.861 -17.383 -24.052  0.00  0.00    -0.084 HD
ATOM      3  H   UNL     1      37.282 -16.784 -23.398  0.00  0.00    -0.084 HD
ENDROOT
BRANCH   1   4
ATOM      4  C   UNL     1      36.816 -18.660 -22.791  0.00  0.00    -0.037 C 
BRANCH   4   6
ATOM      5  O   UNL     1      36.568 -20.160 -20.956  0.00  0.00    -0.482 OA
ATOM      6  C   UNL     1      35.850 -19.198 -21.743  0.00  0.00    +0.145 C 
ATOM      7  C   UNL     1      34.624 -19.826 -22.404  0.00  0.00    +0.046 C 
ATOM      8  C   UNL     1      33.661 -20.302 -21.324  0.00  0.00    +0.033 C 
ATOM      9  C   UNL     1      34.404 -21.043 -20.248  0.00  0.00    +0.012 C 
ATOM     10  C   UNL     1      35.794 -20.923 -20.120  0.00  0.00    +0.134 C 
ATOM     11  C   UNL     1      33.701 -21.846 -19.340  0.00  0.00    -0.001 C 
ATOM     12  C   UNL     1      36.472 -21.629 -19.123  0.00  0.00    +0.037 C 
ATOM     13  C   UNL     1      34.379 -22.539 -18.337  0.00  0.00    -0.000 C 
ATOM     14  C   UNL     1      35.764 -22.433 -18.232  0.00  0.00    +0.003 C 
ENDBRANCH   4   6
ENDBRANCH   1   4
BRANCH   1  15
ATOM     15  C   UNL     1      35.677 -16.640 -22.168  0.00  0.00    -0.053 C 
BRANCH  15  17
ATOM     16  N   UNL     1      34.073 -14.289 -24.637  0.00  0.00    -0.243 NA
ATOM     17  C   UNL     1      34.842 -15.516 -22.721  0.00  0.00    -0.025 C 
ATOM     18  C   UNL     1      34.109 -14.709 -21.874  0.00  0.00    -0.003 C 
ATOM     19  C   UNL     1      33.347 -13.679 -22.413  0.00  0.00    +0.019 C 
ATOM     20  C   UNL     1      34.802 -15.280 -24.076  0.00  0.00    +0.092 C 
ATOM     21  C   UNL     1      33.363 -13.512 -23.789  0.00  0.00    +0.099 C 
BRANCH  19  23
ATOM     22  F   UNL     1      30.323 -10.318 -19.150  0.00  0.00    -0.204 F 
ATOM     23  C   UNL     1      32.563 -12.810 -21.567  0.00  0.00    +0.002 C 
ATOM     24  C   UNL     1      31.805 -11.782 -22.132  0.00  0.00    +0.002 C 
ATOM     25  C   UNL     1      32.562 -12.992 -20.184  0.00  0.00    +0.002 C 
ATOM     26  C   UNL     1      31.049 -10.940 -21.316  0.00  0.00    +0.030 C 
ATOM     27  C   UNL     1      31.805 -12.151 -19.367  0.00  0.00    +0.030 C 
ATOM     28  C   UNL     1      31.049 -11.125 -19.934  0.00  0.00    +0.140 C 
ENDBRANCH  19  23
ENDBRANCH  15  17
ENDBRANCH   1  15
TORSDOF 5
ENDMDL
MODEL 3
REMARK VINA RESULT:     -11.0      1.847      2.752
REMARK  Name = 6918388
REMARK  5 active torsions:
REMARK  status: ('A' for Active; 'I' for Inactive)
REMARK    1  A    between atoms: N_1  and  C_4
REMARK    2  A    between atoms: N_1  and  C_15
REMARK    3  A    between atoms: C_4  and  C_6
REMARK    4  A    between atoms: C_15  and  C_17
REMARK    5  A    between atoms: C_19  and  C_23
REMARK                            x       y       z     vdW  Elec       q    Type
REMARK                         _______ _______ _______ _____ _____    ______ ____
ROOT
ATOM      1  N   UNL     1      34.768 -14.499 -23.460  0.00  0.00    +0.389 N 
ATOM      2  H   UNL     1      34.607 -15.129 -22.676  0.00  0.00    -0.084 HD
ATOM      3  H   UNL     1      35.438 -13.773 -23.203  0.00  0.00    -0.084 HD
ENDROOT
BRANCH   1   4
ATOM      4  C   UNL     1      33.511 -13.861 -23.826  0.00  0.00    -0.037 C 
BRANCH   4   6
ATOM      5  O   UNL     1      32.785 -12.027 -22.488  0.00  0.00    -0.482 OA
ATOM      6  C   UNL     1      32.723 -13.458 -22.586  0.00  0.00    +0.145 C 
ATOM      7  C   UNL     1      33.296 -14.126 -21.337  0.00  0.00    +0.046 C 
ATOM      8  C   UNL     1      32.448 -13.740 -20.131  0.00  0.00    +0.033 C 
ATOM      9  C   UNL     1      32.164 -12.265 -20.139  0.00  0.00    +0.012 C 
ATOM     10  C   UNL     1      32.335 -11.505 -21.303  0.00  0.00    +0.134 C 
ATOM     11  C   UNL     1      31.695 -11.638 -18.976  0.00  0.00    -0.001 C 
ATOM     12  C   UNL     1      32.080 -10.132 -21.291  0.00  0.00    +0.037 C 
ATOM     13  C   UNL     1      31.428 -10.269 -18.970  0.00  0.00    -0.000 C 
ATOM     14  C   UNL     1      31.625  -9.516 -20.126  0.00  0.00    +0.003 C 
ENDBRANCH   4   6
ENDBRANCH   1   4
BRANCH   1  15
ATOM     15  C   UNL     1      35.313 -15.257 -24.579  0.00  0.00    -0.053 C 
BRANCH  15  17
ATOM     16  N   UNL     1      34.202 -18.772 -25.357  0.00  0.00    -0.243 NA
ATOM     17  C   UNL     1      35.069 -16.735 -24.427  0.00  0.00    -0.025 C 
ATOM     18  C   UNL     1      35.465 -17.393 -23.279  0.00  0.00    -0.003 C 
ATOM     19  C   UNL     1      35.228 -18.758 -23.167  0.00  0.00    +0.019 C 
ATOM     20  C   UNL     1      34.450 -17.445 -25.429  0.00  0.00    +0.092 C 
ATOM     21  C   UNL     1      34.598 -19.396 -24.225  0.00  0.00    +0.099 C 
BRANCH  19  23
ATOM     22  F   UNL     1      36.761 -21.586 -18.613  0.00  0.00    -0.204 F 
ATOM     23  C   UNL     1      35.623 -19.490 -21.987  0.00  0.00    +0.002 C 
ATOM     24  C   UNL     1      36.912 -19.340 -21.470  0.00  0.00    +0.002 C 
ATOM     25  C   UNL     1      34.721 -20.351 -21.360  0.00  0.00    +0.002 C 
ATOM     26  C   UNL     1      37.296 -20.048 -20.331  0.00  0.00    +0.030 C 
ATOM     27  C   UNL     1      35.105 -21.059 -20.221  0.00  0.00    +0.030 C 
ATOM     28  C   UNL     1      36.392 -20.907 -19.707  0.00  0.00    +0.140 C 
ENDBRANCH  19  23
ENDBRANCH  15  17
ENDBRANCH   1  15
TORSDOF 5
ENDMDL
MODEL 4
REMARK VINA RESULT:     -11.0      2.947      5.303
REMARK  Name = 6918388
REMARK  5 active torsions:
REMARK  status: ('A' for Active; 'I' for Inactive)
REMARK    1  A    between atoms: N_1  and  C_4
REMARK    2  A    between atoms: N_1  and  C_15
REMARK    3  A    between atoms: C_4  and  C_6
REMARK    4  A    between atoms: C_15  and  C_17
REMARK    5  A    between atoms: C_19  and  C_23
REMARK                            x       y       z     vdW  Elec       q    Type
REMARK                         _______ _______ _______ _____ _____    ______ ____
ROOT
ATOM      1  N   UNL     1      35.512 -20.261 -20.491  0.00  0.00    +0.389 N 
ATOM      2  H   UNL     1      34.772 -20.043 -21.157  0.00  0.00    -0.084 HD
ATOM      3  H   UNL     1      35.321 -19.823 -19.589  0.00  0.00    -0.084 HD
ENDROOT
BRANCH   1   4
ATOM      4  C   UNL     1      36.777 -19.748 -20.998  0.00  0.00    -0.037 C 
BRANCH   4   6
ATOM      5  O   UNL     1      35.809 -17.571 -21.072  0.00  0.00    -0.482 OA
ATOM      6  C   UNL     1      36.558 -18.510 -21.858  0.00  0.00    +0.145 C 
ATOM      7  C   UNL     1      35.819 -18.868 -23.147  0.00  0.00    +0.046 C 
ATOM      8  C   UNL     1      35.669 -17.615 -24.001  0.00  0.00    +0.033 C 
ATOM      9  C   UNL     1      35.208 -16.459 -23.161  0.00  0.00    +0.012 C 
ATOM     10  C   UNL     1      35.313 -16.497 -21.764  0.00  0.00    +0.134 C 
ATOM     11  C   UNL     1      34.689 -15.311 -23.775  0.00  0.00    -0.001 C 
ATOM     12  C   UNL     1      34.867 -15.419 -20.995  0.00  0.00    +0.037 C 
ATOM     13  C   UNL     1      34.257 -14.231 -23.006  0.00  0.00    -0.000 C 
ATOM     14  C   UNL     1      34.342 -14.287 -21.616  0.00  0.00    +0.003 C 
ENDBRANCH   4   6
ENDBRANCH   1   4
BRANCH   1  15
ATOM     15  C   UNL     1      35.573 -21.704 -20.301  0.00  0.00    -0.053 C 
BRANCH  15  17
ATOM     16  N   UNL     1      36.945 -22.190 -16.826  0.00  0.00    -0.243 NA
ATOM     17  C   UNL     1      35.648 -22.076 -18.845  0.00  0.00    -0.025 C 
ATOM     18  C   UNL     1      34.553 -22.623 -18.206  0.00  0.00    -0.003 C 
ATOM     19  C   UNL     1      34.652 -22.956 -16.860  0.00  0.00    +0.019 C 
ATOM     20  C   UNL     1      36.810 -21.878 -18.134  0.00  0.00    +0.092 C 
ATOM     21  C   UNL     1      35.859 -22.722 -16.221  0.00  0.00    +0.099 C 
BRANCH  19  23
ATOM     22  F   UNL     1      30.334 -25.173 -14.115  0.00  0.00    -0.204 F 
ATOM     23  C   UNL     1      33.533 -23.529 -16.149  0.00  0.00    +0.002 C 
ATOM     24  C   UNL     1      33.748 -24.265 -14.982  0.00  0.00    +0.002 C 
ATOM     25  C   UNL     1      32.234 -23.352 -16.627  0.00  0.00    +0.002 C 
ATOM     26  C   UNL     1      32.668 -24.820 -14.296  0.00  0.00    +0.030 C 
ATOM     27  C   UNL     1      31.153 -23.907 -15.940  0.00  0.00    +0.030 C 
ATOM     28  C   UNL     1      31.371 -24.641 -14.775  0.00  0.00    +0.140 C 
ENDBRANCH  19  23
ENDBRANCH  15  17
ENDBRANCH   1  15
TORSDOF 5
ENDMDL
MODEL 5
REMARK VINA RESULT:     -11.0      2.233      3.877
REMARK  Name = 6918388
REMARK  5 active torsions:
REMARK  status: ('A' for Active; 'I' for Inactive)
REMARK    1  A    between atoms: N_1  and  C_4
REMARK    2  A    between atoms: N_1  and  C_15
REMARK    3  A    between atoms: C_4  and  C_6
REMARK    4  A    between atoms: C_15  and  C_17
REMARK    5  A    between atoms: C_19  and  C_23
REMARK                            x       y       z     vdW  Elec       q    Type
REMARK                         _______ _______ _______ _____ _____    ______ ____
ROOT
ATOM      1  N   UNL     1      33.958 -13.564 -22.675  0.00  0.00    +0.389 N 
ATOM      2  H   UNL     1      34.186 -14.353 -22.071  0.00  0.00    -0.084 HD
ATOM      3  H   UNL     1      34.337 -12.699 -22.289  0.00  0.00    -0.084 HD
ENDROOT
BRANCH   1   4
ATOM      4  C   UNL     1      32.510 -13.436 -22.766  0.00  0.00    -0.037 C 
BRANCH   4   6
ATOM      5  O   UNL     1      32.638 -11.057 -22.698  0.00  0.00    -0.482 OA
ATOM      6  C   UNL     1      32.027 -12.182 -22.049  0.00  0.00    +0.145 C 
ATOM      7  C   UNL     1      32.390 -12.230 -20.565  0.00  0.00    +0.046 C 
ATOM      8  C   UNL     1      31.843 -10.986 -19.876  0.00  0.00    +0.033 C 
ATOM      9  C   UNL     1      32.145  -9.760 -20.690  0.00  0.00    +0.012 C 
ATOM     10  C   UNL     1      32.509  -9.863 -22.038  0.00  0.00    +0.134 C 
ATOM     11  C   UNL     1      32.036  -8.490 -20.106  0.00  0.00    -0.001 C 
ATOM     12  C   UNL     1      32.800  -8.714 -22.779  0.00  0.00    +0.037 C 
ATOM     13  C   UNL     1      32.314  -7.344 -20.851  0.00  0.00    -0.000 C 
ATOM     14  C   UNL     1      32.699  -7.457 -22.185  0.00  0.00    +0.003 C 
ENDBRANCH   4   6
ENDBRANCH   1   4
BRANCH   1  15
ATOM     15  C   UNL     1      34.546 -13.784 -23.989  0.00  0.00    -0.053 C 
BRANCH  15  17
ATOM     16  N   UNL     1      34.586 -17.026 -25.907  0.00  0.00    -0.243 NA
ATOM     17  C   UNL     1      34.704 -15.249 -24.296  0.00  0.00    -0.025 C 
ATOM     18  C   UNL     1      35.093 -16.131 -23.308  0.00  0.00    -0.003 C 
ATOM     19  C   UNL     1      35.231 -17.478 -23.621  0.00  0.00    +0.019 C 
ATOM     20  C   UNL     1      34.463 -15.725 -25.565  0.00  0.00    +0.092 C 
ATOM     21  C   UNL     1      34.969 -17.872 -24.924  0.00  0.00    +0.099 C 
BRANCH  19  23
ATOM     22  F   UNL     1      36.789 -21.185 -19.757  0.00  0.00    -0.204 F 
ATOM     23  C   UNL     1      35.636 -18.439 -22.621  0.00  0.00    +0.002 C 
ATOM     24  C   UNL     1      34.733 -19.407 -22.175  0.00  0.00    +0.002 C 
ATOM     25  C   UNL     1      36.928 -18.402 -22.096  0.00  0.00    +0.002 C 
ATOM     26  C   UNL     1      35.123 -20.334 -21.208  0.00  0.00    +0.030 C 
ATOM     27  C   UNL     1      37.318 -19.329 -21.129  0.00  0.00    +0.030 C 
ATOM     28  C   UNL     1      36.415 -20.295 -20.685  0.00  0.00    +0.140 C 
ENDBRANCH  19  23
ENDBRANCH  15  17
ENDBRANCH   1  15
TORSDOF 5
ENDMDL
MODEL 6
REMARK VINA RESULT:     -11.0      4.361      8.744
REMARK  Name = 6918388
REMARK  5 active torsions:
REMARK  status: ('A' for Active; 'I' for Inactive)
REMARK    1  A    between atoms: N_1  and  C_4
REMARK    2  A    between atoms: N_1  and  C_15
REMARK    3  A    between atoms: C_4  and  C_6
REMARK    4  A    between atoms: C_15  and  C_17
REMARK    5  A    between atoms: C_19  and  C_23
REMARK                            x       y       z     vdW  Elec       q    Type
REMARK                         _______ _______ _______ _____ _____    ______ ____
ROOT
ATOM      1  N   UNL     1      34.972 -21.882 -19.391  0.00  0.00    +0.389 N 
ATOM      2  H   UNL     1      35.935 -21.973 -19.711  0.00  0.00    -0.084 HD
ATOM      3  H   UNL     1      34.946 -21.540 -18.430  0.00  0.00    -0.084 HD
ENDROOT
BRANCH   1   4
ATOM      4  C   UNL     1      34.328 -23.187 -19.437  0.00  0.00    -0.037 C 
BRANCH   4   6
ATOM      5  O   UNL     1      32.433 -23.049 -17.998  0.00  0.00    -0.482 OA
ATOM      6  C   UNL     1      33.769 -23.569 -18.072  0.00  0.00    +0.145 C 
ATOM      7  C   UNL     1      34.645 -23.011 -16.951  0.00  0.00    +0.046 C 
ATOM      8  C   UNL     1      34.083 -23.460 -15.608  0.00  0.00    +0.033 C 
ATOM      9  C   UNL     1      32.593 -23.269 -15.572  0.00  0.00    +0.012 C 
ATOM     10  C   UNL     1      31.862 -23.088 -16.753  0.00  0.00    +0.134 C 
ATOM     11  C   UNL     1      31.915 -23.297 -14.346  0.00  0.00    -0.001 C 
ATOM     12  C   UNL     1      30.479 -22.897 -16.702  0.00  0.00    +0.037 C 
ATOM     13  C   UNL     1      30.532 -23.120 -14.299  0.00  0.00    -0.000 C 
ATOM     14  C   UNL     1      29.816 -22.916 -15.476  0.00  0.00    +0.003 C 
ENDBRANCH   4   6
ENDBRANCH   1   4
BRANCH   1  15
ATOM     15  C   UNL     1      34.276 -20.926 -20.241  0.00  0.00    -0.053 C 
BRANCH  15  17
ATOM     16  N   UNL     1      37.495 -19.325 -21.367  0.00  0.00    -0.243 NA
ATOM     17  C   UNL     1      35.234 -20.045 -20.997  0.00  0.00    -0.025 C 
ATOM     18  C   UNL     1      34.770 -19.182 -21.970  0.00  0.00    -0.003 C 
ATOM     19  C   UNL     1      35.678 -18.381 -22.652  0.00  0.00    +0.019 C 
ATOM     20  C   UNL     1      36.583 -20.088 -20.726  0.00  0.00    +0.092 C 
ATOM     21  C   UNL     1      37.019 -18.489 -22.316  0.00  0.00    +0.099 C 
BRANCH  19  23
ATOM     22  F   UNL     1      33.992 -14.842 -26.619  0.00  0.00    -0.204 F 
ATOM     23  C   UNL     1      35.240 -17.464 -23.678  0.00  0.00    +0.002 C 
ATOM     24  C   UNL     1      34.733 -17.953 -24.884  0.00  0.00    +0.002 C 
ATOM     25  C   UNL     1      35.326 -16.086 -23.471  0.00  0.00    +0.002 C 
ATOM     26  C   UNL     1      34.311 -17.068 -25.876  0.00  0.00    +0.030 C 
ATOM     27  C   UNL     1      34.904 -15.201 -24.463  0.00  0.00    +0.030 C 
ATOM     28  C   UNL     1      34.397 -15.692 -25.666  0.00  0.00    +0.140 C 
ENDBRANCH  19  23
ENDBRANCH  15  17
ENDBRANCH   1  15
TORSDOF 5
ENDMDL
MODEL 7
REMARK VINA RESULT:     -11.0      4.855      9.338
REMARK  Name = 6918388
REMARK  5 active torsions:
REMARK  status: ('A' for Active; 'I' for Inactive)
REMARK    1  A    between atoms: N_1  and  C_4
REMARK    2  A    between atoms: N_1  and  C_15
REMARK    3  A    between atoms: C_4  and  C_6
REMARK    4  A    between atoms: C_15  and  C_17
REMARK    5  A    between atoms: C_19  and  C_23
REMARK                            x       y       z     vdW  Elec       q    Type
REMARK                         _______ _______ _______ _____ _____    ______ ____
ROOT
ATOM      1  N   UNL     1      36.715 -21.624 -17.284  0.00  0.00    +0.389 N 
ATOM      2  H   UNL     1      37.192 -20.741 -17.106  0.00  0.00    -0.084 HD
ATOM      3  H   UNL     1      35.721 -21.543 -17.069  0.00  0.00    -0.084 HD
ENDROOT
BRANCH   1   4
ATOM      4  C   UNL     1      37.290 -22.657 -16.435  0.00  0.00    -0.037 C 
BRANCH   4   6
ATOM      5  O   UNL     1      34.939 -22.993 -16.246  0.00  0.00    -0.482 OA
ATOM      6  C   UNL     1      36.200 -23.511 -15.799  0.00  0.00    +0.145 C 
ATOM      7  C   UNL     1      36.305 -23.480 -14.275  0.00  0.00    +0.046 C 
ATOM      8  C   UNL     1      35.233 -24.387 -13.682  0.00  0.00    +0.033 C 
ATOM      9  C   UNL     1      33.912 -24.148 -14.356  0.00  0.00    +0.012 C 
ATOM     10  C   UNL     1      33.841 -23.484 -15.587  0.00  0.00    +0.134 C 
ATOM     11  C   UNL     1      32.732 -24.617 -13.764  0.00  0.00    -0.001 C 
ATOM     12  C   UNL     1      32.604 -23.258 -16.195  0.00  0.00    +0.037 C 
ATOM     13  C   UNL     1      31.498 -24.401 -14.379  0.00  0.00    -0.000 C 
ATOM     14  C   UNL     1      31.435 -23.718 -15.592  0.00  0.00    +0.003 C 
ENDBRANCH   4   6
ENDBRANCH   1   4
BRANCH   1  15
ATOM     15  C   UNL     1      36.858 -21.968 -18.693  0.00  0.00    -0.053 C 
BRANCH  15  17
ATOM     16  N   UNL     1      33.349 -21.508 -19.986  0.00  0.00    -0.243 NA
ATOM     17  C   UNL     1      35.703 -21.460 -19.515  0.00  0.00    -0.025 C 
ATOM     18  C   UNL     1      35.913 -20.524 -20.508  0.00  0.00    -0.003 C 
ATOM     19  C   UNL     1      34.828 -20.072 -21.251  0.00  0.00    +0.019 C 
ATOM     20  C   UNL     1      34.428 -21.923 -19.285  0.00  0.00    +0.092 C 
ATOM     21  C   UNL     1      33.577 -20.591 -20.953  0.00  0.00    +0.099 C 
BRANCH  19  23
ATOM     22  F   UNL     1      35.476 -16.291 -25.297  0.00  0.00    -0.204 F 
ATOM     23  C   UNL     1      34.997 -19.094 -22.299  0.00  0.00    +0.002 C 
ATOM     24  C   UNL     1      35.478 -17.819 -21.996  0.00  0.00    +0.002 C 
ATOM     25  C   UNL     1      34.677 -19.418 -23.619  0.00  0.00    +0.002 C 
ATOM     26  C   UNL     1      35.640 -16.873 -23.008  0.00  0.00    +0.030 C 
ATOM     27  C   UNL     1      34.839 -18.472 -24.631  0.00  0.00    +0.030 C 
ATOM     28  C   UNL     1      35.320 -17.199 -24.325  0.00  0.00    +0.140 C 
ENDBRANCH  19  23
ENDBRANCH  15  17
ENDBRANCH   1  15
TORSDOF 5
ENDMDL
MODEL 8
REMARK VINA RESULT:     -11.0      3.200      5.556
REMARK  Name = 6918388
REMARK  5 active torsions:
REMARK  status: ('A' for Active; 'I' for Inactive)
REMARK    1  A    between atoms: N_1  and  C_4
REMARK    2  A    between atoms: N_1  and  C_15
REMARK    3  A    between atoms: C_4  and  C_6
REMARK    4  A    between atoms: C_15  and  C_17
REMARK    5  A    between atoms: C_19  and  C_23
REMARK                            x       y       z     vdW  Elec       q    Type
REMARK                         _______ _______ _______ _____ _____    ______ ____
ROOT
ATOM      1  N   UNL     1      35.839 -19.752 -20.842  0.00  0.00    +0.389 N 
ATOM      2  H   UNL     1      35.120 -20.004 -21.519  0.00  0.00    -0.084 HD
ATOM      3  H   UNL     1      35.449 -19.159 -20.110  0.00  0.00    -0.084 HD
ENDROOT
BRANCH   1   4
ATOM      4  C   UNL     1      36.896 -19.016 -21.521  0.00  0.00    -0.037 C 
BRANCH   4   6
ATOM      5  O   UNL     1      35.933 -17.147 -22.643  0.00  0.00    -0.482 OA
ATOM      6  C   UNL     1      36.413 -18.481 -22.863  0.00  0.00    +0.145 C 
ATOM      7  C   UNL     1      35.319 -19.376 -23.443  0.00  0.00    +0.046 C 
ATOM      8  C   UNL     1      34.903 -18.837 -24.806  0.00  0.00    +0.033 C 
ATOM      9  C   UNL     1      34.712 -17.349 -24.747  0.00  0.00    +0.012 C 
ATOM     10  C   UNL     1      35.240 -16.597 -23.690  0.00  0.00    +0.134 C 
ATOM     11  C   UNL     1      34.020 -16.692 -25.773  0.00  0.00    -0.001 C 
ATOM     12  C   UNL     1      35.042 -15.215 -23.640  0.00  0.00    +0.037 C 
ATOM     13  C   UNL     1      33.835 -15.310 -25.729  0.00  0.00    -0.000 C 
ATOM     14  C   UNL     1      34.342 -14.573 -24.661  0.00  0.00    +0.003 C 
ENDBRANCH   4   6
ENDBRANCH   1   4
BRANCH   1  15
ATOM     15  C   UNL     1      36.361 -20.965 -20.227  0.00  0.00    -0.053 C 
BRANCH  15  17
ATOM     16  N   UNL     1      33.043 -22.458 -19.245  0.00  0.00    -0.243 NA
ATOM     17  C   UNL     1      35.310 -21.684 -19.423  0.00  0.00    -0.025 C 
ATOM     18  C   UNL     1      35.617 -22.209 -18.184  0.00  0.00    -0.003 C 
ATOM     19  C   UNL     1      34.627 -22.868 -17.465  0.00  0.00    +0.019 C 
ATOM     20  C   UNL     1      34.032 -21.824 -19.915  0.00  0.00    +0.092 C 
ATOM     21  C   UNL     1      33.367 -22.965 -18.035  0.00  0.00    +0.099 C 
BRANCH  19  23
ATOM     22  F   UNL     1      35.679 -25.050 -12.443  0.00  0.00    -0.204 F 
ATOM     23  C   UNL     1      34.900 -23.434 -16.165  0.00  0.00    +0.002 C 
ATOM     24  C   UNL     1      33.846 -23.779 -15.316  0.00  0.00    +0.002 C 
ATOM     25  C   UNL     1      36.217 -23.636 -15.751  0.00  0.00    +0.002 C 
ATOM     26  C   UNL     1      34.109 -24.325 -14.060  0.00  0.00    +0.030 C 
ATOM     27  C   UNL     1      36.481 -24.182 -14.494  0.00  0.00    +0.030 C 
ATOM     28  C   UNL     1      35.426 -24.526 -13.649  0.00  0.00    +0.140 C 
ENDBRANCH  19  23
ENDBRANCH  15  17
ENDBRANCH   1  15
TORSDOF 5
ENDMDL
MODEL 9
REMARK VINA RESULT:     -10.9      4.687      9.826
REMARK  Name = 6918388
REMARK  5 active torsions:
REMARK  status: ('A' for Active; 'I' for Inactive)
REMARK    1  A    between atoms: N_1  and  C_4
REMARK    2  A    between atoms: N_1  and  C_15
REMARK    3  A    between atoms: C_4  and  C_6
REMARK    4  A    between atoms: C_15  and  C_17
REMARK    5  A    between atoms: C_19  and  C_23
REMARK                            x       y       z     vdW  Elec       q    Type
REMARK                         _______ _______ _______ _____ _____    ______ ____
ROOT
ATOM      1  N   UNL     1      34.352 -22.720 -18.838  0.00  0.00    +0.389 N 
ATOM      2  H   UNL     1      34.764 -23.530 -19.300  0.00  0.00    -0.084 HD
ATOM      3  H   UNL     1      35.058 -22.217 -18.301  0.00  0.00    -0.084 HD
ENDROOT
BRANCH   1   4
ATOM      4  C   UNL     1      33.310 -23.170 -17.927  0.00  0.00    -0.037 C 
BRANCH   4   6
ATOM      5  O   UNL     1      35.054 -23.969 -16.514  0.00  0.00    -0.482 OA
ATOM      6  C   UNL     1      33.825 -23.229 -16.494  0.00  0.00    +0.145 C 
ATOM      7  C   UNL     1      32.797 -23.883 -15.573  0.00  0.00    +0.046 C 
ATOM      8  C   UNL     1      33.328 -23.872 -14.145  0.00  0.00    +0.033 C 
ATOM      9  C   UNL     1      34.763 -24.316 -14.115  0.00  0.00    +0.012 C 
ATOM     10  C   UNL     1      35.537 -24.329 -15.282  0.00  0.00    +0.134 C 
ATOM     11  C   UNL     1      35.351 -24.699 -12.902  0.00  0.00    -0.001 C 
ATOM     12  C   UNL     1      36.866 -24.757 -15.241  0.00  0.00    +0.037 C 
ATOM     13  C   UNL     1      36.682 -25.113 -12.861  0.00  0.00    -0.000 C 
ATOM     14  C   UNL     1      37.438 -25.146 -14.031  0.00  0.00    +0.003 C 
ENDBRANCH   4   6
ENDBRANCH   1   4
BRANCH   1  15
ATOM     15  C   UNL     1      33.809 -21.821 -19.848  0.00  0.00    -0.053 C 
BRANCH  15  17
ATOM     16  N   UNL     1      37.127 -20.105 -20.341  0.00  0.00    -0.243 NA
ATOM     17  C   UNL     1      34.864 -20.905 -20.410  0.00  0.00    -0.025 C 
ATOM     18  C   UNL     1      34.567 -20.060 -21.461  0.00  0.00    -0.003 C 
ATOM     19  C   UNL     1      35.561 -19.227 -21.960  0.00  0.00    +0.019 C 
ATOM     20  C   UNL     1      36.135 -20.900 -19.883  0.00  0.00    +0.092 C 
ATOM     21  C   UNL     1      36.814 -19.287 -21.370  0.00  0.00    +0.099 C 
BRANCH  19  23
ATOM     22  F   UNL     1      34.542 -15.748 -26.197  0.00  0.00    -0.204 F 
ATOM     23  C   UNL     1      35.298 -18.327 -23.058  0.00  0.00    +0.002 C 
ATOM     24  C   UNL     1      35.570 -16.964 -22.926  0.00  0.00    +0.002 C 
ATOM     25  C   UNL     1      34.769 -18.815 -24.254  0.00  0.00    +0.002 C 
ATOM     26  C   UNL     1      35.315 -16.093 -23.986  0.00  0.00    +0.030 C 
ATOM     27  C   UNL     1      34.514 -17.944 -25.314  0.00  0.00    +0.030 C 
ATOM     28  C   UNL     1      34.787 -16.584 -25.179  0.00  0.00    +0.140 C 
ENDBRANCH  19  23
ENDBRANCH  15  17
ENDBRANCH   1  15
TORSDOF 5
ENDMDL
