MODEL 1
REMARK VINA RESULT:     -11.3      0.000      0.000
REMARK  Name = 60854
REMARK  3 active torsions:
REMARK  status: ('A' for Active; 'I' for Inactive)
REMARK    1  A    between atoms: N_2  and  C_17
REMARK    2  A    between atoms: C_17  and  C_18
REMARK    3  A    between atoms: C_18  and  C_22
REMARK                            x       y       z     vdW  Elec       q    Type
REMARK                         _______ _______ _______ _____ _____    ______ ____
ROOT
ATOM      1  S   UNL     1      32.904  -9.569 -23.406  0.00  0.00    +0.014 S 
ATOM      2  N   UNL     1      34.791 -15.836 -24.234  0.00  0.00    +0.389 N 
ATOM      3  N   UNL     1      33.742 -13.270 -23.543  0.00  0.00    -0.297 N 
ATOM      4  N   UNL     1      33.534 -10.938 -24.093  0.00  0.00    -0.194 NA
ATOM      5  C   UNL     1      34.610 -15.462 -22.826  0.00  0.00    -0.055 C 
ATOM      6  C   UNL     1      33.742 -15.217 -25.053  0.00  0.00    -0.055 C 
ATOM      7  C   UNL     1      34.687 -13.943 -22.646  0.00  0.00    +0.069 C 
ATOM      8  C   UNL     1      33.792 -13.691 -24.949  0.00  0.00    +0.069 C 
ATOM      9  C   UNL     1      33.330 -11.963 -23.262  0.00  0.00    +0.140 A 
ATOM     10  C   UNL     1      32.652 -11.678 -22.027  0.00  0.00    +0.040 A 
ATOM     11  C   UNL     1      32.338 -10.319 -21.965  0.00  0.00    +0.050 A 
ATOM     12  C   UNL     1      32.280 -12.504 -20.944  0.00  0.00    +0.003 C 
ATOM     13  C   UNL     1      31.669  -9.754 -20.867  0.00  0.00    +0.008 C 
ATOM     14  C   UNL     1      31.615 -11.952 -19.845  0.00  0.00    +0.000 C 
ATOM     15  C   UNL     1      31.314 -10.594 -19.809  0.00  0.00    +0.001 C 
ATOM     16  H   UNL     1      35.699 -15.497 -24.550  0.00  0.00    -0.080 HD
ENDROOT
BRANCH   2  17
ATOM     17  C   UNL     1      34.769 -17.291 -24.385  0.00  0.00    -0.072 C 
BRANCH  17  18
ATOM     18  C   UNL     1      36.079 -17.911 -23.900  0.00  0.00    +0.004 C 
BRANCH  18  22
ATOM     19 CL   UNL     1      38.531 -18.659 -22.199  0.00  0.00    -0.083 Cl
ATOM     20  O   UNL     1      32.865 -22.234 -18.987  0.00  0.00    -0.274 OA
ATOM     21  N   UNL     1      34.952 -21.341 -19.598  0.00  0.00    -0.284 N 
ATOM     22  C   UNL     1      35.855 -18.830 -22.725  0.00  0.00    -0.014 C 
ATOM     23  C   UNL     1      34.350 -20.116 -21.418  0.00  0.00    +0.000 C 
ATOM     24  C   UNL     1      34.555 -19.274 -22.494  0.00  0.00    -0.006 C 
ATOM     25  C   UNL     1      35.413 -20.497 -20.603  0.00  0.00    +0.048 C 
ATOM     26  C   UNL     1      36.923 -19.216 -21.903  0.00  0.00    +0.055 C 
ATOM     27  C   UNL     1      33.089 -20.749 -20.923  0.00  0.00    +0.113 C 
ATOM     28  C   UNL     1      36.706 -20.067 -20.817  0.00  0.00    +0.025 C 
ATOM     29  C   UNL     1      33.573 -21.549 -19.709  0.00  0.00    +0.231 C 
ATOM     30  H   UNL     1      35.521 -21.739 -18.901  0.00  0.00    +0.155 HD
ENDBRANCH  18  22
ENDBRANCH  17  18
ENDBRANCH   2  17
TORSDOF 3
ENDMDL
MODEL 2
REMARK VINA RESULT:     -11.2      4.977     10.066
REMARK  Name = 60854
REMARK  3 active torsions:
REMARK  status: ('A' for Active; 'I' for Inactive)
REMARK    1  A    between atoms: N_2  and  C_17
REMARK    2  A    between atoms: C_17  and  C_18
REMARK    3  A    between atoms: C_18  and  C_22
REMARK                            x       y       z     vdW  Elec       q    Type
REMARK                         _______ _______ _______ _____ _____    ______ ____
ROOT
ATOM      1  S   UNL     1      35.689 -24.692 -14.815  0.00  0.00    +0.014 S 
ATOM      2  N   UNL     1      34.813 -21.404 -20.465  0.00  0.00    +0.389 N 
ATOM      3  N   UNL     1      34.825 -22.640 -17.891  0.00  0.00    -0.297 N 
ATOM      4  N   UNL     1      35.990 -24.010 -16.294  0.00  0.00    -0.194 NA
ATOM      5  C   UNL     1      33.558 -21.854 -19.851  0.00  0.00    -0.055 C 
ATOM      6  C   UNL     1      35.740 -20.943 -19.425  0.00  0.00    -0.055 C 
ATOM      7  C   UNL     1      33.805 -23.009 -18.878  0.00  0.00    +0.069 C 
ATOM      8  C   UNL     1      36.061 -22.068 -18.439  0.00  0.00    +0.069 C 
ATOM      9  C   UNL     1      34.904 -23.338 -16.680  0.00  0.00    +0.140 A 
ATOM     10  C   UNL     1      33.776 -23.349 -15.789  0.00  0.00    +0.040 A 
ATOM     11  C   UNL     1      34.081 -24.101 -14.653  0.00  0.00    +0.050 A 
ATOM     12  C   UNL     1      32.496 -22.758 -15.880  0.00  0.00    +0.003 C 
ATOM     13  C   UNL     1      33.163 -24.286 -13.607  0.00  0.00    +0.008 C 
ATOM     14  C   UNL     1      31.574 -22.936 -14.844  0.00  0.00    +0.000 C 
ATOM     15  C   UNL     1      31.904 -23.690 -13.724  0.00  0.00    +0.001 C 
ATOM     16  H   UNL     1      35.236 -22.188 -20.961  0.00  0.00    -0.080 HD
ENDROOT
BRANCH   2  17
ATOM     17  C   UNL     1      34.557 -20.337 -21.433  0.00  0.00    -0.072 C 
BRANCH  17  18
ATOM     18  C   UNL     1      35.772 -19.421 -21.572  0.00  0.00    +0.004 C 
BRANCH  18  22
ATOM     19 CL   UNL     1      35.414 -19.884 -24.592  0.00  0.00    -0.083 Cl
ATOM     20  O   UNL     1      34.412 -12.577 -23.687  0.00  0.00    -0.274 OA
ATOM     21  N   UNL     1      34.633 -14.770 -24.507  0.00  0.00    -0.284 N 
ATOM     22  C   UNL     1      35.464 -18.217 -22.427  0.00  0.00    -0.014 C 
ATOM     23  C   UNL     1      35.081 -15.880 -22.573  0.00  0.00    +0.000 C 
ATOM     24  C   UNL     1      35.363 -16.982 -21.789  0.00  0.00    -0.006 C 
ATOM     25  C   UNL     1      34.905 -16.013 -23.947  0.00  0.00    +0.048 C 
ATOM     26  C   UNL     1      35.287 -18.348 -23.812  0.00  0.00    +0.055 C 
ATOM     27  C   UNL     1      34.914 -14.446 -22.184  0.00  0.00    +0.113 C 
ATOM     28  C   UNL     1      35.001 -17.228 -24.595  0.00  0.00    +0.025 C 
ATOM     29  C   UNL     1      34.619 -13.770 -23.527  0.00  0.00    +0.231 C 
ATOM     30  H   UNL     1      34.473 -14.613 -25.465  0.00  0.00    +0.155 HD
ENDBRANCH  18  22
ENDBRANCH  17  18
ENDBRANCH   2  17
TORSDOF 3
ENDMDL
MODEL 3
REMARK VINA RESULT:     -10.9      1.437      2.173
REMARK  Name = 60854
REMARK  3 active torsions:
REMARK  status: ('A' for Active; 'I' for Inactive)
REMARK    1  A    between atoms: N_2  and  C_17
REMARK    2  A    between atoms: C_17  and  C_18
REMARK    3  A    between atoms: C_18  and  C_22
REMARK                            x       y       z     vdW  Elec       q    Type
REMARK                         _______ _______ _______ _____ _____    ______ ____
ROOT
ATOM      1  S   UNL     1      30.826 -11.124 -20.702  0.00  0.00    +0.014 S 
ATOM      2  N   UNL     1      34.769 -15.845 -23.083  0.00  0.00    +0.389 N 
ATOM      3  N   UNL     1      33.305 -13.527 -22.281  0.00  0.00    -0.297 N 
ATOM      4  N   UNL     1      31.577 -12.586 -20.899  0.00  0.00    -0.194 NA
ATOM      5  C   UNL     1      34.523 -14.755 -24.035  0.00  0.00    -0.055 C 
ATOM      6  C   UNL     1      34.927 -15.300 -21.730  0.00  0.00    -0.055 C 
ATOM      7  C   UNL     1      33.250 -13.984 -23.673  0.00  0.00    +0.069 C 
ATOM      8  C   UNL     1      33.667 -14.549 -21.290  0.00  0.00    +0.069 C 
ATOM      9  C   UNL     1      32.489 -12.469 -21.865  0.00  0.00    +0.140 A 
ATOM     10  C   UNL     1      32.618 -11.181 -22.491  0.00  0.00    +0.040 A 
ATOM     11  C   UNL     1      31.710 -10.287 -21.918  0.00  0.00    +0.050 A 
ATOM     12  C   UNL     1      33.461 -10.714 -23.523  0.00  0.00    +0.003 C 
ATOM     13  C   UNL     1      31.613  -8.950 -22.334  0.00  0.00    +0.008 C 
ATOM     14  C   UNL     1      33.372  -9.384 -23.945  0.00  0.00    +0.000 C 
ATOM     15  C   UNL     1      32.459  -8.515 -23.357  0.00  0.00    +0.001 C 
ATOM     16  H   UNL     1      33.968 -16.477 -23.093  0.00  0.00    -0.080 HD
ENDROOT
BRANCH   2  17
ATOM     17  C   UNL     1      35.956 -16.606 -23.472  0.00  0.00    -0.072 C 
BRANCH  17  18
ATOM     18  C   UNL     1      35.582 -18.028 -23.890  0.00  0.00    +0.004 C 
BRANCH  18  22
ATOM     19 CL   UNL     1      38.208 -18.700 -22.433  0.00  0.00    -0.083 Cl
ATOM     20  O   UNL     1      32.985 -22.437 -18.696  0.00  0.00    -0.274 OA
ATOM     21  N   UNL     1      34.976 -21.483 -19.503  0.00  0.00    -0.284 N 
ATOM     22  C   UNL     1      35.500 -18.951 -22.699  0.00  0.00    -0.014 C 
ATOM     23  C   UNL     1      34.166 -20.280 -21.255  0.00  0.00    +0.000 C 
ATOM     24  C   UNL     1      34.242 -19.434 -22.345  0.00  0.00    -0.006 C 
ATOM     25  C   UNL     1      35.313 -20.628 -20.547  0.00  0.00    +0.048 C 
ATOM     26  C   UNL     1      36.653 -19.304 -21.985  0.00  0.00    +0.055 C 
ATOM     27  C   UNL     1      32.978 -20.949 -20.643  0.00  0.00    +0.113 C 
ATOM     28  C   UNL     1      36.567 -20.159 -20.884  0.00  0.00    +0.025 C 
ATOM     29  C   UNL     1      33.600 -21.732 -19.481  0.00  0.00    +0.231 C 
ATOM     30  H   UNL     1      35.621 -21.863 -18.865  0.00  0.00    +0.155 HD
ENDBRANCH  18  22
ENDBRANCH  17  18
ENDBRANCH   2  17
TORSDOF 3
ENDMDL
MODEL 4
REMARK VINA RESULT:     -10.8      1.281      1.683
REMARK  Name = 60854
REMARK  3 active torsions:
REMARK  status: ('A' for Active; 'I' for Inactive)
REMARK    1  A    between atoms: N_2  and  C_17
REMARK    2  A    between atoms: C_17  and  C_18
REMARK    3  A    between atoms: C_18  and  C_22
REMARK                            x       y       z     vdW  Elec       q    Type
REMARK                         _______ _______ _______ _____ _____    ______ ____
ROOT
ATOM      1  S   UNL     1      33.368 -10.843 -24.004  0.00  0.00    +0.014 S 
ATOM      2  N   UNL     1      35.752 -16.964 -23.408  0.00  0.00    +0.389 N 
ATOM      3  N   UNL     1      34.437 -14.429 -23.361  0.00  0.00    -0.297 N 
ATOM      4  N   UNL     1      34.200 -12.238 -24.324  0.00  0.00    -0.194 NA
ATOM      5  C   UNL     1      35.278 -16.397 -22.140  0.00  0.00    -0.055 C 
ATOM      6  C   UNL     1      34.847 -16.577 -24.497  0.00  0.00    -0.055 C 
ATOM      7  C   UNL     1      35.228 -14.868 -22.206  0.00  0.00    +0.069 C 
ATOM      8  C   UNL     1      34.784 -15.055 -24.643  0.00  0.00    +0.069 C 
ATOM      9  C   UNL     1      33.900 -13.137 -23.384  0.00  0.00    +0.140 A 
ATOM     10  C   UNL     1      32.978 -12.729 -22.359  0.00  0.00    +0.040 A 
ATOM     11  C   UNL     1      32.577 -11.411 -22.585  0.00  0.00    +0.050 A 
ATOM     12  C   UNL     1      32.454 -13.409 -21.239  0.00  0.00    +0.003 C 
ATOM     13  C   UNL     1      31.676 -10.747 -21.738  0.00  0.00    +0.008 C 
ATOM     14  C   UNL     1      31.555 -12.757 -20.388  0.00  0.00    +0.000 C 
ATOM     15  C   UNL     1      31.172 -11.443 -20.637  0.00  0.00    +0.001 C 
ATOM     16  H   UNL     1      36.683 -16.597 -23.605  0.00  0.00    -0.080 HD
ENDROOT
BRANCH   2  17
ATOM     17  C   UNL     1      35.847 -18.421 -23.313  0.00  0.00    -0.072 C 
BRANCH  17  18
ATOM     18  C   UNL     1      34.607 -19.007 -22.637  0.00  0.00    +0.004 C 
BRANCH  18  22
ATOM     19 CL   UNL     1      37.566 -19.082 -21.796  0.00  0.00    -0.083 Cl
ATOM     20  O   UNL     1      34.170 -23.742 -17.110  0.00  0.00    -0.274 OA
ATOM     21  N   UNL     1      35.696 -22.411 -18.305  0.00  0.00    -0.284 N 
ATOM     22  C   UNL     1      34.978 -19.900 -21.479  0.00  0.00    -0.014 C 
ATOM     23  C   UNL     1      34.294 -21.444 -19.813  0.00  0.00    +0.000 C 
ATOM     24  C   UNL     1      33.955 -20.627 -20.874  0.00  0.00    -0.006 C 
ATOM     25  C   UNL     1      35.613 -21.529 -19.377  0.00  0.00    +0.048 C 
ATOM     26  C   UNL     1      36.305 -19.988 -21.038  0.00  0.00    +0.055 C 
ATOM     27  C   UNL     1      33.432 -22.333 -18.975  0.00  0.00    +0.113 C 
ATOM     28  C   UNL     1      36.639 -20.816 -19.965  0.00  0.00    +0.025 C 
ATOM     29  C   UNL     1      34.439 -22.942 -17.993  0.00  0.00    +0.231 C 
ATOM     30  H   UNL     1      36.528 -22.634 -17.830  0.00  0.00    +0.155 HD
ENDBRANCH  18  22
ENDBRANCH  17  18
ENDBRANCH   2  17
TORSDOF 3
ENDMDL
MODEL 5
REMARK VINA RESULT:     -10.8      5.239      8.025
REMARK  Name = 60854
REMARK  3 active torsions:
REMARK  status: ('A' for Active; 'I' for Inactive)
REMARK    1  A    between atoms: N_2  and  C_17
REMARK    2  A    between atoms: C_17  and  C_18
REMARK    3  A    between atoms: C_18  and  C_22
REMARK                            x       y       z     vdW  Elec       q    Type
REMARK                         _______ _______ _______ _____ _____    ______ ____
ROOT
ATOM      1  S   UNL     1      31.190  -2.446 -24.319  0.00  0.00    +0.014 S 
ATOM      2  N   UNL     1      31.739  -8.574 -21.939  0.00  0.00    +0.389 N 
ATOM      3  N   UNL     1      31.870  -6.004 -23.178  0.00  0.00    -0.297 N 
ATOM      4  N   UNL     1      30.952  -3.790 -23.380  0.00  0.00    -0.194 NA
ATOM      5  C   UNL     1      32.226  -8.437 -23.317  0.00  0.00    -0.055 C 
ATOM      6  C   UNL     1      32.118  -7.391 -21.156  0.00  0.00    -0.055 C 
ATOM      7  C   UNL     1      31.628  -7.199 -23.991  0.00  0.00    +0.069 C 
ATOM      8  C   UNL     1      31.516  -6.119 -21.757  0.00  0.00    +0.069 C 
ATOM      9  C   UNL     1      31.808  -4.737 -23.770  0.00  0.00    +0.140 A 
ATOM     10  C   UNL     1      32.697  -4.411 -24.852  0.00  0.00    +0.040 A 
ATOM     11  C   UNL     1      32.456  -3.104 -25.280  0.00  0.00    +0.050 A 
ATOM     12  C   UNL     1      33.704  -5.157 -25.501  0.00  0.00    +0.003 C 
ATOM     13  C   UNL     1      33.180  -2.515 -26.329  0.00  0.00    +0.008 C 
ATOM     14  C   UNL     1      34.431  -4.579 -26.547  0.00  0.00    +0.000 C 
ATOM     15  C   UNL     1      34.171  -3.275 -26.954  0.00  0.00    +0.001 C 
ATOM     16  H   UNL     1      30.722  -8.647 -21.955  0.00  0.00    -0.080 HD
ENDROOT
BRANCH   2  17
ATOM     17  C   UNL     1      32.275  -9.789 -21.324  0.00  0.00    -0.072 C 
BRANCH  17  18
ATOM     18  C   UNL     1      31.490 -11.021 -21.774  0.00  0.00    +0.004 C 
BRANCH  18  22
ATOM     19 CL   UNL     1      31.883 -12.532 -19.123  0.00  0.00    -0.083 Cl
ATOM     20  O   UNL     1      35.841 -16.395 -24.084  0.00  0.00    -0.274 OA
ATOM     21  N   UNL     1      34.772 -15.561 -22.164  0.00  0.00    -0.284 N 
ATOM     22  C   UNL     1      32.360 -12.253 -21.799  0.00  0.00    -0.014 C 
ATOM     23  C   UNL     1      33.720 -13.746 -23.043  0.00  0.00    +0.000 C 
ATOM     24  C   UNL     1      32.923 -12.619 -23.020  0.00  0.00    -0.006 C 
ATOM     25  C   UNL     1      33.943 -14.481 -21.882  0.00  0.00    +0.048 C 
ATOM     26  C   UNL     1      32.587 -12.994 -20.632  0.00  0.00    +0.055 C 
ATOM     27  C   UNL     1      34.451 -14.380 -24.183  0.00  0.00    +0.113 C 
ATOM     28  C   UNL     1      33.393 -14.134 -20.664  0.00  0.00    +0.025 C 
ATOM     29  C   UNL     1      35.128 -15.583 -23.517  0.00  0.00    +0.231 C 
ATOM     30  H   UNL     1      35.070 -16.223 -21.499  0.00  0.00    +0.155 HD
ENDBRANCH  18  22
ENDBRANCH  17  18
ENDBRANCH   2  17
TORSDOF 3
ENDMDL
MODEL 6
REMARK VINA RESULT:     -10.8      3.355      5.494
REMARK  Name = 60854
REMARK  3 active torsions:
REMARK  status: ('A' for Active; 'I' for Inactive)
REMARK    1  A    between atoms: N_2  and  C_17
REMARK    2  A    between atoms: C_17  and  C_18
REMARK    3  A    between atoms: C_18  and  C_22
REMARK                            x       y       z     vdW  Elec       q    Type
REMARK                         _______ _______ _______ _____ _____    ______ ____
ROOT
ATOM      1  S   UNL     1      34.161 -16.275 -26.070  0.00  0.00    +0.014 S 
ATOM      2  N   UNL     1      36.368 -20.088 -21.161  0.00  0.00    +0.389 N 
ATOM      3  N   UNL     1      35.350 -18.137 -22.982  0.00  0.00    -0.297 N 
ATOM      4  N   UNL     1      34.644 -17.612 -25.220  0.00  0.00    -0.194 NA
ATOM      5  C   UNL     1      36.704 -18.668 -20.994  0.00  0.00    -0.055 C 
ATOM      6  C   UNL     1      35.012 -20.218 -21.706  0.00  0.00    -0.055 C 
ATOM      7  C   UNL     1      36.649 -17.929 -22.333  0.00  0.00    +0.069 C 
ATOM      8  C   UNL     1      34.901 -19.532 -23.070  0.00  0.00    +0.069 C 
ATOM      9  C   UNL     1      34.915 -17.243 -23.966  0.00  0.00    +0.140 A 
ATOM     10  C   UNL     1      34.741 -15.853 -23.641  0.00  0.00    +0.040 A 
ATOM     11  C   UNL     1      34.304 -15.157 -24.770  0.00  0.00    +0.050 A 
ATOM     12  C   UNL     1      34.933 -15.135 -22.441  0.00  0.00    +0.003 C 
ATOM     13  C   UNL     1      34.050 -13.777 -24.746  0.00  0.00    +0.008 C 
ATOM     14  C   UNL     1      34.683 -13.759 -22.406  0.00  0.00    +0.000 C 
ATOM     15  C   UNL     1      34.247 -13.091 -23.545  0.00  0.00    +0.001 C 
ATOM     16  H   UNL     1      37.029 -20.507 -21.814  0.00  0.00    -0.080 HD
ENDROOT
BRANCH   2  17
ATOM     17  C   UNL     1      36.478 -20.793 -19.884  0.00  0.00    -0.072 C 
BRANCH  17  18
ATOM     18  C   UNL     1      35.678 -22.096 -19.909  0.00  0.00    +0.004 C 
BRANCH  18  22
ATOM     19 CL   UNL     1      37.579 -22.207 -17.492  0.00  0.00    -0.083 Cl
ATOM     20  O   UNL     1      30.861 -23.637 -14.658  0.00  0.00    -0.274 OA
ATOM     21  N   UNL     1      33.149 -23.244 -15.028  0.00  0.00    -0.284 N 
ATOM     22  C   UNL     1      35.072 -22.400 -18.562  0.00  0.00    -0.014 C 
ATOM     23  C   UNL     1      33.139 -22.886 -17.274  0.00  0.00    +0.000 C 
ATOM     24  C   UNL     1      33.695 -22.608 -18.508  0.00  0.00    -0.006 C 
ATOM     25  C   UNL     1      33.938 -22.952 -16.135  0.00  0.00    +0.048 C 
ATOM     26  C   UNL     1      35.873 -22.467 -17.414  0.00  0.00    +0.055 C 
ATOM     27  C   UNL     1      31.716 -23.152 -16.903  0.00  0.00    +0.113 C 
ATOM     28  C   UNL     1      35.302 -22.748 -16.171  0.00  0.00    +0.025 C 
ATOM     29  C   UNL     1      31.804 -23.382 -15.390  0.00  0.00    +0.231 C 
ATOM     30  H   UNL     1      33.491 -23.342 -14.110  0.00  0.00    +0.155 HD
ENDBRANCH  18  22
ENDBRANCH  17  18
ENDBRANCH   2  17
TORSDOF 3
ENDMDL
MODEL 7
REMARK VINA RESULT:     -10.7      6.037     11.240
REMARK  Name = 60854
REMARK  3 active torsions:
REMARK  status: ('A' for Active; 'I' for Inactive)
REMARK    1  A    between atoms: N_2  and  C_17
REMARK    2  A    between atoms: C_17  and  C_18
REMARK    3  A    between atoms: C_18  and  C_22
REMARK                            x       y       z     vdW  Elec       q    Type
REMARK                         _______ _______ _______ _____ _____    ______ ____
ROOT
ATOM      1  S   UNL     1      35.667 -24.684 -12.531  0.00  0.00    +0.014 S 
ATOM      2  N   UNL     1      34.931 -21.870 -18.451  0.00  0.00    +0.389 N 
ATOM      3  N   UNL     1      35.607 -23.267 -16.053  0.00  0.00    -0.297 N 
ATOM      4  N   UNL     1      34.985 -23.894 -13.816  0.00  0.00    -0.194 NA
ATOM      5  C   UNL     1      36.334 -22.001 -18.037  0.00  0.00    -0.055 C 
ATOM      6  C   UNL     1      34.179 -23.066 -18.052  0.00  0.00    -0.055 C 
ATOM      7  C   UNL     1      36.447 -22.159 -16.519  0.00  0.00    +0.069 C 
ATOM      8  C   UNL     1      34.219 -23.257 -16.534  0.00  0.00    +0.069 C 
ATOM      9  C   UNL     1      35.869 -23.864 -14.814  0.00  0.00    +0.140 A 
ATOM     10  C   UNL     1      37.145 -24.483 -14.578  0.00  0.00    +0.040 A 
ATOM     11  C   UNL     1      37.180 -25.009 -13.284  0.00  0.00    +0.050 A 
ATOM     12  C   UNL     1      38.287 -24.630 -15.394  0.00  0.00    +0.003 C 
ATOM     13  C   UNL     1      38.307 -25.674 -12.776  0.00  0.00    +0.008 C 
ATOM     14  C   UNL     1      39.416 -25.291 -14.898  0.00  0.00    +0.000 C 
ATOM     15  C   UNL     1      39.423 -25.805 -13.606  0.00  0.00    +0.001 C 
ATOM     16  H   UNL     1      34.527 -21.056 -17.989  0.00  0.00    -0.080 HD
ENDROOT
BRANCH   2  17
ATOM     17  C   UNL     1      34.840 -21.666 -19.897  0.00  0.00    -0.072 C 
BRANCH  17  18
ATOM     18  C   UNL     1      36.194 -21.258 -20.477  0.00  0.00    +0.004 C 
BRANCH  18  22
ATOM     19 CL   UNL     1      37.872 -18.731 -19.963  0.00  0.00    -0.083 Cl
ATOM     20  O   UNL     1      34.068 -17.220 -26.163  0.00  0.00    -0.274 OA
ATOM     21  N   UNL     1      35.476 -17.189 -24.281  0.00  0.00    -0.284 N 
ATOM     22  C   UNL     1      36.055 -20.120 -21.458  0.00  0.00    -0.014 C 
ATOM     23  C   UNL     1      35.049 -19.252 -23.424  0.00  0.00    +0.000 C 
ATOM     24  C   UNL     1      35.177 -20.294 -22.526  0.00  0.00    -0.006 C 
ATOM     25  C   UNL     1      35.778 -18.077 -23.255  0.00  0.00    +0.048 C 
ATOM     26  C   UNL     1      36.786 -18.936 -21.291  0.00  0.00    +0.055 C 
ATOM     27  C   UNL     1      34.200 -19.142 -24.649  0.00  0.00    +0.113 C 
ATOM     28  C   UNL     1      36.652 -17.888 -22.204  0.00  0.00    +0.025 C 
ATOM     29  C   UNL     1      34.540 -17.739 -25.164  0.00  0.00    +0.231 C 
ATOM     30  H   UNL     1      35.868 -16.291 -24.374  0.00  0.00    +0.155 HD
ENDBRANCH  18  22
ENDBRANCH  17  18
ENDBRANCH   2  17
TORSDOF 3
ENDMDL
MODEL 8
REMARK VINA RESULT:     -10.7      3.655      5.701
REMARK  Name = 60854
REMARK  3 active torsions:
REMARK  status: ('A' for Active; 'I' for Inactive)
REMARK    1  A    between atoms: N_2  and  C_17
REMARK    2  A    between atoms: C_17  and  C_18
REMARK    3  A    between atoms: C_18  and  C_22
REMARK                            x       y       z     vdW  Elec       q    Type
REMARK                         _______ _______ _______ _____ _____    ______ ____
ROOT
ATOM      1  S   UNL     1      33.916 -15.954 -26.264  0.00  0.00    +0.014 S 
ATOM      2  N   UNL     1      36.494 -19.824 -21.586  0.00  0.00    +0.389 N 
ATOM      3  N   UNL     1      35.330 -17.856 -23.297  0.00  0.00    -0.297 N 
ATOM      4  N   UNL     1      34.474 -17.299 -25.474  0.00  0.00    -0.194 NA
ATOM      5  C   UNL     1      36.817 -18.402 -21.411  0.00  0.00    -0.055 C 
ATOM      6  C   UNL     1      35.108 -19.967 -22.046  0.00  0.00    -0.055 C 
ATOM      7  C   UNL     1      36.664 -17.638 -22.729  0.00  0.00    +0.069 C 
ATOM      8  C   UNL     1      34.899 -19.256 -23.386  0.00  0.00    +0.069 C 
ATOM      9  C   UNL     1      34.818 -16.950 -24.233  0.00  0.00    +0.140 A 
ATOM     10  C   UNL     1      34.644 -15.570 -23.869  0.00  0.00    +0.040 A 
ATOM     11  C   UNL     1      34.124 -14.859 -24.953  0.00  0.00    +0.050 A 
ATOM     12  C   UNL     1      34.900 -14.873 -22.669  0.00  0.00    +0.003 C 
ATOM     13  C   UNL     1      33.850 -13.484 -24.885  0.00  0.00    +0.008 C 
ATOM     14  C   UNL     1      34.631 -13.502 -22.590  0.00  0.00    +0.000 C 
ATOM     15  C   UNL     1      34.113 -12.819 -23.685  0.00  0.00    +0.001 C 
ATOM     16  H   UNL     1      37.118 -20.219 -22.288  0.00  0.00    -0.080 HD
ENDROOT
BRANCH   2  17
ATOM     17  C   UNL     1      36.696 -20.552 -20.333  0.00  0.00    -0.072 C 
BRANCH  17  18
ATOM     18  C   UNL     1      35.543 -21.522 -20.073  0.00  0.00    +0.004 C 
BRANCH  18  22
ATOM     19 CL   UNL     1      32.897 -22.481 -18.830  0.00  0.00    -0.083 Cl
ATOM     20  O   UNL     1      37.995 -23.732 -13.572  0.00  0.00    -0.274 OA
ATOM     21  N   UNL     1      36.036 -23.549 -14.859  0.00  0.00    -0.284 N 
ATOM     22  C   UNL     1      35.596 -22.081 -18.672  0.00  0.00    -0.014 C 
ATOM     23  C   UNL     1      36.886 -22.634 -16.760  0.00  0.00    +0.000 C 
ATOM     24  C   UNL     1      36.837 -22.123 -18.042  0.00  0.00    -0.006 C 
ATOM     25  C   UNL     1      35.728 -23.087 -16.133  0.00  0.00    +0.048 C 
ATOM     26  C   UNL     1      34.432 -22.537 -18.039  0.00  0.00    +0.055 C 
ATOM     27  C   UNL     1      38.051 -22.805 -15.840  0.00  0.00    +0.113 C 
ATOM     28  C   UNL     1      34.490 -23.053 -16.743  0.00  0.00    +0.025 C 
ATOM     29  C   UNL     1      37.404 -23.421 -14.594  0.00  0.00    +0.231 C 
ATOM     30  H   UNL     1      35.379 -23.919 -14.226  0.00  0.00    +0.155 HD
ENDBRANCH  18  22
ENDBRANCH  17  18
ENDBRANCH   2  17
TORSDOF 3
ENDMDL
MODEL 9
REMARK VINA RESULT:     -10.6      2.101      2.769
REMARK  Name = 60854
REMARK  3 active torsions:
REMARK  status: ('A' for Active; 'I' for Inactive)
REMARK    1  A    between atoms: N_2  and  C_17
REMARK    2  A    between atoms: C_17  and  C_18
REMARK    3  A    between atoms: C_18  and  C_22
REMARK                            x       y       z     vdW  Elec       q    Type
REMARK                         _______ _______ _______ _____ _____    ______ ____
ROOT
ATOM      1  S   UNL     1      33.448 -11.251 -23.989  0.00  0.00    +0.014 S 
ATOM      2  N   UNL     1      36.030 -17.239 -22.995  0.00  0.00    +0.389 N 
ATOM      3  N   UNL     1      34.625 -14.756 -23.122  0.00  0.00    -0.297 N 
ATOM      4  N   UNL     1      34.338 -12.630 -24.210  0.00  0.00    -0.194 NA
ATOM      5  C   UNL     1      35.501 -16.622 -21.773  0.00  0.00    -0.055 C 
ATOM      6  C   UNL     1      35.143 -16.945 -24.127  0.00  0.00    -0.055 C 
ATOM      7  C   UNL     1      35.398 -15.101 -21.925  0.00  0.00    +0.069 C 
ATOM      8  C   UNL     1      35.030 -15.437 -24.358  0.00  0.00    +0.069 C 
ATOM      9  C   UNL     1      34.044 -13.487 -23.231  0.00  0.00    +0.140 A 
ATOM     10  C   UNL     1      33.080 -13.059 -22.254  0.00  0.00    +0.040 A 
ATOM     11  C   UNL     1      32.639 -11.770 -22.562  0.00  0.00    +0.050 A 
ATOM     12  C   UNL     1      32.548 -13.696 -21.112  0.00  0.00    +0.003 C 
ATOM     13  C   UNL     1      31.691 -11.095 -21.777  0.00  0.00    +0.008 C 
ATOM     14  C   UNL     1      31.603 -13.032 -20.322  0.00  0.00    +0.000 C 
ATOM     15  C   UNL     1      31.181 -11.749 -20.653  0.00  0.00    +0.001 C 
ATOM     16  H   UNL     1      36.952 -16.849 -23.189  0.00  0.00    -0.080 HD
ENDROOT
BRANCH   2  17
ATOM     17  C   UNL     1      36.174 -18.684 -22.818  0.00  0.00    -0.072 C 
BRANCH  17  18
ATOM     18  C   UNL     1      34.811 -19.349 -22.620  0.00  0.00    +0.004 C 
BRANCH  18  22
ATOM     19 CL   UNL     1      32.077 -20.395 -21.674  0.00  0.00    -0.083 Cl
ATOM     20  O   UNL     1      36.913 -23.029 -16.687  0.00  0.00    -0.274 OA
ATOM     21  N   UNL     1      35.013 -22.464 -17.951  0.00  0.00    -0.284 N 
ATOM     22  C   UNL     1      34.785 -20.195 -21.370  0.00  0.00    -0.014 C 
ATOM     23  C   UNL     1      35.976 -21.216 -19.591  0.00  0.00    +0.000 C 
ATOM     24  C   UNL     1      36.000 -20.441 -20.734  0.00  0.00    -0.006 C 
ATOM     25  C   UNL     1      34.774 -21.724 -19.104  0.00  0.00    +0.048 C 
ATOM     26  C   UNL     1      33.577 -20.707 -20.877  0.00  0.00    +0.055 C 
ATOM     27  C   UNL     1      37.098 -21.646 -18.701  0.00  0.00    +0.113 C 
ATOM     28  C   UNL     1      33.562 -21.489 -19.721  0.00  0.00    +0.025 C 
ATOM     29  C   UNL     1      36.376 -22.474 -17.632  0.00  0.00    +0.231 C 
ATOM     30  H   UNL     1      34.316 -22.920 -17.427  0.00  0.00    +0.155 HD
ENDBRANCH  18  22
ENDBRANCH  17  18
ENDBRANCH   2  17
TORSDOF 3
ENDMDL
