MODEL 1
REMARK VINA RESULT:     -13.8      0.000      0.000
REMARK  Name = 67335295
REMARK  6 active torsions:
REMARK  status: ('A' for Active; 'I' for Inactive)
REMARK    1  A    between atoms: N_2  and  C_14
REMARK    2  A    between atoms: C_7  and  O_20
REMARK    3  A    between atoms: O_20  and  C_21
REMARK    4  A    between atoms: C_21  and  C_23
REMARK    5  A    between atoms: C_22  and  C_28
REMARK    6  A    between atoms: C_28  and  N_30
REMARK                            x       y       z     vdW  Elec       q    Type
REMARK                         _______ _______ _______ _____ _____    ______ ____
ROOT
ATOM      1  O   UNL     1      33.842 -24.615 -12.836  0.00  0.00    -0.270 OA
ATOM      2  N   UNL     1      34.902 -24.339 -14.930  0.00  0.00    -0.265 N 
ATOM      3  C   UNL     1      34.518 -23.867 -16.255  0.00  0.00    +0.124 C 
ATOM      4  C   UNL     1      33.083 -23.519 -16.055  0.00  0.00    +0.036 C 
ATOM      5  C   UNL     1      33.860 -24.298 -14.012  0.00  0.00    +0.249 C 
ATOM      6  C   UNL     1      32.698 -23.773 -14.738  0.00  0.00    +0.054 C 
ATOM      7  C   UNL     1      32.171 -23.013 -16.963  0.00  0.00    +0.137 C 
ATOM      8  C   UNL     1      31.417 -23.539 -14.277  0.00  0.00    +0.004 C 
ATOM      9  C   UNL     1      30.867 -22.768 -16.522  0.00  0.00    +0.037 C 
ATOM     10  C   UNL     1      30.494 -23.029 -15.190  0.00  0.00    +0.003 C 
ENDROOT
BRANCH   2  14
ATOM     11  O   UNL     1      36.967 -22.596 -15.269  0.00  0.00    -0.273 OA
ATOM     12  O   UNL     1      40.060 -25.989 -15.625  0.00  0.00    -0.275 OA
ATOM     13  N   UNL     1      38.475 -24.322 -15.464  0.00  0.00    -0.254 N 
ATOM     14  C   UNL     1      36.226 -24.800 -14.606  0.00  0.00    +0.153 C 
ATOM     15  C   UNL     1      36.476 -26.192 -15.165  0.00  0.00    +0.039 C 
ATOM     16  C   UNL     1      37.892 -26.622 -14.828  0.00  0.00    +0.088 C 
ATOM     17  C   UNL     1      37.219 -23.796 -15.163  0.00  0.00    +0.246 C 
ATOM     18  C   UNL     1      38.910 -25.640 -15.358  0.00  0.00    +0.228 C 
ATOM     19  H   UNL     1      39.141 -23.676 -15.793  0.00  0.00    +0.158 HD
ENDBRANCH   2  14
BRANCH   7  20
ATOM     20  O   UNL     1      32.522 -22.760 -18.250  0.00  0.00    -0.471 OA
BRANCH  20  21
ATOM     21  C   UNL     1      33.823 -23.179 -18.665  0.00  0.00    +0.232 C 
BRANCH  21  23
ATOM     22  C   UNL     1      35.632 -20.049 -20.977  0.00  0.00    -0.043 C 
ATOM     23  C   UNL     1      34.456 -22.083 -19.472  0.00  0.00    +0.021 C 
ATOM     24  C   UNL     1      34.243 -20.181 -20.947  0.00  0.00    -0.007 C 
ATOM     25  C   UNL     1      36.432 -20.934 -20.255  0.00  0.00    -0.007 C 
ATOM     26  C   UNL     1      33.655 -21.198 -20.195  0.00  0.00    -0.001 C 
ATOM     27  C   UNL     1      35.844 -21.951 -19.502  0.00  0.00    -0.001 C 
BRANCH  22  28
ATOM     28  C   UNL     1      36.260 -18.962 -21.782  0.00  0.00    -0.050 C 
BRANCH  28  30
ATOM     29  O   UNL     1      34.785 -17.421 -25.397  0.00  0.00    -0.358 OA
ATOM     30  N   UNL     1      35.352 -18.425 -22.794  0.00  0.00    +0.393 N 
ATOM     31  C   UNL     1      35.770 -17.078 -23.206  0.00  0.00    -0.044 C 
ATOM     32  C   UNL     1      35.292 -19.313 -23.964  0.00  0.00    -0.044 C 
ATOM     33  C   UNL     1      34.350 -18.727 -25.011  0.00  0.00    +0.119 C 
ATOM     34  C   UNL     1      34.816 -16.544 -24.271  0.00  0.00    +0.119 C 
ATOM     35  H   UNL     1      34.422 -18.366 -22.381  0.00  0.00    -0.079 HD
ENDBRANCH  28  30
ENDBRANCH  22  28
ENDBRANCH  21  23
ENDBRANCH  20  21
ENDBRANCH   7  20
TORSDOF 6
ENDMDL
MODEL 2
REMARK VINA RESULT:     -13.1      7.495     14.256
REMARK  Name = 67335295
REMARK  6 active torsions:
REMARK  status: ('A' for Active; 'I' for Inactive)
REMARK    1  A    between atoms: N_2  and  C_14
REMARK    2  A    between atoms: C_7  and  O_20
REMARK    3  A    between atoms: O_20  and  C_21
REMARK    4  A    between atoms: C_21  and  C_23
REMARK    5  A    between atoms: C_22  and  C_28
REMARK    6  A    between atoms: C_28  and  N_30
REMARK                            x       y       z     vdW  Elec       q    Type
REMARK                         _______ _______ _______ _____ _____    ______ ____
ROOT
ATOM      1  O   UNL     1      32.670  -7.427 -19.870  0.00  0.00    -0.270 OA
ATOM      2  N   UNL     1      32.870  -8.220 -22.087  0.00  0.00    -0.265 N 
ATOM      3  C   UNL     1      32.742  -9.503 -22.767  0.00  0.00    +0.124 C 
ATOM      4  C   UNL     1      32.401 -10.416 -21.639  0.00  0.00    +0.036 C 
ATOM      5  C   UNL     1      32.643  -8.300 -20.718  0.00  0.00    +0.249 C 
ATOM      6  C   UNL     1      32.344  -9.709 -20.438  0.00  0.00    +0.054 C 
ATOM      7  C   UNL     1      32.157 -11.777 -21.660  0.00  0.00    +0.137 C 
ATOM      8  C   UNL     1      32.047 -10.311 -19.230  0.00  0.00    +0.004 C 
ATOM      9  C   UNL     1      31.854 -12.411 -20.451  0.00  0.00    +0.037 C 
ATOM     10  C   UNL     1      31.800 -11.684 -19.247  0.00  0.00    +0.003 C 
ENDROOT
BRANCH   2  14
ATOM     11  O   UNL     1      30.821  -6.555 -22.754  0.00  0.00    -0.273 OA
ATOM     12  O   UNL     1      33.258  -4.535 -26.097  0.00  0.00    -0.275 OA
ATOM     13  N   UNL     1      32.066  -5.588 -24.429  0.00  0.00    -0.254 N 
ATOM     14  C   UNL     1      33.198  -6.993 -22.765  0.00  0.00    +0.153 C 
ATOM     15  C   UNL     1      34.205  -7.233 -23.880  0.00  0.00    +0.039 C 
ATOM     16  C   UNL     1      34.495  -5.921 -24.586  0.00  0.00    +0.088 C 
ATOM     17  C   UNL     1      31.910  -6.399 -23.305  0.00  0.00    +0.246 C 
ATOM     18  C   UNL     1      33.233  -5.295 -25.129  0.00  0.00    +0.228 C 
ATOM     19  H   UNL     1      31.244  -5.168 -24.770  0.00  0.00    +0.158 HD
ENDBRANCH   2  14
BRANCH   7  20
ATOM     20  O   UNL     1      32.209 -12.486 -22.816  0.00  0.00    -0.471 OA
BRANCH  20  21
ATOM     21  C   UNL     1      33.433 -12.449 -23.550  0.00  0.00    +0.232 C 
BRANCH  21  23
ATOM     22  C   UNL     1      35.097 -16.401 -23.714  0.00  0.00    -0.043 C 
ATOM     23  C   UNL     1      34.013 -13.832 -23.607  0.00  0.00    +0.021 C 
ATOM     24  C   UNL     1      35.055 -15.710 -22.502  0.00  0.00    -0.007 C 
ATOM     25  C   UNL     1      34.596 -15.806 -24.872  0.00  0.00    -0.007 C 
ATOM     26  C   UNL     1      34.514 -14.426 -22.449  0.00  0.00    -0.001 C 
ATOM     27  C   UNL     1      34.054 -14.522 -24.818  0.00  0.00    -0.001 C 
BRANCH  22  28
ATOM     28  C   UNL     1      35.676 -17.773 -23.770  0.00  0.00    -0.050 C 
BRANCH  28  30
ATOM     29  O   UNL     1      36.393 -20.564 -20.718  0.00  0.00    -0.358 OA
ATOM     30  N   UNL     1      35.763 -18.394 -22.450  0.00  0.00    +0.393 N 
ATOM     31  C   UNL     1      34.917 -19.594 -22.382  0.00  0.00    -0.044 C 
ATOM     32  C   UNL     1      37.154 -18.740 -22.126  0.00  0.00    -0.044 C 
ATOM     33  C   UNL     1      37.218 -19.398 -20.751  0.00  0.00    +0.119 C 
ATOM     34  C   UNL     1      35.034 -20.231 -21.000  0.00  0.00    +0.119 C 
ATOM     35  H   UNL     1      35.427 -17.719 -21.763  0.00  0.00    -0.079 HD
ENDBRANCH  28  30
ENDBRANCH  22  28
ENDBRANCH  21  23
ENDBRANCH  20  21
ENDBRANCH   7  20
TORSDOF 6
ENDMDL
MODEL 3
REMARK VINA RESULT:     -13.0      3.429     11.681
REMARK  Name = 67335295
REMARK  6 active torsions:
REMARK  status: ('A' for Active; 'I' for Inactive)
REMARK    1  A    between atoms: N_2  and  C_14
REMARK    2  A    between atoms: C_7  and  O_20
REMARK    3  A    between atoms: O_20  and  C_21
REMARK    4  A    between atoms: C_21  and  C_23
REMARK    5  A    between atoms: C_22  and  C_28
REMARK    6  A    between atoms: C_28  and  N_30
REMARK                            x       y       z     vdW  Elec       q    Type
REMARK                         _______ _______ _______ _____ _____    ______ ____
ROOT
ATOM      1  O   UNL     1      33.791 -14.205 -25.684  0.00  0.00    -0.270 OA
ATOM      2  N   UNL     1      34.433 -14.201 -23.410  0.00  0.00    -0.265 N 
ATOM      3  C   UNL     1      34.932 -15.178 -22.450  0.00  0.00    +0.124 C 
ATOM      4  C   UNL     1      34.985 -16.420 -23.274  0.00  0.00    +0.036 C 
ATOM      5  C   UNL     1      34.201 -14.740 -24.670  0.00  0.00    +0.249 C 
ATOM      6  C   UNL     1      34.556 -16.161 -24.576  0.00  0.00    +0.054 C 
ATOM      7  C   UNL     1      35.383 -17.693 -22.910  0.00  0.00    +0.137 C 
ATOM      8  C   UNL     1      34.505 -17.135 -25.553  0.00  0.00    +0.004 C 
ATOM      9  C   UNL     1      35.341 -18.699 -23.881  0.00  0.00    +0.037 C 
ATOM     10  C   UNL     1      34.906 -18.422 -25.191  0.00  0.00    +0.003 C 
ENDROOT
BRANCH   2  14
ATOM     11  O   UNL     1      32.411 -13.623 -21.681  0.00  0.00    -0.273 OA
ATOM     12  O   UNL     1      32.001  -9.315 -23.255  0.00  0.00    -0.275 OA
ATOM     13  N   UNL     1      32.225 -11.485 -22.512  0.00  0.00    -0.254 N 
ATOM     14  C   UNL     1      34.205 -12.817 -23.086  0.00  0.00    +0.153 C 
ATOM     15  C   UNL     1      34.237 -11.948 -24.334  0.00  0.00    +0.039 C 
ATOM     16  C   UNL     1      33.959 -10.506 -23.950  0.00  0.00    +0.088 C 
ATOM     17  C   UNL     1      32.865 -12.718 -22.380  0.00  0.00    +0.246 C 
ATOM     18  C   UNL     1      32.636 -10.369 -23.235  0.00  0.00    +0.228 C 
ATOM     19  H   UNL     1      31.371 -11.394 -22.031  0.00  0.00    +0.158 HD
ENDBRANCH   2  14
BRANCH   7  20
ATOM     20  O   UNL     1      35.802 -17.969 -21.649  0.00  0.00    -0.471 OA
BRANCH  20  21
ATOM     21  C   UNL     1      36.610 -19.133 -21.470  0.00  0.00    +0.232 C 
BRANCH  21  23
ATOM     22  C   UNL     1      34.328 -22.120 -19.400  0.00  0.00    -0.043 C 
ATOM     23  C   UNL     1      35.812 -20.176 -20.744  0.00  0.00    +0.021 C 
ATOM     24  C   UNL     1      35.718 -22.090 -19.273  0.00  0.00    -0.007 C 
ATOM     25  C   UNL     1      33.681 -21.177 -20.199  0.00  0.00    -0.007 C 
ATOM     26  C   UNL     1      36.459 -21.119 -19.946  0.00  0.00    -0.001 C 
ATOM     27  C   UNL     1      34.423 -20.205 -20.871  0.00  0.00    -0.001 C 
BRANCH  22  28
ATOM     28  C   UNL     1      33.536 -23.159 -18.681  0.00  0.00    -0.050 C 
BRANCH  28  30
ATOM     29  O   UNL     1      32.906 -23.705 -14.567  0.00  0.00    -0.358 OA
ATOM     30  N   UNL     1      33.470 -22.910 -17.242  0.00  0.00    +0.393 N 
ATOM     31  C   UNL     1      32.090 -23.042 -16.754  0.00  0.00    -0.044 C 
ATOM     32  C   UNL     1      34.352 -23.832 -16.512  0.00  0.00    -0.044 C 
ATOM     33  C   UNL     1      34.256 -23.562 -15.013  0.00  0.00    +0.119 C 
ATOM     34  C   UNL     1      32.047 -22.791 -15.250  0.00  0.00    +0.119 C 
ATOM     35  H   UNL     1      33.785 -21.955 -17.074  0.00  0.00    -0.079 HD
ENDBRANCH  28  30
ENDBRANCH  22  28
ENDBRANCH  21  23
ENDBRANCH  20  21
ENDBRANCH   7  20
TORSDOF 6
ENDMDL
MODEL 4
REMARK VINA RESULT:     -12.9      6.870     13.663
REMARK  Name = 67335295
REMARK  6 active torsions:
REMARK  status: ('A' for Active; 'I' for Inactive)
REMARK    1  A    between atoms: N_2  and  C_14
REMARK    2  A    between atoms: C_7  and  O_20
REMARK    3  A    between atoms: O_20  and  C_21
REMARK    4  A    between atoms: C_21  and  C_23
REMARK    5  A    between atoms: C_22  and  C_28
REMARK    6  A    between atoms: C_28  and  N_30
REMARK                            x       y       z     vdW  Elec       q    Type
REMARK                         _______ _______ _______ _____ _____    ______ ____
ROOT
ATOM      1  O   UNL     1      31.986  -8.371 -19.867  0.00  0.00    -0.270 OA
ATOM      2  N   UNL     1      32.616  -9.021 -22.050  0.00  0.00    -0.265 N 
ATOM      3  C   UNL     1      32.814 -10.277 -22.763  0.00  0.00    +0.124 C 
ATOM      4  C   UNL     1      32.502 -11.283 -21.708  0.00  0.00    +0.036 C 
ATOM      5  C   UNL     1      32.231  -9.198 -20.726  0.00  0.00    +0.249 C 
ATOM      6  C   UNL     1      32.160 -10.649 -20.513  0.00  0.00    +0.054 C 
ATOM      7  C   UNL     1      32.516 -12.664 -21.786  0.00  0.00    +0.137 C 
ATOM      8  C   UNL     1      31.824 -11.344 -19.369  0.00  0.00    +0.004 C 
ATOM      9  C   UNL     1      32.179 -13.392 -20.641  0.00  0.00    +0.037 C 
ATOM     10  C   UNL     1      31.836 -12.738 -19.443  0.00  0.00    +0.003 C 
ENDROOT
BRANCH   2  14
ATOM     11  O   UNL     1      30.507  -7.942 -23.392  0.00  0.00    -0.273 OA
ATOM     12  O   UNL     1      33.228  -5.226 -25.926  0.00  0.00    -0.275 OA
ATOM     13  N   UNL     1      31.905  -6.618 -24.652  0.00  0.00    -0.254 N 
ATOM     14  C   UNL     1      32.799  -7.728 -22.655  0.00  0.00    +0.153 C 
ATOM     15  C   UNL     1      34.126  -7.651 -23.395  0.00  0.00    +0.039 C 
ATOM     16  C   UNL     1      34.260  -6.285 -24.043  0.00  0.00    +0.088 C 
ATOM     17  C   UNL     1      31.631  -7.482 -23.592  0.00  0.00    +0.246 C 
ATOM     18  C   UNL     1      33.108  -6.000 -24.977  0.00  0.00    +0.228 C 
ATOM     19  H   UNL     1      31.147  -6.421 -25.249  0.00  0.00    +0.158 HD
ENDBRANCH   2  14
BRANCH   7  20
ATOM     20  O   UNL     1      32.847 -13.303 -22.937  0.00  0.00    -0.471 OA
BRANCH  20  21
ATOM     21  C   UNL     1      34.235 -13.373 -23.268  0.00  0.00    +0.232 C 
BRANCH  21  23
ATOM     22  C   UNL     1      35.587 -17.414 -22.756  0.00  0.00    -0.043 C 
ATOM     23  C   UNL     1      34.710 -14.785 -23.089  0.00  0.00    +0.021 C 
ATOM     24  C   UNL     1      35.381 -16.903 -24.039  0.00  0.00    -0.007 C 
ATOM     25  C   UNL     1      35.354 -16.610 -21.641  0.00  0.00    -0.007 C 
ATOM     26  C   UNL     1      34.943 -15.589 -24.205  0.00  0.00    -0.001 C 
ATOM     27  C   UNL     1      34.916 -15.295 -21.807  0.00  0.00    -0.001 C 
BRANCH  22  28
ATOM     28  C   UNL     1      36.055 -18.818 -22.580  0.00  0.00    -0.050 C 
BRANCH  28  30
ATOM     29  O   UNL     1      34.560 -21.696 -19.915  0.00  0.00    -0.358 OA
ATOM     30  N   UNL     1      35.498 -19.444 -21.382  0.00  0.00    +0.393 N 
ATOM     31  C   UNL     1      34.199 -20.065 -21.675  0.00  0.00    -0.044 C 
ATOM     32  C   UNL     1      36.425 -20.446 -20.839  0.00  0.00    -0.044 C 
ATOM     33  C   UNL     1      35.817 -21.095 -19.598  0.00  0.00    +0.119 C 
ATOM     34  C   UNL     1      33.644 -20.721 -20.414  0.00  0.00    +0.119 C 
ATOM     35  H   UNL     1      35.360 -18.714 -20.683  0.00  0.00    -0.079 HD
ENDBRANCH  28  30
ENDBRANCH  22  28
ENDBRANCH  21  23
ENDBRANCH  20  21
ENDBRANCH   7  20
TORSDOF 6
ENDMDL
MODEL 5
REMARK VINA RESULT:     -12.6      5.503      9.738
REMARK  Name = 67335295
REMARK  6 active torsions:
REMARK  status: ('A' for Active; 'I' for Inactive)
REMARK    1  A    between atoms: N_2  and  C_14
REMARK    2  A    between atoms: C_7  and  O_20
REMARK    3  A    between atoms: O_20  and  C_21
REMARK    4  A    between atoms: C_21  and  C_23
REMARK    5  A    between atoms: C_22  and  C_28
REMARK    6  A    between atoms: C_28  and  N_30
REMARK                            x       y       z     vdW  Elec       q    Type
REMARK                         _______ _______ _______ _____ _____    ______ ____
ROOT
ATOM      1  O   UNL     1      35.312 -20.179 -24.317  0.00  0.00    -0.270 OA
ATOM      2  N   UNL     1      35.379 -19.298 -22.125  0.00  0.00    -0.265 N 
ATOM      3  C   UNL     1      35.324 -17.975 -21.515  0.00  0.00    +0.124 C 
ATOM      4  C   UNL     1      35.196 -17.091 -22.709  0.00  0.00    +0.036 C 
ATOM      5  C   UNL     1      35.297 -19.266 -23.512  0.00  0.00    +0.249 C 
ATOM      6  C   UNL     1      35.181 -17.850 -23.880  0.00  0.00    +0.054 C 
ATOM      7  C   UNL     1      35.099 -15.713 -22.769  0.00  0.00    +0.137 C 
ATOM      8  C   UNL     1      35.071 -17.283 -25.134  0.00  0.00    +0.004 C 
ATOM      9  C   UNL     1      34.988 -15.114 -24.027  0.00  0.00    +0.037 C 
ATOM     10  C   UNL     1      34.973 -15.893 -25.200  0.00  0.00    +0.003 C 
ENDROOT
BRANCH   2  14
ATOM     11  O   UNL     1      33.091 -20.474 -21.233  0.00  0.00    -0.273 OA
ATOM     12  O   UNL     1      35.291 -22.701 -17.857  0.00  0.00    -0.275 OA
ATOM     13  N   UNL     1      34.226 -21.551 -19.546  0.00  0.00    -0.254 N 
ATOM     14  C   UNL     1      35.504 -20.516 -21.368  0.00  0.00    +0.153 C 
ATOM     15  C   UNL     1      36.604 -20.403 -20.324  0.00  0.00    +0.039 C 
ATOM     16  C   UNL     1      36.677 -21.694 -19.529  0.00  0.00    +0.088 C 
ATOM     17  C   UNL     1      34.160 -20.804 -20.722  0.00  0.00    +0.246 C 
ATOM     18  C   UNL     1      35.354 -22.020 -18.879  0.00  0.00    +0.228 C 
ATOM     19  H   UNL     1      33.360 -21.775 -19.134  0.00  0.00    +0.158 HD
ENDBRANCH   2  14
BRANCH   7  20
ATOM     20  O   UNL     1      35.114 -14.954 -21.643  0.00  0.00    -0.471 OA
BRANCH  20  21
ATOM     21  C   UNL     1      33.908 -14.895 -20.881  0.00  0.00    +0.232 C 
BRANCH  21  23
ATOM     22  C   UNL     1      31.882 -11.214 -21.755  0.00  0.00    -0.043 C 
ATOM     23  C   UNL     1      33.198 -13.609 -21.187  0.00  0.00    +0.021 C 
ATOM     24  C   UNL     1      32.710 -11.801 -22.714  0.00  0.00    -0.007 C 
ATOM     25  C   UNL     1      31.714 -11.825 -20.513  0.00  0.00    -0.007 C 
ATOM     26  C   UNL     1      33.367 -12.998 -22.430  0.00  0.00    -0.001 C 
ATOM     27  C   UNL     1      32.371 -13.023 -20.229  0.00  0.00    -0.001 C 
BRANCH  22  28
ATOM     28  C   UNL     1      31.181  -9.934 -22.059  0.00  0.00    -0.050 C 
BRANCH  28  30
ATOM     29  O   UNL     1      32.697  -6.063 -21.484  0.00  0.00    -0.358 OA
ATOM     30  N   UNL     1      32.085  -8.786 -22.043  0.00  0.00    +0.393 N 
ATOM     31  C   UNL     1      31.557  -7.694 -22.872  0.00  0.00    -0.044 C 
ATOM     32  C   UNL     1      32.304  -8.315 -20.668  0.00  0.00    -0.044 C 
ATOM     33  C   UNL     1      33.240  -7.109 -20.677  0.00  0.00    +0.119 C 
ATOM     34  C   UNL     1      32.511  -6.504 -22.829  0.00  0.00    +0.119 C 
ATOM     35  H   UNL     1      32.979  -9.087 -22.431  0.00  0.00    -0.079 HD
ENDBRANCH  28  30
ENDBRANCH  22  28
ENDBRANCH  21  23
ENDBRANCH  20  21
ENDBRANCH   7  20
TORSDOF 6
ENDMDL
MODEL 6
REMARK VINA RESULT:     -12.4      1.391      2.002
REMARK  Name = 67335295
REMARK  6 active torsions:
REMARK  status: ('A' for Active; 'I' for Inactive)
REMARK    1  A    between atoms: N_2  and  C_14
REMARK    2  A    between atoms: C_7  and  O_20
REMARK    3  A    between atoms: O_20  and  C_21
REMARK    4  A    between atoms: C_21  and  C_23
REMARK    5  A    between atoms: C_22  and  C_28
REMARK    6  A    between atoms: C_28  and  N_30
REMARK                            x       y       z     vdW  Elec       q    Type
REMARK                         _______ _______ _______ _____ _____    ______ ____
ROOT
ATOM      1  O   UNL     1      33.643 -24.567 -13.233  0.00  0.00    -0.270 OA
ATOM      2  N   UNL     1      35.321 -24.524 -14.896  0.00  0.00    -0.265 N 
ATOM      3  C   UNL     1      35.427 -24.082 -16.281  0.00  0.00    +0.124 C 
ATOM      4  C   UNL     1      34.054 -23.562 -16.544  0.00  0.00    +0.036 C 
ATOM      5  C   UNL     1      34.061 -24.316 -14.349  0.00  0.00    +0.249 C 
ATOM      6  C   UNL     1      33.254 -23.701 -15.409  0.00  0.00    +0.054 C 
ATOM      7  C   UNL     1      33.538 -23.005 -17.698  0.00  0.00    +0.137 C 
ATOM      8  C   UNL     1      31.933 -23.299 -15.374  0.00  0.00    +0.004 C 
ATOM      9  C   UNL     1      32.203 -22.589 -17.689  0.00  0.00    +0.037 C 
ATOM     10  C   UNL     1      31.407 -22.735 -16.537  0.00  0.00    +0.003 C 
ENDROOT
BRANCH   2  14
ATOM     11  O   UNL     1      37.336 -22.884 -14.081  0.00  0.00    -0.273 OA
ATOM     12  O   UNL     1      40.347 -26.355 -13.801  0.00  0.00    -0.275 OA
ATOM     13  N   UNL     1      38.814 -24.644 -13.976  0.00  0.00    -0.254 N 
ATOM     14  C   UNL     1      36.413 -25.116 -14.167  0.00  0.00    +0.153 C 
ATOM     15  C   UNL     1      36.877 -26.407 -14.824  0.00  0.00    +0.039 C 
ATOM     16  C   UNL     1      38.047 -26.976 -14.043  0.00  0.00    +0.088 C 
ATOM     17  C   UNL     1      37.537 -24.097 -14.101  0.00  0.00    +0.246 C 
ATOM     18  C   UNL     1      39.183 -25.985 -13.948  0.00  0.00    +0.228 C 
ATOM     19  H   UNL     1      39.550 -23.995 -13.897  0.00  0.00    +0.158 HD
ENDBRANCH   2  14
BRANCH   7  20
ATOM     20  O   UNL     1      34.297 -22.862 -18.815  0.00  0.00    -0.471 OA
BRANCH  20  21
ATOM     21  C   UNL     1      35.472 -22.058 -18.706  0.00  0.00    +0.232 C 
BRANCH  21  23
ATOM     22  C   UNL     1      35.655 -19.381 -22.055  0.00  0.00    -0.043 C 
ATOM     23  C   UNL     1      35.537 -21.123 -19.878  0.00  0.00    +0.021 C 
ATOM     24  C   UNL     1      36.805 -19.648 -21.311  0.00  0.00    -0.007 C 
ATOM     25  C   UNL     1      34.446 -19.984 -21.710  0.00  0.00    -0.007 C 
ATOM     26  C   UNL     1      36.746 -20.519 -20.223  0.00  0.00    -0.001 C 
ATOM     27  C   UNL     1      34.387 -20.856 -20.622  0.00  0.00    -0.001 C 
BRANCH  22  28
ATOM     28  C   UNL     1      35.719 -18.449 -23.217  0.00  0.00    -0.050 C 
BRANCH  28  30
ATOM     29  O   UNL     1      34.245 -14.666 -22.150  0.00  0.00    -0.358 OA
ATOM     30  N   UNL     1      35.661 -17.046 -22.809  0.00  0.00    +0.393 N 
ATOM     31  C   UNL     1      35.007 -16.230 -23.841  0.00  0.00    -0.044 C 
ATOM     32  C   UNL     1      34.951 -16.904 -21.530  0.00  0.00    -0.044 C 
ATOM     33  C   UNL     1      34.892 -15.432 -21.132  0.00  0.00    +0.119 C 
ATOM     34  C   UNL     1      34.948 -14.774 -23.388  0.00  0.00    +0.119 C 
ATOM     35  H   UNL     1      36.618 -16.716 -22.689  0.00  0.00    -0.079 HD
ENDBRANCH  28  30
ENDBRANCH  22  28
ENDBRANCH  21  23
ENDBRANCH  20  21
ENDBRANCH   7  20
TORSDOF 6
ENDMDL
MODEL 7
REMARK VINA RESULT:     -11.9      2.045      3.063
REMARK  Name = 67335295
REMARK  6 active torsions:
REMARK  status: ('A' for Active; 'I' for Inactive)
REMARK    1  A    between atoms: N_2  and  C_14
REMARK    2  A    between atoms: C_7  and  O_20
REMARK    3  A    between atoms: O_20  and  C_21
REMARK    4  A    between atoms: C_21  and  C_23
REMARK    5  A    between atoms: C_22  and  C_28
REMARK    6  A    between atoms: C_28  and  N_30
REMARK                            x       y       z     vdW  Elec       q    Type
REMARK                         _______ _______ _______ _____ _____    ______ ____
ROOT
ATOM      1  O   UNL     1      34.155 -24.030 -14.540  0.00  0.00    -0.270 OA
ATOM      2  N   UNL     1      36.146 -23.631 -15.749  0.00  0.00    -0.265 N 
ATOM      3  C   UNL     1      36.498 -23.112 -17.065  0.00  0.00    +0.124 C 
ATOM      4  C   UNL     1      35.159 -22.814 -17.647  0.00  0.00    +0.036 C 
ATOM      5  C   UNL     1      34.775 -23.661 -15.521  0.00  0.00    +0.249 C 
ATOM      6  C   UNL     1      34.149 -23.137 -16.740  0.00  0.00    +0.054 C 
ATOM      7  C   UNL     1      34.841 -22.295 -18.889  0.00  0.00    +0.137 C 
ATOM      8  C   UNL     1      32.808 -22.961 -17.021  0.00  0.00    +0.004 C 
ATOM      9  C   UNL     1      33.491 -22.107 -19.199  0.00  0.00    +0.037 C 
ATOM     10  C   UNL     1      32.483 -22.437 -18.273  0.00  0.00    +0.003 C 
ENDROOT
BRANCH   2  14
ATOM     11  O   UNL     1      36.856 -26.260 -15.768  0.00  0.00    -0.273 OA
ATOM     12  O   UNL     1      38.251 -26.142 -11.382  0.00  0.00    -0.275 OA
ATOM     13  N   UNL     1      37.521 -26.162 -13.568  0.00  0.00    -0.254 N 
ATOM     14  C   UNL     1      37.119 -24.068 -14.783  0.00  0.00    +0.153 C 
ATOM     15  C   UNL     1      36.815 -23.506 -13.403  0.00  0.00    +0.039 C 
ATOM     16  C   UNL     1      37.845 -24.019 -12.413  0.00  0.00    +0.088 C 
ATOM     17  C   UNL     1      37.117 -25.586 -14.772  0.00  0.00    +0.246 C 
ATOM     18  C   UNL     1      37.879 -25.528 -12.382  0.00  0.00    +0.228 C 
ATOM     19  H   UNL     1      37.558 -27.146 -13.556  0.00  0.00    +0.158 HD
ENDBRANCH   2  14
BRANCH   7  20
ATOM     20  O   UNL     1      35.806 -21.976 -19.788  0.00  0.00    -0.471 OA
BRANCH  20  21
ATOM     21  C   UNL     1      36.387 -20.675 -19.688  0.00  0.00    +0.232 C 
BRANCH  21  23
ATOM     22  C   UNL     1      35.691 -18.550 -23.351  0.00  0.00    -0.043 C 
ATOM     23  C   UNL     1      36.143 -19.930 -20.968  0.00  0.00    +0.021 C 
ATOM     24  C   UNL     1      34.670 -19.312 -22.781  0.00  0.00    -0.007 C 
ATOM     25  C   UNL     1      36.937 -18.479 -22.730  0.00  0.00    -0.007 C 
ATOM     26  C   UNL     1      34.896 -20.001 -21.589  0.00  0.00    -0.001 C 
ATOM     27  C   UNL     1      37.163 -19.168 -21.538  0.00  0.00    -0.001 C 
BRANCH  22  28
ATOM     28  C   UNL     1      35.448 -17.813 -24.624  0.00  0.00    -0.050 C 
BRANCH  28  30
ATOM     29  O   UNL     1      34.192 -13.808 -24.609  0.00  0.00    -0.358 OA
ATOM     30  N   UNL     1      34.636 -16.614 -24.427  0.00  0.00    +0.393 N 
ATOM     31  C   UNL     1      35.312 -15.669 -23.528  0.00  0.00    -0.044 C 
ATOM     32  C   UNL     1      34.343 -15.965 -25.713  0.00  0.00    -0.044 C 
ATOM     33  C   UNL     1      33.506 -14.710 -25.481  0.00  0.00    +0.119 C 
ATOM     34  C   UNL     1      34.451 -14.422 -23.347  0.00  0.00    +0.119 C 
ATOM     35  H   UNL     1      33.756 -16.900 -23.998  0.00  0.00    -0.079 HD
ENDBRANCH  28  30
ENDBRANCH  22  28
ENDBRANCH  21  23
ENDBRANCH  20  21
ENDBRANCH   7  20
TORSDOF 6
ENDMDL
MODEL 8
REMARK VINA RESULT:     -11.7      3.021     11.343
REMARK  Name = 67335295
REMARK  6 active torsions:
REMARK  status: ('A' for Active; 'I' for Inactive)
REMARK    1  A    between atoms: N_2  and  C_14
REMARK    2  A    between atoms: C_7  and  O_20
REMARK    3  A    between atoms: O_20  and  C_21
REMARK    4  A    between atoms: C_21  and  C_23
REMARK    5  A    between atoms: C_22  and  C_28
REMARK    6  A    between atoms: C_28  and  N_30
REMARK                            x       y       z     vdW  Elec       q    Type
REMARK                         _______ _______ _______ _____ _____    ______ ____
ROOT
ATOM      1  O   UNL     1      33.954 -15.407 -25.521  0.00  0.00    -0.270 OA
ATOM      2  N   UNL     1      34.729 -15.205 -23.297  0.00  0.00    -0.265 N 
ATOM      3  C   UNL     1      35.242 -16.104 -22.270  0.00  0.00    +0.124 C 
ATOM      4  C   UNL     1      35.195 -17.423 -22.964  0.00  0.00    +0.036 C 
ATOM      5  C   UNL     1      34.401 -15.856 -24.481  0.00  0.00    +0.249 C 
ATOM      6  C   UNL     1      34.701 -17.275 -24.261  0.00  0.00    +0.054 C 
ATOM      7  C   UNL     1      35.560 -18.670 -22.494  0.00  0.00    +0.137 C 
ATOM      8  C   UNL     1      34.552 -18.340 -25.128  0.00  0.00    +0.004 C 
ATOM      9  C   UNL     1      35.419 -19.765 -23.352  0.00  0.00    +0.037 C 
ATOM     10  C   UNL     1      34.919 -19.601 -24.658  0.00  0.00    +0.003 C 
ENDROOT
BRANCH   2  14
ATOM     11  O   UNL     1      33.046 -14.366 -21.328  0.00  0.00    -0.273 OA
ATOM     12  O   UNL     1      32.422 -10.257 -23.308  0.00  0.00    -0.275 OA
ATOM     13  N   UNL     1      32.745 -12.333 -22.363  0.00  0.00    -0.254 N 
ATOM     14  C   UNL     1      34.578 -13.787 -23.106  0.00  0.00    +0.153 C 
ATOM     15  C   UNL     1      34.403 -13.068 -24.434  0.00  0.00    +0.039 C 
ATOM     16  C   UNL     1      34.214 -11.583 -24.182  0.00  0.00    +0.088 C 
ATOM     17  C   UNL     1      33.382 -13.563 -22.197  0.00  0.00    +0.246 C 
ATOM     18  C   UNL     1      33.038 -11.321 -23.272  0.00  0.00    +0.228 C 
ATOM     19  H   UNL     1      31.989 -12.160 -21.756  0.00  0.00    +0.158 HD
ENDBRANCH   2  14
BRANCH   7  20
ATOM     20  O   UNL     1      36.041 -18.838 -21.236  0.00  0.00    -0.471 OA
BRANCH  20  21
ATOM     21  C   UNL     1      36.917 -19.944 -21.014  0.00  0.00    +0.232 C 
BRANCH  21  23
ATOM     22  C   UNL     1      35.271 -22.433 -17.930  0.00  0.00    -0.043 C 
ATOM     23  C   UNL     1      36.342 -20.816 -19.937  0.00  0.00    +0.021 C 
ATOM     24  C   UNL     1      34.510 -22.123 -19.058  0.00  0.00    -0.007 C 
ATOM     25  C   UNL     1      36.567 -21.934 -17.806  0.00  0.00    -0.007 C 
ATOM     26  C   UNL     1      35.045 -21.315 -20.061  0.00  0.00    -0.001 C 
ATOM     27  C   UNL     1      37.103 -21.126 -18.810  0.00  0.00    -0.001 C 
BRANCH  22  28
ATOM     28  C   UNL     1      34.698 -23.296 -16.858  0.00  0.00    -0.050 C 
BRANCH  28  30
ATOM     29  O   UNL     1      36.539 -25.055 -13.522  0.00  0.00    -0.358 OA
ATOM     30  N   UNL     1      35.719 -23.789 -15.936  0.00  0.00    +0.393 N 
ATOM     31  C   UNL     1      35.622 -23.106 -14.638  0.00  0.00    -0.044 C 
ATOM     32  C   UNL     1      35.596 -25.242 -15.750  0.00  0.00    -0.044 C 
ATOM     33  C   UNL     1      36.662 -25.732 -14.774  0.00  0.00    +0.119 C 
ATOM     34  C   UNL     1      36.689 -23.646 -13.689  0.00  0.00    +0.119 C 
ATOM     35  H   UNL     1      36.632 -23.588 -16.343  0.00  0.00    -0.079 HD
ENDBRANCH  28  30
ENDBRANCH  22  28
ENDBRANCH  21  23
ENDBRANCH  20  21
ENDBRANCH   7  20
TORSDOF 6
ENDMDL
MODEL 9
REMARK VINA RESULT:     -11.0      6.762     11.993
REMARK  Name = 67335295
REMARK  6 active torsions:
REMARK  status: ('A' for Active; 'I' for Inactive)
REMARK    1  A    between atoms: N_2  and  C_14
REMARK    2  A    between atoms: C_7  and  O_20
REMARK    3  A    between atoms: O_20  and  C_21
REMARK    4  A    between atoms: C_21  and  C_23
REMARK    5  A    between atoms: C_22  and  C_28
REMARK    6  A    between atoms: C_28  and  N_30
REMARK                            x       y       z     vdW  Elec       q    Type
REMARK                         _______ _______ _______ _____ _____    ______ ____
ROOT
ATOM      1  O   UNL     1      35.068 -17.961 -26.066  0.00  0.00    -0.270 OA
ATOM      2  N   UNL     1      35.267 -17.116 -23.868  0.00  0.00    -0.265 N 
ATOM      3  C   UNL     1      34.945 -15.872 -23.180  0.00  0.00    +0.124 C 
ATOM      4  C   UNL     1      34.360 -15.054 -24.281  0.00  0.00    +0.036 C 
ATOM      5  C   UNL     1      34.935 -17.098 -25.218  0.00  0.00    +0.249 C 
ATOM      6  C   UNL     1      34.355 -15.775 -25.476  0.00  0.00    +0.054 C 
ATOM      7  C   UNL     1      33.864 -13.764 -24.242  0.00  0.00    +0.137 C 
ATOM      8  C   UNL     1      33.867 -15.255 -26.659  0.00  0.00    +0.004 C 
ATOM      9  C   UNL     1      33.364 -13.214 -25.426  0.00  0.00    +0.037 C 
ATOM     10  C   UNL     1      33.365 -13.954 -26.624  0.00  0.00    +0.003 C 
ENDROOT
BRANCH   2  14
ATOM     11  O   UNL     1      33.779 -19.385 -23.649  0.00  0.00    -0.273 OA
ATOM     12  O   UNL     1      36.234 -20.913 -20.066  0.00  0.00    -0.275 OA
ATOM     13  N   UNL     1      35.017 -20.101 -21.847  0.00  0.00    -0.254 N 
ATOM     14  C   UNL     1      35.868 -18.250 -23.216  0.00  0.00    +0.153 C 
ATOM     15  C   UNL     1      36.579 -17.835 -21.937  0.00  0.00    +0.039 C 
ATOM     16  C   UNL     1      37.167 -19.064 -21.268  0.00  0.00    +0.088 C 
ATOM     17  C   UNL     1      34.772 -19.261 -22.933  0.00  0.00    +0.246 C 
ATOM     18  C   UNL     1      36.106 -20.098 -20.979  0.00  0.00    +0.228 C 
ATOM     19  H   UNL     1      34.331 -20.785 -21.672  0.00  0.00    +0.158 HD
ENDBRANCH   2  14
BRANCH   7  20
ATOM     20  O   UNL     1      33.861 -13.043 -23.092  0.00  0.00    -0.471 OA
BRANCH  20  21
ATOM     21  C   UNL     1      32.589 -12.654 -22.569  0.00  0.00    +0.232 C 
BRANCH  21  23
ATOM     22  C   UNL     1      32.590  -8.414 -21.907  0.00  0.00    -0.043 C 
ATOM     23  C   UNL     1      32.588 -11.171 -22.339  0.00  0.00    +0.021 C 
ATOM     24  C   UNL     1      33.182  -8.942 -23.056  0.00  0.00    -0.007 C 
ATOM     25  C   UNL     1      31.998  -9.266 -20.975  0.00  0.00    -0.007 C 
ATOM     26  C   UNL     1      33.181 -10.320 -23.271  0.00  0.00    -0.001 C 
ATOM     27  C   UNL     1      31.996 -10.644 -21.191  0.00  0.00    -0.001 C 
BRANCH  22  28
ATOM     28  C   UNL     1      32.593  -6.941 -21.677  0.00  0.00    -0.050 C 
BRANCH  28  30
ATOM     29  O   UNL     1      32.227  -3.855 -24.499  0.00  0.00    -0.358 OA
ATOM     30  N   UNL     1      32.210  -6.191 -22.872  0.00  0.00    +0.393 N 
ATOM     31  C   UNL     1      31.432  -4.998 -22.511  0.00  0.00    -0.044 C 
ATOM     32  C   UNL     1      33.397  -5.804 -23.647  0.00  0.00    -0.044 C 
ATOM     33  C   UNL     1      32.973  -5.012 -24.881  0.00  0.00    +0.119 C 
ATOM     34  C   UNL     1      31.055  -4.226 -23.772  0.00  0.00    +0.119 C 
ATOM     35  H   UNL     1      31.627  -6.798 -23.448  0.00  0.00    -0.079 HD
ENDBRANCH  28  30
ENDBRANCH  22  28
ENDBRANCH  21  23
ENDBRANCH  20  21
ENDBRANCH   7  20
TORSDOF 6
ENDMDL
