MODEL 1
REMARK VINA RESULT:     -11.6      0.000      0.000
REMARK  Name = 447546
REMARK  10 active torsions:
REMARK  status: ('A' for Active; 'I' for Inactive)
REMARK    1  A    between atoms: N_1  and  C_23
REMARK    2  A    between atoms: C_8  and  N_11
REMARK    3  A    between atoms: N_12  and  C_16
REMARK    4  A    between atoms: C_16  and  C_17
REMARK    5  A    between atoms: C_23  and  C_24
REMARK    6  A    between atoms: C_24  and  C_25
REMARK    7  A    between atoms: C_25  and  N_26
REMARK    8  A    between atoms: C_25  and  C_36
REMARK    9  A    between atoms: C_30  and  C_33
REMARK   10  A    between atoms: C_36  and  O_37
REMARK                            x       y       z     vdW  Elec       q    Type
REMARK                         _______ _______ _______ _____ _____    ______ ____
ROOT
ATOM      1  N   UNL     1      33.125 -13.647 -22.328  0.00  0.00    -0.286 N 
ATOM      2  C   UNL     1      32.608 -12.480 -21.812  0.00  0.00    +0.053 C 
ATOM      3  C   UNL     1      32.292 -12.728 -20.474  0.00  0.00    +0.015 C 
ATOM      4  C   UNL     1      33.147 -14.620 -21.366  0.00  0.00    +0.065 C 
ATOM      5  C   UNL     1      32.638 -14.081 -20.207  0.00  0.00    +0.017 C 
ATOM      6  C   UNL     1      32.398 -11.237 -22.420  0.00  0.00    +0.030 C 
ATOM      7  C   UNL     1      31.739 -11.685 -19.704  0.00  0.00    +0.003 C 
ATOM      8  C   UNL     1      31.849 -10.218 -21.636  0.00  0.00    +0.053 C 
ATOM      9  C   UNL     1      31.525 -10.437 -20.298  0.00  0.00    +0.015 C 
ENDROOT
BRANCH   8  11
ATOM     10  O   UNL     1      33.446  -7.685 -21.440  0.00  0.00    -0.252 OA
ATOM     11  N   UNL     1      31.626  -8.963 -22.203  0.00  0.00    -0.268 N 
ATOM     12  N   UNL     1      31.840  -6.741 -22.809  0.00  0.00    -0.285 N 
ATOM     13  C   UNL     1      32.407  -7.796 -22.084  0.00  0.00    +0.305 C 
ATOM     14  H   UNL     1      30.817  -8.882 -22.760  0.00  0.00    +0.156 HD
ATOM     15  H   UNL     1      31.004  -6.906 -23.301  0.00  0.00    +0.151 HD
BRANCH  12  16
ATOM     16  C   UNL     1      32.426  -5.422 -22.869  0.00  0.00    +0.118 C 
BRANCH  16  17
ATOM     17  C   UNL     1      33.125  -5.176 -24.174  0.00  0.00    -0.003 C 
ATOM     18  C   UNL     1      32.639  -4.212 -25.056  0.00  0.00    -0.003 C 
ATOM     19  C   UNL     1      34.263  -5.913 -24.505  0.00  0.00    -0.003 C 
ATOM     20  C   UNL     1      33.289  -3.984 -26.269  0.00  0.00    -0.000 C 
ATOM     21  C   UNL     1      34.913  -5.686 -25.718  0.00  0.00    -0.000 C 
ATOM     22  C   UNL     1      34.426  -4.721 -26.599  0.00  0.00    -0.000 C 
ENDBRANCH  16  17
ENDBRANCH  12  16
ENDBRANCH   8  11
BRANCH   1  23
ATOM     23  C   UNL     1      33.582 -13.835 -23.689  0.00  0.00    +0.097 C 
BRANCH  23  24
ATOM     24  C   UNL     1      34.921 -14.576 -23.808  0.00  0.00    +0.040 C 
BRANCH  24  25
ATOM     25  C   UNL     1      34.916 -15.789 -24.765  0.00  0.00    +0.091 C 
BRANCH  25  26
ATOM     26  N   UNL     1      35.123 -17.078 -24.083  0.00  0.00    -0.246 NA
ATOM     27  N   UNL     1      35.173 -19.243 -23.594  0.00  0.00    -0.251 NA
ATOM     28  C   UNL     1      35.679 -17.268 -22.842  0.00  0.00    +0.125 C 
ATOM     29  C   UNL     1      34.830 -18.287 -24.508  0.00  0.00    +0.201 C 
ATOM     30  C   UNL     1      35.720 -18.604 -22.517  0.00  0.00    +0.124 C 
BRANCH  30  33
ATOM     31  O   UNL     1      35.560 -20.080 -20.677  0.00  0.00    -0.269 OA
ATOM     32  N   UNL     1      37.504 -18.914 -20.909  0.00  0.00    -0.324 N 
ATOM     33  C   UNL     1      36.212 -19.237 -21.339  0.00  0.00    +0.257 C 
ATOM     34  H   UNL     1      37.873 -19.333 -20.099  0.00  0.00    +0.145 HD
ATOM     35  H   UNL     1      38.045 -18.266 -21.417  0.00  0.00    +0.145 HD
ENDBRANCH  30  33
ENDBRANCH  25  26
BRANCH  25  36
ATOM     36  C   UNL     1      33.618 -15.821 -25.591  0.00  0.00    +0.153 C 
BRANCH  36  37
ATOM     37  O   UNL     1      33.909 -15.522 -26.951  0.00  0.00    -0.381 OA
ATOM     38  H   UNL     1      33.836 -16.330 -27.482  0.00  0.00    +0.210 HD
ENDBRANCH  36  37
ENDBRANCH  25  36
ENDBRANCH  24  25
ENDBRANCH  23  24
ENDBRANCH   1  23
TORSDOF 10
ENDMDL
MODEL 2
REMARK VINA RESULT:     -11.2      6.953     12.114
REMARK  Name = 447546
REMARK  10 active torsions:
REMARK  status: ('A' for Active; 'I' for Inactive)
REMARK    1  A    between atoms: N_1  and  C_23
REMARK    2  A    between atoms: C_8  and  N_11
REMARK    3  A    between atoms: N_12  and  C_16
REMARK    4  A    between atoms: C_16  and  C_17
REMARK    5  A    between atoms: C_23  and  C_24
REMARK    6  A    between atoms: C_24  and  C_25
REMARK    7  A    between atoms: C_25  and  N_26
REMARK    8  A    between atoms: C_25  and  C_36
REMARK    9  A    between atoms: C_30  and  C_33
REMARK   10  A    between atoms: C_36  and  O_37
REMARK                            x       y       z     vdW  Elec       q    Type
REMARK                         _______ _______ _______ _____ _____    ______ ____
ROOT
ATOM      1  N   UNL     1      33.667 -23.428 -16.374  0.00  0.00    -0.286 N 
ATOM      2  C   UNL     1      34.544 -22.816 -17.242  0.00  0.00    +0.053 C 
ATOM      3  C   UNL     1      35.817 -22.910 -16.672  0.00  0.00    +0.015 C 
ATOM      4  C   UNL     1      34.339 -23.905 -15.281  0.00  0.00    +0.065 C 
ATOM      5  C   UNL     1      35.671 -23.600 -15.436  0.00  0.00    +0.017 C 
ATOM      6  C   UNL     1      34.312 -22.193 -18.473  0.00  0.00    +0.030 C 
ATOM      7  C   UNL     1      36.912 -22.355 -17.364  0.00  0.00    +0.003 C 
ATOM      8  C   UNL     1      35.414 -21.651 -19.141  0.00  0.00    +0.053 C 
ATOM      9  C   UNL     1      36.694 -21.730 -18.597  0.00  0.00    +0.015 C 
ENDROOT
BRANCH   8  11
ATOM     10  O   UNL     1      37.097 -19.611 -20.560  0.00  0.00    -0.252 OA
ATOM     11  N   UNL     1      35.226 -21.022 -20.373  0.00  0.00    -0.268 N 
ATOM     12  N   UNL     1      35.507 -19.682 -22.236  0.00  0.00    -0.285 N 
ATOM     13  C   UNL     1      36.047 -20.067 -21.004  0.00  0.00    +0.305 C 
ATOM     14  H   UNL     1      34.414 -21.282 -20.866  0.00  0.00    +0.156 HD
ATOM     15  H   UNL     1      34.660 -20.091 -22.526  0.00  0.00    +0.151 HD
BRANCH  12  16
ATOM     16  C   UNL     1      36.135 -18.713 -23.104  0.00  0.00    +0.118 C 
BRANCH  16  17
ATOM     17  C   UNL     1      35.587 -17.332 -22.894  0.00  0.00    -0.003 C 
ATOM     18  C   UNL     1      35.365 -16.857 -21.603  0.00  0.00    -0.003 C 
ATOM     19  C   UNL     1      35.299 -16.521 -23.994  0.00  0.00    -0.003 C 
ATOM     20  C   UNL     1      34.855 -15.574 -21.408  0.00  0.00    -0.000 C 
ATOM     21  C   UNL     1      34.790 -15.238 -23.799  0.00  0.00    -0.000 C 
ATOM     22  C   UNL     1      34.568 -14.764 -22.506  0.00  0.00    -0.000 C 
ENDBRANCH  16  17
ENDBRANCH  12  16
ENDBRANCH   8  11
BRANCH   1  23
ATOM     23  C   UNL     1      32.240 -23.557 -16.574  0.00  0.00    +0.097 C 
BRANCH  23  24
ATOM     24  C   UNL     1      31.388 -22.991 -15.428  0.00  0.00    +0.040 C 
BRANCH  24  25
ATOM     25  C   UNL     1      30.063 -23.741 -15.164  0.00  0.00    +0.091 C 
BRANCH  25  26
ATOM     26  N   UNL     1      29.066 -23.569 -16.235  0.00  0.00    -0.246 NA
ATOM     27  N   UNL     1      27.707 -23.923 -17.954  0.00  0.00    -0.251 NA
ATOM     28  C   UNL     1      28.366 -22.425 -16.526  0.00  0.00    +0.125 C 
ATOM     29  C   UNL     1      28.645 -24.452 -17.113  0.00  0.00    +0.201 C 
ATOM     30  C   UNL     1      27.515 -22.620 -17.589  0.00  0.00    +0.124 C 
BRANCH  30  33
ATOM     31  O   UNL     1      26.386 -20.553 -17.781  0.00  0.00    -0.269 OA
ATOM     32  N   UNL     1      25.970 -22.118 -19.385  0.00  0.00    -0.324 N 
ATOM     33  C   UNL     1      26.616 -21.708 -18.212  0.00  0.00    +0.257 C 
ATOM     34  H   UNL     1      25.343 -21.511 -19.839  0.00  0.00    +0.145 HD
ATOM     35  H   UNL     1      26.144 -23.014 -19.755  0.00  0.00    +0.145 HD
ENDBRANCH  30  33
ENDBRANCH  25  26
BRANCH  25  36
ATOM     36  C   UNL     1      30.328 -25.235 -14.913  0.00  0.00    +0.153 C 
BRANCH  36  37
ATOM     37  O   UNL     1      30.817 -25.418 -13.589  0.00  0.00    -0.381 OA
ATOM     38  H   UNL     1      31.774 -25.573 -13.617  0.00  0.00    +0.210 HD
ENDBRANCH  36  37
ENDBRANCH  25  36
ENDBRANCH  24  25
ENDBRANCH  23  24
ENDBRANCH   1  23
TORSDOF 10
ENDMDL
MODEL 3
REMARK VINA RESULT:     -11.0      9.305     13.927
REMARK  Name = 447546
REMARK  10 active torsions:
REMARK  status: ('A' for Active; 'I' for Inactive)
REMARK    1  A    between atoms: N_1  and  C_23
REMARK    2  A    between atoms: C_8  and  N_11
REMARK    3  A    between atoms: N_12  and  C_16
REMARK    4  A    between atoms: C_16  and  C_17
REMARK    5  A    between atoms: C_23  and  C_24
REMARK    6  A    between atoms: C_24  and  C_25
REMARK    7  A    between atoms: C_25  and  N_26
REMARK    8  A    between atoms: C_25  and  C_36
REMARK    9  A    between atoms: C_30  and  C_33
REMARK   10  A    between atoms: C_36  and  O_37
REMARK                            x       y       z     vdW  Elec       q    Type
REMARK                         _______ _______ _______ _____ _____    ______ ____
ROOT
ATOM      1  N   UNL     1      32.735 -24.826 -14.224  0.00  0.00    -0.286 N 
ATOM      2  C   UNL     1      32.278 -24.102 -15.303  0.00  0.00    +0.053 C 
ATOM      3  C   UNL     1      30.889 -24.011 -15.176  0.00  0.00    +0.015 C 
ATOM      4  C   UNL     1      31.687 -25.192 -13.423  0.00  0.00    +0.065 C 
ATOM      5  C   UNL     1      30.532 -24.702 -13.986  0.00  0.00    +0.017 C 
ATOM      6  C   UNL     1      32.979 -23.528 -16.369  0.00  0.00    +0.030 C 
ATOM      7  C   UNL     1      30.164 -23.312 -16.162  0.00  0.00    +0.003 C 
ATOM      8  C   UNL     1      32.237 -22.840 -17.334  0.00  0.00    +0.053 C 
ATOM      9  C   UNL     1      30.852 -22.732 -17.234  0.00  0.00    +0.015 C 
ENDROOT
BRANCH   8  11
ATOM     10  O   UNL     1      35.158 -22.766 -18.018  0.00  0.00    -0.252 OA
ATOM     11  N   UNL     1      32.898 -22.251 -18.413  0.00  0.00    -0.268 N 
ATOM     12  N   UNL     1      34.539 -21.540 -19.879  0.00  0.00    -0.285 N 
ATOM     13  C   UNL     1      34.278 -22.241 -18.696  0.00  0.00    +0.305 C 
ATOM     14  H   UNL     1      32.325 -21.782 -19.062  0.00  0.00    +0.156 HD
ATOM     15  H   UNL     1      33.782 -21.147 -20.368  0.00  0.00    +0.151 HD
BRANCH  12  16
ATOM     16  C   UNL     1      35.870 -21.367 -20.415  0.00  0.00    +0.118 C 
BRANCH  16  17
ATOM     17  C   UNL     1      35.950 -20.200 -21.356  0.00  0.00    -0.003 C 
ATOM     18  C   UNL     1      37.080 -19.385 -21.362  0.00  0.00    -0.003 C 
ATOM     19  C   UNL     1      34.891 -19.932 -22.225  0.00  0.00    -0.003 C 
ATOM     20  C   UNL     1      37.153 -18.300 -22.236  0.00  0.00    -0.000 C 
ATOM     21  C   UNL     1      34.964 -18.847 -23.099  0.00  0.00    -0.000 C 
ATOM     22  C   UNL     1      36.096 -18.032 -23.105  0.00  0.00    -0.000 C 
ENDBRANCH  16  17
ENDBRANCH  12  16
ENDBRANCH   8  11
BRANCH   1  23
ATOM     23  C   UNL     1      34.118 -25.160 -13.961  0.00  0.00    +0.097 C 
BRANCH  23  24
ATOM     24  C   UNL     1      34.770 -24.323 -12.851  0.00  0.00    +0.040 C 
BRANCH  24  25
ATOM     25  C   UNL     1      36.096 -24.890 -12.295  0.00  0.00    +0.091 C 
BRANCH  25  26
ATOM     26  N   UNL     1      37.221 -24.791 -13.241  0.00  0.00    -0.246 NA
ATOM     27  N   UNL     1      38.637 -24.082 -14.796  0.00  0.00    -0.251 NA
ATOM     28  C   UNL     1      38.213 -25.720 -13.434  0.00  0.00    +0.125 C 
ATOM     29  C   UNL     1      37.506 -23.817 -14.077  0.00  0.00    +0.201 C 
ATOM     30  C   UNL     1      39.104 -25.302 -14.395  0.00  0.00    +0.124 C 
BRANCH  30  33
ATOM     31  O   UNL     1      40.674 -25.837 -16.079  0.00  0.00    -0.269 OA
ATOM     32  N   UNL     1      41.011 -26.745 -14.016  0.00  0.00    -0.324 N 
ATOM     33  C   UNL     1      40.267 -25.951 -14.898  0.00  0.00    +0.257 C 
ATOM     34  H   UNL     1      41.820 -27.207 -14.333  0.00  0.00    +0.145 HD
ATOM     35  H   UNL     1      40.725 -26.840 -13.079  0.00  0.00    +0.145 HD
ENDBRANCH  30  33
ENDBRANCH  25  26
BRANCH  25  36
ATOM     36  C   UNL     1      36.455 -24.215 -10.961  0.00  0.00    +0.153 C 
BRANCH  36  37
ATOM     37  O   UNL     1      35.677 -24.781  -9.913  0.00  0.00    -0.381 OA
ATOM     38  H   UNL     1      36.117 -25.579  -9.580  0.00  0.00    +0.210 HD
ENDBRANCH  36  37
ENDBRANCH  25  36
ENDBRANCH  24  25
ENDBRANCH  23  24
ENDBRANCH   1  23
TORSDOF 10
ENDMDL
MODEL 4
REMARK VINA RESULT:     -11.0      2.680     11.967
REMARK  Name = 447546
REMARK  10 active torsions:
REMARK  status: ('A' for Active; 'I' for Inactive)
REMARK    1  A    between atoms: N_1  and  C_23
REMARK    2  A    between atoms: C_8  and  N_11
REMARK    3  A    between atoms: N_12  and  C_16
REMARK    4  A    between atoms: C_16  and  C_17
REMARK    5  A    between atoms: C_23  and  C_24
REMARK    6  A    between atoms: C_24  and  C_25
REMARK    7  A    between atoms: C_25  and  N_26
REMARK    8  A    between atoms: C_25  and  C_36
REMARK    9  A    between atoms: C_30  and  C_33
REMARK   10  A    between atoms: C_36  and  O_37
REMARK                            x       y       z     vdW  Elec       q    Type
REMARK                         _______ _______ _______ _____ _____    ______ ____
ROOT
ATOM      1  N   UNL     1      33.635 -13.705 -22.172  0.00  0.00    -0.286 N 
ATOM      2  C   UNL     1      34.349 -14.849 -22.454  0.00  0.00    +0.053 C 
ATOM      3  C   UNL     1      34.667 -14.809 -23.814  0.00  0.00    +0.015 C 
ATOM      4  C   UNL     1      33.494 -12.946 -23.303  0.00  0.00    +0.065 C 
ATOM      5  C   UNL     1      34.122 -13.603 -24.335  0.00  0.00    +0.017 C 
ATOM      6  C   UNL     1      34.731 -15.904 -21.618  0.00  0.00    +0.030 C 
ATOM      7  C   UNL     1      35.404 -15.874 -24.368  0.00  0.00    +0.003 C 
ATOM      8  C   UNL     1      35.462 -16.949 -22.192  0.00  0.00    +0.053 C 
ATOM      9  C   UNL     1      35.795 -16.936 -23.545  0.00  0.00    +0.015 C 
ENDROOT
BRANCH   8  11
ATOM     10  O   UNL     1      34.619 -19.829 -22.231  0.00  0.00    -0.252 OA
ATOM     11  N   UNL     1      35.866 -18.020 -21.393  0.00  0.00    -0.268 N 
ATOM     12  N   UNL     1      36.088 -20.129 -20.471  0.00  0.00    -0.285 N 
ATOM     13  C   UNL     1      35.442 -19.363 -21.447  0.00  0.00    +0.305 C 
ATOM     14  H   UNL     1      36.536 -17.810 -20.702  0.00  0.00    +0.156 HD
ATOM     15  H   UNL     1      36.736 -19.685 -19.879  0.00  0.00    +0.151 HD
BRANCH  12  16
ATOM     16  C   UNL     1      35.849 -21.543 -20.292  0.00  0.00    +0.118 C 
BRANCH  16  17
ATOM     17  C   UNL     1      35.924 -21.948 -18.849  0.00  0.00    -0.003 C 
ATOM     18  C   UNL     1      34.843 -22.589 -18.247  0.00  0.00    -0.003 C 
ATOM     19  C   UNL     1      37.078 -21.683 -18.110  0.00  0.00    -0.003 C 
ATOM     20  C   UNL     1      34.913 -22.965 -16.905  0.00  0.00    -0.000 C 
ATOM     21  C   UNL     1      37.148 -22.059 -16.768  0.00  0.00    -0.000 C 
ATOM     22  C   UNL     1      36.066 -22.701 -16.166  0.00  0.00    -0.000 C 
ENDBRANCH  16  17
ENDBRANCH  12  16
ENDBRANCH   8  11
BRANCH   1  23
ATOM     23  C   UNL     1      33.105 -13.343 -20.876  0.00  0.00    +0.097 C 
BRANCH  23  24
ATOM     24  C   UNL     1      31.918 -12.371 -20.928  0.00  0.00    +0.040 C 
BRANCH  24  25
ATOM     25  C   UNL     1      32.174 -10.988 -20.288  0.00  0.00    +0.091 C 
BRANCH  25  26
ATOM     26  N   UNL     1      32.146  -9.877 -21.255  0.00  0.00    -0.246 NA
ATOM     27  N   UNL     1      31.842  -8.654 -23.083  0.00  0.00    -0.251 NA
ATOM     28  C   UNL     1      32.582  -8.593 -21.041  0.00  0.00    +0.125 C 
ATOM     29  C   UNL     1      31.706  -9.880 -22.494  0.00  0.00    +0.201 C 
ATOM     30  C   UNL     1      32.403  -7.816 -22.162  0.00  0.00    +0.124 C 
BRANCH  30  33
ATOM     31  O   UNL     1      33.217  -5.995 -23.431  0.00  0.00    -0.269 OA
ATOM     32  N   UNL     1      32.422  -5.536 -21.346  0.00  0.00    -0.324 N 
ATOM     33  C   UNL     1      32.715  -6.442 -22.372  0.00  0.00    +0.257 C 
ATOM     34  H   UNL     1      32.626  -4.580 -21.459  0.00  0.00    +0.145 HD
ATOM     35  H   UNL     1      32.013  -5.855 -20.508  0.00  0.00    +0.145 HD
ENDBRANCH  30  33
ENDBRANCH  25  26
BRANCH  25  36
ATOM     36  C   UNL     1      31.180 -10.729 -19.143  0.00  0.00    +0.153 C 
BRANCH  36  37
ATOM     37  O   UNL     1      31.540 -11.511 -18.010  0.00  0.00    -0.381 OA
ATOM     38  H   UNL     1      31.128 -11.136 -17.216  0.00  0.00    +0.210 HD
ENDBRANCH  36  37
ENDBRANCH  25  36
ENDBRANCH  24  25
ENDBRANCH  23  24
ENDBRANCH   1  23
TORSDOF 10
ENDMDL
MODEL 5
REMARK VINA RESULT:     -10.8      2.592     11.465
REMARK  Name = 447546
REMARK  10 active torsions:
REMARK  status: ('A' for Active; 'I' for Inactive)
REMARK    1  A    between atoms: N_1  and  C_23
REMARK    2  A    between atoms: C_8  and  N_11
REMARK    3  A    between atoms: N_12  and  C_16
REMARK    4  A    between atoms: C_16  and  C_17
REMARK    5  A    between atoms: C_23  and  C_24
REMARK    6  A    between atoms: C_24  and  C_25
REMARK    7  A    between atoms: C_25  and  N_26
REMARK    8  A    between atoms: C_25  and  C_36
REMARK    9  A    between atoms: C_30  and  C_33
REMARK   10  A    between atoms: C_36  and  O_37
REMARK                            x       y       z     vdW  Elec       q    Type
REMARK                         _______ _______ _______ _____ _____    ______ ____
ROOT
ATOM      1  N   UNL     1      34.034 -12.500 -25.047  0.00  0.00    -0.286 N 
ATOM      2  C   UNL     1      34.297 -13.839 -24.867  0.00  0.00    +0.053 C 
ATOM      3  C   UNL     1      33.978 -14.484 -26.065  0.00  0.00    +0.015 C 
ATOM      4  C   UNL     1      33.564 -12.276 -26.313  0.00  0.00    +0.065 C 
ATOM      5  C   UNL     1      33.518 -13.485 -26.967  0.00  0.00    +0.017 C 
ATOM      6  C   UNL     1      34.786 -14.523 -23.747  0.00  0.00    +0.030 C 
ATOM      7  C   UNL     1      34.155 -15.879 -26.151  0.00  0.00    +0.003 C 
ATOM      8  C   UNL     1      34.953 -15.906 -23.858  0.00  0.00    +0.053 C 
ATOM      9  C   UNL     1      34.645 -16.576 -25.040  0.00  0.00    +0.015 C 
ENDROOT
BRANCH   8  11
ATOM     10  O   UNL     1      35.906 -18.746 -23.669  0.00  0.00    -0.252 OA
ATOM     11  N   UNL     1      35.441 -16.626 -22.766  0.00  0.00    -0.268 N 
ATOM     12  N   UNL     1      36.295 -18.311 -21.432  0.00  0.00    -0.285 N 
ATOM     13  C   UNL     1      35.880 -17.964 -22.723  0.00  0.00    +0.305 C 
ATOM     14  H   UNL     1      35.485 -16.133 -21.914  0.00  0.00    +0.156 HD
ATOM     15  H   UNL     1      36.245 -17.629 -20.724  0.00  0.00    +0.151 HD
BRANCH  12  16
ATOM     16  C   UNL     1      36.795 -19.623 -21.091  0.00  0.00    +0.118 C 
BRANCH  16  17
ATOM     17  C   UNL     1      35.728 -20.494 -20.496  0.00  0.00    -0.003 C 
ATOM     18  C   UNL     1      34.389 -20.274 -20.815  0.00  0.00    -0.003 C 
ATOM     19  C   UNL     1      36.076 -21.526 -19.624  0.00  0.00    -0.003 C 
ATOM     20  C   UNL     1      33.397 -21.083 -20.262  0.00  0.00    -0.000 C 
ATOM     21  C   UNL     1      35.084 -22.336 -19.071  0.00  0.00    -0.000 C 
ATOM     22  C   UNL     1      33.744 -22.115 -19.390  0.00  0.00    -0.000 C 
ENDBRANCH  16  17
ENDBRANCH  12  16
ENDBRANCH   8  11
BRANCH   1  23
ATOM     23  C   UNL     1      34.222 -11.465 -24.052  0.00  0.00    +0.097 C 
BRANCH  23  24
ATOM     24  C   UNL     1      33.006 -10.550 -23.855  0.00  0.00    +0.040 C 
BRANCH  24  25
ATOM     25  C   UNL     1      32.602 -10.303 -22.384  0.00  0.00    +0.091 C 
BRANCH  25  26
ATOM     26  N   UNL     1      32.387  -8.882 -22.063  0.00  0.00    -0.246 NA
ATOM     27  N   UNL     1      32.325  -6.921 -21.024  0.00  0.00    -0.251 NA
ATOM     28  C   UNL     1      31.842  -7.929 -22.887  0.00  0.00    +0.125 C 
ATOM     29  C   UNL     1      32.667  -8.242 -20.949  0.00  0.00    +0.201 C 
ATOM     30  C   UNL     1      31.793  -6.704 -22.263  0.00  0.00    +0.124 C 
BRANCH  30  33
ATOM     31  O   UNL     1      31.443  -5.072 -23.937  0.00  0.00    -0.269 OA
ATOM     32  N   UNL     1      30.623  -4.623 -21.859  0.00  0.00    -0.324 N 
ATOM     33  C   UNL     1      31.308  -5.456 -22.751  0.00  0.00    +0.257 C 
ATOM     34  H   UNL     1      30.276  -3.754 -22.164  0.00  0.00    +0.145 HD
ATOM     35  H   UNL     1      30.489  -4.905 -20.925  0.00  0.00    +0.145 HD
ENDBRANCH  30  33
ENDBRANCH  25  26
BRANCH  25  36
ATOM     36  C   UNL     1      31.358 -11.130 -22.019  0.00  0.00    +0.153 C 
BRANCH  36  37
ATOM     37  O   UNL     1      31.640 -12.516 -22.178  0.00  0.00    -0.381 OA
ATOM     38  H   UNL     1      31.147 -12.860 -22.939  0.00  0.00    +0.210 HD
ENDBRANCH  36  37
ENDBRANCH  25  36
ENDBRANCH  24  25
ENDBRANCH  23  24
ENDBRANCH   1  23
TORSDOF 10
ENDMDL
MODEL 6
REMARK VINA RESULT:     -10.3      6.294     11.139
REMARK  Name = 447546
REMARK  10 active torsions:
REMARK  status: ('A' for Active; 'I' for Inactive)
REMARK    1  A    between atoms: N_1  and  C_23
REMARK    2  A    between atoms: C_8  and  N_11
REMARK    3  A    between atoms: N_12  and  C_16
REMARK    4  A    between atoms: C_16  and  C_17
REMARK    5  A    between atoms: C_23  and  C_24
REMARK    6  A    between atoms: C_24  and  C_25
REMARK    7  A    between atoms: C_25  and  N_26
REMARK    8  A    between atoms: C_25  and  C_36
REMARK    9  A    between atoms: C_30  and  C_33
REMARK   10  A    between atoms: C_36  and  O_37
REMARK                            x       y       z     vdW  Elec       q    Type
REMARK                         _______ _______ _______ _____ _____    ______ ____
ROOT
ATOM      1  N   UNL     1      34.459 -22.420 -18.134  0.00  0.00    -0.286 N 
ATOM      2  C   UNL     1      35.035 -21.661 -19.128  0.00  0.00    +0.053 C 
ATOM      3  C   UNL     1      36.395 -21.553 -18.826  0.00  0.00    +0.015 C 
ATOM      4  C   UNL     1      35.405 -22.795 -17.218  0.00  0.00    +0.065 C 
ATOM      5  C   UNL     1      36.613 -22.274 -17.619  0.00  0.00    +0.017 C 
ATOM      6  C   UNL     1      34.462 -21.067 -20.259  0.00  0.00    +0.030 C 
ATOM      7  C   UNL     1      37.225 -20.817 -19.694  0.00  0.00    +0.003 C 
ATOM      8  C   UNL     1      35.307 -20.343 -21.105  0.00  0.00    +0.053 C 
ATOM      9  C   UNL     1      36.667 -20.219 -20.830  0.00  0.00    +0.015 C 
ENDROOT
BRANCH   8  11
ATOM     10  O   UNL     1      36.621 -18.615 -23.178  0.00  0.00    -0.252 OA
ATOM     11  N   UNL     1      34.777 -19.737 -22.246  0.00  0.00    -0.268 N 
ATOM     12  N   UNL     1      34.547 -18.516 -24.196  0.00  0.00    -0.285 N 
ATOM     13  C   UNL     1      35.434 -18.931 -23.196  0.00  0.00    +0.305 C 
ATOM     14  H   UNL     1      33.818 -19.895 -22.408  0.00  0.00    +0.156 HD
ATOM     15  H   UNL     1      33.610 -18.810 -24.143  0.00  0.00    +0.151 HD
BRANCH  12  16
ATOM     16  C   UNL     1      34.945 -17.677 -25.304  0.00  0.00    +0.118 C 
BRANCH  16  17
ATOM     17  C   UNL     1      34.598 -16.235 -25.069  0.00  0.00    -0.003 C 
ATOM     18  C   UNL     1      35.030 -15.593 -23.910  0.00  0.00    -0.003 C 
ATOM     19  C   UNL     1      33.843 -15.538 -26.013  0.00  0.00    -0.003 C 
ATOM     20  C   UNL     1      34.707 -14.253 -23.693  0.00  0.00    -0.000 C 
ATOM     21  C   UNL     1      33.521 -14.198 -25.796  0.00  0.00    -0.000 C 
ATOM     22  C   UNL     1      33.953 -13.556 -24.636  0.00  0.00    -0.000 C 
ENDBRANCH  16  17
ENDBRANCH  12  16
ENDBRANCH   8  11
BRANCH   1  23
ATOM     23  C   UNL     1      33.059 -22.777 -18.053  0.00  0.00    +0.097 C 
BRANCH  23  24
ATOM     24  C   UNL     1      32.758 -23.938 -17.095  0.00  0.00    +0.040 C 
BRANCH  24  25
ATOM     25  C   UNL     1      32.109 -23.530 -15.754  0.00  0.00    +0.091 C 
BRANCH  25  26
ATOM     26  N   UNL     1      30.641 -23.652 -15.749  0.00  0.00    -0.246 NA
ATOM     27  N   UNL     1      28.568 -24.386 -15.446  0.00  0.00    -0.251 NA
ATOM     28  C   UNL     1      29.742 -22.749 -16.259  0.00  0.00    +0.125 C 
ATOM     29  C   UNL     1      29.901 -24.626 -15.267  0.00  0.00    +0.201 C 
ATOM     30  C   UNL     1      28.448 -23.182 -16.082  0.00  0.00    +0.124 C 
BRANCH  30  33
ATOM     31  O   UNL     1      26.249 -22.414 -15.679  0.00  0.00    -0.269 OA
ATOM     32  N   UNL     1      27.109 -22.064 -17.761  0.00  0.00    -0.324 N 
ATOM     33  C   UNL     1      27.223 -22.560 -16.456  0.00  0.00    +0.257 C 
ATOM     34  H   UNL     1      26.276 -21.629 -18.051  0.00  0.00    +0.145 HD
ATOM     35  H   UNL     1      27.863 -22.150 -18.388  0.00  0.00    +0.145 HD
ENDBRANCH  30  33
ENDBRANCH  25  26
BRANCH  25  36
ATOM     36  C   UNL     1      32.718 -24.332 -14.592  0.00  0.00    +0.153 C 
BRANCH  36  37
ATOM     37  O   UNL     1      33.235 -23.438 -13.612  0.00  0.00    -0.381 OA
ATOM     38  H   UNL     1      34.187 -23.319 -13.756  0.00  0.00    +0.210 HD
ENDBRANCH  36  37
ENDBRANCH  25  36
ENDBRANCH  24  25
ENDBRANCH  23  24
ENDBRANCH   1  23
TORSDOF 10
ENDMDL
MODEL 7
REMARK VINA RESULT:     -10.3      8.667     13.152
REMARK  Name = 447546
REMARK  10 active torsions:
REMARK  status: ('A' for Active; 'I' for Inactive)
REMARK    1  A    between atoms: N_1  and  C_23
REMARK    2  A    between atoms: C_8  and  N_11
REMARK    3  A    between atoms: N_12  and  C_16
REMARK    4  A    between atoms: C_16  and  C_17
REMARK    5  A    between atoms: C_23  and  C_24
REMARK    6  A    between atoms: C_24  and  C_25
REMARK    7  A    between atoms: C_25  and  N_26
REMARK    8  A    between atoms: C_25  and  C_36
REMARK    9  A    between atoms: C_30  and  C_33
REMARK   10  A    between atoms: C_36  and  O_37
REMARK                            x       y       z     vdW  Elec       q    Type
REMARK                         _______ _______ _______ _____ _____    ______ ____
ROOT
ATOM      1  N   UNL     1      33.040 -24.735 -14.658  0.00  0.00    -0.286 N 
ATOM      2  C   UNL     1      32.450 -23.987 -15.652  0.00  0.00    +0.053 C 
ATOM      3  C   UNL     1      31.069 -24.062 -15.456  0.00  0.00    +0.015 C 
ATOM      4  C   UNL     1      32.083 -25.276 -13.842  0.00  0.00    +0.065 C 
ATOM      5  C   UNL     1      30.854 -24.878 -14.311  0.00  0.00    +0.017 C 
ATOM      6  C   UNL     1      33.027 -23.259 -16.699  0.00  0.00    +0.030 C 
ATOM      7  C   UNL     1      30.220 -23.378 -16.348  0.00  0.00    +0.003 C 
ATOM      8  C   UNL     1      32.163 -22.588 -17.571  0.00  0.00    +0.053 C 
ATOM      9  C   UNL     1      30.782 -22.644 -17.399  0.00  0.00    +0.015 C 
ENDROOT
BRANCH   8  11
ATOM     10  O   UNL     1      34.842 -22.770 -18.913  0.00  0.00    -0.252 OA
ATOM     11  N   UNL     1      32.697 -21.848 -18.627  0.00  0.00    -0.268 N 
ATOM     12  N   UNL     1      34.118 -21.037 -20.262  0.00  0.00    -0.285 N 
ATOM     13  C   UNL     1      33.966 -21.969 -19.228  0.00  0.00    +0.305 C 
ATOM     14  H   UNL     1      32.110 -21.151 -19.001  0.00  0.00    +0.156 HD
ATOM     15  H   UNL     1      33.371 -20.427 -20.457  0.00  0.00    +0.151 HD
BRANCH  12  16
ATOM     16  C   UNL     1      35.320 -20.930 -21.056  0.00  0.00    +0.118 C 
BRANCH  16  17
ATOM     17  C   UNL     1      35.309 -19.711 -21.931  0.00  0.00    -0.003 C 
ATOM     18  C   UNL     1      34.949 -19.819 -23.274  0.00  0.00    -0.003 C 
ATOM     19  C   UNL     1      35.658 -18.468 -21.401  0.00  0.00    -0.003 C 
ATOM     20  C   UNL     1      34.938 -18.685 -24.087  0.00  0.00    -0.000 C 
ATOM     21  C   UNL     1      35.648 -17.335 -22.214  0.00  0.00    -0.000 C 
ATOM     22  C   UNL     1      35.288 -17.444 -23.557  0.00  0.00    -0.000 C 
ENDBRANCH  16  17
ENDBRANCH  12  16
ENDBRANCH   8  11
BRANCH   1  23
ATOM     23  C   UNL     1      34.464 -24.930 -14.486  0.00  0.00    +0.097 C 
BRANCH  23  24
ATOM     24  C   UNL     1      35.179 -23.772 -13.775  0.00  0.00    +0.040 C 
BRANCH  24  25
ATOM     25  C   UNL     1      36.468 -23.274 -14.467  0.00  0.00    +0.091 C 
BRANCH  25  26
ATOM     26  N   UNL     1      37.657 -24.083 -14.148  0.00  0.00    -0.246 NA
ATOM     27  N   UNL     1      39.273 -25.158 -13.071  0.00  0.00    -0.251 NA
ATOM     28  C   UNL     1      38.493 -24.699 -15.046  0.00  0.00    +0.125 C 
ATOM     29  C   UNL     1      38.155 -24.379 -12.968  0.00  0.00    +0.201 C 
ATOM     30  C   UNL     1      39.504 -25.373 -14.400  0.00  0.00    +0.124 C 
BRANCH  30  33
ATOM     31  O   UNL     1      40.910 -26.111 -16.151  0.00  0.00    -0.269 OA
ATOM     32  N   UNL     1      41.312 -26.950 -14.071  0.00  0.00    -0.324 N 
ATOM     33  C   UNL     1      40.576 -26.138 -14.943  0.00  0.00    +0.257 C 
ATOM     34  H   UNL     1      42.059 -27.491 -14.415  0.00  0.00    +0.145 HD
ATOM     35  H   UNL     1      41.083 -26.980 -13.114  0.00  0.00    +0.145 HD
ENDBRANCH  30  33
ENDBRANCH  25  26
BRANCH  25  36
ATOM     36  C   UNL     1      36.267 -23.191 -15.989  0.00  0.00    +0.153 C 
BRANCH  36  37
ATOM     37  O   UNL     1      36.728 -21.931 -16.465  0.00  0.00    -0.381 OA
ATOM     38  H   UNL     1      37.296 -21.521 -15.793  0.00  0.00    +0.210 HD
ENDBRANCH  36  37
ENDBRANCH  25  36
ENDBRANCH  24  25
ENDBRANCH  23  24
ENDBRANCH   1  23
TORSDOF 10
ENDMDL
MODEL 8
REMARK VINA RESULT:     -10.2      2.468     10.617
REMARK  Name = 447546
REMARK  10 active torsions:
REMARK  status: ('A' for Active; 'I' for Inactive)
REMARK    1  A    between atoms: N_1  and  C_23
REMARK    2  A    between atoms: C_8  and  N_11
REMARK    3  A    between atoms: N_12  and  C_16
REMARK    4  A    between atoms: C_16  and  C_17
REMARK    5  A    between atoms: C_23  and  C_24
REMARK    6  A    between atoms: C_24  and  C_25
REMARK    7  A    between atoms: C_25  and  N_26
REMARK    8  A    between atoms: C_25  and  C_36
REMARK    9  A    between atoms: C_30  and  C_33
REMARK   10  A    between atoms: C_36  and  O_37
REMARK                            x       y       z     vdW  Elec       q    Type
REMARK                         _______ _______ _______ _____ _____    ______ ____
ROOT
ATOM      1  N   UNL     1      33.999 -12.279 -24.829  0.00  0.00    -0.286 N 
ATOM      2  C   UNL     1      34.270 -13.624 -24.708  0.00  0.00    +0.053 C 
ATOM      3  C   UNL     1      33.992 -14.211 -25.945  0.00  0.00    +0.015 C 
ATOM      4  C   UNL     1      33.562 -11.997 -26.095  0.00  0.00    +0.065 C 
ATOM      5  C   UNL     1      33.547 -13.172 -26.809  0.00  0.00    +0.017 C 
ATOM      6  C   UNL     1      34.735 -14.357 -23.610  0.00  0.00    +0.030 C 
ATOM      7  C   UNL     1      34.187 -15.598 -26.095  0.00  0.00    +0.003 C 
ATOM      8  C   UNL     1      34.920 -15.732 -23.784  0.00  0.00    +0.053 C 
ATOM      9  C   UNL     1      34.652 -16.345 -25.006  0.00  0.00    +0.015 C 
ENDROOT
BRANCH   8  11
ATOM     10  O   UNL     1      35.889 -18.572 -23.707  0.00  0.00    -0.252 OA
ATOM     11  N   UNL     1      35.385 -16.500 -22.715  0.00  0.00    -0.268 N 
ATOM     12  N   UNL     1      36.216 -18.242 -21.442  0.00  0.00    -0.285 N 
ATOM     13  C   UNL     1      35.832 -17.836 -22.725  0.00  0.00    +0.305 C 
ATOM     14  H   UNL     1      35.403 -16.049 -21.840  0.00  0.00    +0.156 HD
ATOM     15  H   UNL     1      36.143 -17.596 -20.704  0.00  0.00    +0.151 HD
BRANCH  12  16
ATOM     16  C   UNL     1      36.717 -19.566 -21.152  0.00  0.00    +0.118 C 
BRANCH  16  17
ATOM     17  C   UNL     1      35.656 -20.454 -20.570  0.00  0.00    -0.003 C 
ATOM     18  C   UNL     1      34.313 -20.218 -20.859  0.00  0.00    -0.003 C 
ATOM     19  C   UNL     1      36.013 -21.517 -19.739  0.00  0.00    -0.003 C 
ATOM     20  C   UNL     1      33.327 -21.043 -20.318  0.00  0.00    -0.000 C 
ATOM     21  C   UNL     1      35.027 -22.342 -19.198  0.00  0.00    -0.000 C 
ATOM     22  C   UNL     1      33.684 -22.104 -19.488  0.00  0.00    -0.000 C 
ENDBRANCH  16  17
ENDBRANCH  12  16
ENDBRANCH   8  11
BRANCH   1  23
ATOM     23  C   UNL     1      34.148 -11.294 -23.779  0.00  0.00    +0.097 C 
BRANCH  23  24
ATOM     24  C   UNL     1      33.771  -9.865 -24.196  0.00  0.00    +0.040 C 
BRANCH  24  25
ATOM     25  C   UNL     1      32.479  -9.313 -23.552  0.00  0.00    +0.091 C 
BRANCH  25  26
ATOM     26  N   UNL     1      32.390  -9.564 -22.103  0.00  0.00    -0.246 NA
ATOM     27  N   UNL     1      32.395  -9.317 -19.897  0.00  0.00    -0.251 NA
ATOM     28  C   UNL     1      32.106 -10.760 -21.494  0.00  0.00    +0.125 C 
ATOM     29  C   UNL     1      32.559  -8.715 -21.113  0.00  0.00    +0.201 C 
ATOM     30  C   UNL     1      32.103 -10.632 -20.125  0.00  0.00    +0.124 C 
BRANCH  30  33
ATOM     31  O   UNL     1      31.543 -11.337 -17.939  0.00  0.00    -0.269 OA
ATOM     32  N   UNL     1      31.951 -12.962 -19.483  0.00  0.00    -0.324 N 
ATOM     33  C   UNL     1      31.857 -11.613 -19.121  0.00  0.00    +0.257 C 
ATOM     34  H   UNL     1      31.788 -13.664 -18.814  0.00  0.00    +0.145 HD
ATOM     35  H   UNL     1      32.181 -13.209 -20.409  0.00  0.00    +0.145 HD
ENDBRANCH  30  33
ENDBRANCH  25  26
BRANCH  25  36
ATOM     36  C   UNL     1      32.326  -7.812 -23.848  0.00  0.00    +0.153 C 
BRANCH  36  37
ATOM     37  O   UNL     1      33.611  -7.223 -24.012  0.00  0.00    -0.381 OA
ATOM     38  H   UNL     1      34.198  -7.850 -24.463  0.00  0.00    +0.210 HD
ENDBRANCH  36  37
ENDBRANCH  25  36
ENDBRANCH  24  25
ENDBRANCH  23  24
ENDBRANCH   1  23
TORSDOF 10
ENDMDL
MODEL 9
REMARK VINA RESULT:     -10.0      6.718     12.993
REMARK  Name = 447546
REMARK  10 active torsions:
REMARK  status: ('A' for Active; 'I' for Inactive)
REMARK    1  A    between atoms: N_1  and  C_23
REMARK    2  A    between atoms: C_8  and  N_11
REMARK    3  A    between atoms: N_12  and  C_16
REMARK    4  A    between atoms: C_16  and  C_17
REMARK    5  A    between atoms: C_23  and  C_24
REMARK    6  A    between atoms: C_24  and  C_25
REMARK    7  A    between atoms: C_25  and  N_26
REMARK    8  A    between atoms: C_25  and  C_36
REMARK    9  A    between atoms: C_30  and  C_33
REMARK   10  A    between atoms: C_36  and  O_37
REMARK                            x       y       z     vdW  Elec       q    Type
REMARK                         _______ _______ _______ _____ _____    ______ ____
ROOT
ATOM      1  N   UNL     1      35.580 -21.330 -19.812  0.00  0.00    -0.286 N 
ATOM      2  C   UNL     1      35.084 -22.051 -18.749  0.00  0.00    +0.053 C 
ATOM      3  C   UNL     1      36.112 -22.154 -17.808  0.00  0.00    +0.015 C 
ATOM      4  C   UNL     1      36.881 -20.974 -19.576  0.00  0.00    +0.065 C 
ATOM      5  C   UNL     1      37.238 -21.469 -18.344  0.00  0.00    +0.017 C 
ATOM      6  C   UNL     1      33.818 -22.614 -18.551  0.00  0.00    +0.030 C 
ATOM      7  C   UNL     1      35.865 -22.853 -16.610  0.00  0.00    +0.003 C 
ATOM      8  C   UNL     1      33.598 -23.302 -17.354  0.00  0.00    +0.053 C 
ATOM      9  C   UNL     1      34.604 -23.420 -16.397  0.00  0.00    +0.015 C 
ENDROOT
BRANCH   8  11
ATOM     10  O   UNL     1      31.369 -22.426 -15.545  0.00  0.00    -0.252 OA
ATOM     11  N   UNL     1      32.348 -23.877 -17.115  0.00  0.00    -0.268 N 
ATOM     12  N   UNL     1      30.224 -24.288 -16.298  0.00  0.00    -0.285 N 
ATOM     13  C   UNL     1      31.328 -23.428 -16.253  0.00  0.00    +0.305 C 
ATOM     14  H   UNL     1      32.155 -24.703 -17.615  0.00  0.00    +0.156 HD
ATOM     15  H   UNL     1      30.265 -25.072 -16.891  0.00  0.00    +0.151 HD
BRANCH  12  16
ATOM     16  C   UNL     1      29.028 -24.076 -15.516  0.00  0.00    +0.118 C 
BRANCH  16  17
ATOM     17  C   UNL     1      28.025 -23.226 -16.242  0.00  0.00    -0.003 C 
ATOM     18  C   UNL     1      28.042 -23.163 -17.634  0.00  0.00    -0.003 C 
ATOM     19  C   UNL     1      27.076 -22.500 -15.521  0.00  0.00    -0.003 C 
ATOM     20  C   UNL     1      27.110 -22.373 -18.307  0.00  0.00    -0.000 C 
ATOM     21  C   UNL     1      26.144 -21.710 -16.195  0.00  0.00    -0.000 C 
ATOM     22  C   UNL     1      26.161 -21.647 -17.588  0.00  0.00    -0.000 C 
ENDBRANCH  16  17
ENDBRANCH  12  16
ENDBRANCH   8  11
BRANCH   1  23
ATOM     23  C   UNL     1      34.847 -20.990 -21.013  0.00  0.00    +0.097 C 
BRANCH  23  24
ATOM     24  C   UNL     1      34.900 -19.501 -21.385  0.00  0.00    +0.040 C 
BRANCH  24  25
ATOM     25  C   UNL     1      35.878 -19.146 -22.527  0.00  0.00    +0.091 C 
BRANCH  25  26
ATOM     26  N   UNL     1      35.225 -18.515 -23.687  0.00  0.00    -0.246 NA
ATOM     27  N   UNL     1      34.122 -18.174 -25.583  0.00  0.00    -0.251 NA
ATOM     28  C   UNL     1      35.134 -17.170 -23.944  0.00  0.00    +0.125 C 
ATOM     29  C   UNL     1      34.605 -19.091 -24.693  0.00  0.00    +0.201 C 
ATOM     30  C   UNL     1      34.453 -16.934 -25.116  0.00  0.00    +0.124 C 
BRANCH  30  33
ATOM     31  O   UNL     1      33.889 -15.584 -26.973  0.00  0.00    -0.269 OA
ATOM     32  N   UNL     1      34.076 -14.547 -24.952  0.00  0.00    -0.324 N 
ATOM     33  C   UNL     1      34.136 -15.697 -25.749  0.00  0.00    +0.257 C 
ATOM     34  H   UNL     1      33.860 -13.678 -25.359  0.00  0.00    +0.145 HD
ATOM     35  H   UNL     1      34.250 -14.608 -23.985  0.00  0.00    +0.145 HD
ENDBRANCH  30  33
ENDBRANCH  25  26
BRANCH  25  36
ATOM     36  C   UNL     1      37.019 -18.257 -22.004  0.00  0.00    +0.153 C 
BRANCH  36  37
ATOM     37  O   UNL     1      38.238 -18.615 -22.646  0.00  0.00    -0.381 OA
ATOM     38  H   UNL     1      38.252 -18.244 -23.542  0.00  0.00    +0.210 HD
ENDBRANCH  36  37
ENDBRANCH  25  36
ENDBRANCH  24  25
ENDBRANCH  23  24
ENDBRANCH   1  23
TORSDOF 10
ENDMDL
