MODEL 1
REMARK VINA RESULT:     -11.3      0.000      0.000
REMARK  Name = 44177328
REMARK  2 active torsions:
REMARK  status: ('A' for Active; 'I' for Inactive)
REMARK    1  A    between atoms: N_1  and  C_15
REMARK    2  A    between atoms: C_6  and  C_23
REMARK                            x       y       z     vdW  Elec       q    Type
REMARK                         _______ _______ _______ _____ _____    ______ ____
ROOT
ATOM      1  N   UNL     1      32.703 -22.695 -18.394  0.00  0.00    -0.286 N 
ATOM      2  N   UNL     1      33.664 -23.603 -16.431  0.00  0.00    -0.386 NA
ATOM      3  N   UNL     1      31.125 -23.657 -15.239  0.00  0.00    -0.246 NA
ATOM      4  N   UNL     1      30.191 -22.748 -17.221  0.00  0.00    -0.340 N 
ATOM      5  C   UNL     1      32.562 -23.178 -17.080  0.00  0.00    +0.214 C 
ATOM      6  C   UNL     1      33.475 -24.056 -15.176  0.00  0.00    +0.135 C 
ATOM      7  C   UNL     1      31.315 -23.205 -16.496  0.00  0.00    +0.166 C 
ATOM      8  C   UNL     1      32.227 -24.082 -14.591  0.00  0.00    +0.185 C 
ATOM      9  H   UNL     1      31.908 -22.841 -18.957  0.00  0.00    +0.155 HD
ATOM     10  H   UNL     1      29.298 -22.764 -16.808  0.00  0.00    +0.144 HD
ATOM     11  H   UNL     1      30.303 -22.412 -18.140  0.00  0.00    +0.144 HD
ENDROOT
BRANCH   1  15
ATOM     12  N   UNL     1      36.678 -20.010 -21.150  0.00  0.00    -0.312 N 
ATOM     13  C   UNL     1      34.534 -20.448 -20.717  0.00  0.00    +0.016 C 
ATOM     14  C   UNL     1      35.845 -20.774 -20.363  0.00  0.00    +0.048 C 
ATOM     15  C   UNL     1      33.762 -22.043 -19.064  0.00  0.00    +0.050 C 
ATOM     16  C   UNL     1      33.472 -21.096 -20.053  0.00  0.00    +0.016 C 
ATOM     17  C   UNL     1      36.149 -21.717 -19.376  0.00  0.00    +0.016 C 
ATOM     18  C   UNL     1      35.080 -22.347 -18.732  0.00  0.00    +0.016 C 
ATOM     19  C   UNL     1      34.609 -19.464 -21.742  0.00  0.00    +0.017 C 
ATOM     20  C   UNL     1      35.940 -19.216 -21.987  0.00  0.00    +0.062 C 
ATOM     21  H   UNL     1      37.661 -20.033 -21.117  0.00  0.00    +0.152 HD
ENDBRANCH   1  15
BRANCH   6  23
ATOM     22  N   UNL     1      36.944 -25.380 -13.138  0.00  0.00    -0.242 NA
ATOM     23  C   UNL     1      34.655 -24.506 -14.483  0.00  0.00    +0.031 C 
ATOM     24  C   UNL     1      35.697 -25.095 -15.190  0.00  0.00    +0.023 C 
ATOM     25  C   UNL     1      34.756 -24.352 -13.104  0.00  0.00    +0.023 C 
ATOM     26  C   UNL     1      36.810 -25.511 -14.477  0.00  0.00    +0.099 C 
ATOM     27  C   UNL     1      35.911 -24.802 -12.485  0.00  0.00    +0.099 C 
ENDBRANCH   6  23
TORSDOF 2
ENDMDL
MODEL 2
REMARK VINA RESULT:     -10.9      1.331      2.071
REMARK  Name = 44177328
REMARK  2 active torsions:
REMARK  status: ('A' for Active; 'I' for Inactive)
REMARK    1  A    between atoms: N_1  and  C_15
REMARK    2  A    between atoms: C_6  and  C_23
REMARK                            x       y       z     vdW  Elec       q    Type
REMARK                         _______ _______ _______ _____ _____    ______ ____
ROOT
ATOM      1  N   UNL     1      32.873 -22.400 -18.878  0.00  0.00    -0.286 N 
ATOM      2  N   UNL     1      34.412 -23.210 -17.271  0.00  0.00    -0.386 NA
ATOM      3  N   UNL     1      32.275 -23.791 -15.549  0.00  0.00    -0.246 NA
ATOM      4  N   UNL     1      30.758 -22.973 -17.179  0.00  0.00    -0.340 N 
ATOM      5  C   UNL     1      33.132 -22.965 -17.614  0.00  0.00    +0.214 C 
ATOM      6  C   UNL     1      34.605 -23.751 -16.052  0.00  0.00    +0.135 C 
ATOM      7  C   UNL     1      32.082 -23.250 -16.770  0.00  0.00    +0.166 C 
ATOM      8  C   UNL     1      33.555 -24.036 -15.207  0.00  0.00    +0.185 C 
ATOM      9  H   UNL     1      32.004 -22.662 -19.258  0.00  0.00    +0.155 HD
ATOM     10  H   UNL     1      30.004 -23.175 -16.579  0.00  0.00    +0.144 HD
ATOM     11  H   UNL     1      30.590 -22.578 -18.065  0.00  0.00    +0.144 HD
ENDROOT
BRANCH   1  15
ATOM     12  N   UNL     1      36.000 -19.076 -22.006  0.00  0.00    -0.312 N 
ATOM     13  C   UNL     1      35.744 -20.590 -20.387  0.00  0.00    +0.016 C 
ATOM     14  C   UNL     1      35.059 -19.828 -21.336  0.00  0.00    +0.048 C 
ATOM     15  C   UNL     1      33.618 -21.531 -19.706  0.00  0.00    +0.050 C 
ATOM     16  C   UNL     1      35.007 -21.458 -19.556  0.00  0.00    +0.016 C 
ATOM     17  C   UNL     1      33.672 -19.892 -21.498  0.00  0.00    +0.016 C 
ATOM     18  C   UNL     1      32.962 -20.759 -20.662  0.00  0.00    +0.016 C 
ATOM     19  C   UNL     1      37.125 -20.269 -20.509  0.00  0.00    +0.017 C 
ATOM     20  C   UNL     1      37.250 -19.336 -21.512  0.00  0.00    +0.062 C 
ATOM     21  H   UNL     1      35.801 -18.443 -22.732  0.00  0.00    +0.152 HD
ENDBRANCH   1  15
BRANCH   6  23
ATOM     22  N   UNL     1      38.632 -24.508 -14.977  0.00  0.00    -0.242 NA
ATOM     23  C   UNL     1      35.974 -24.009 -15.687  0.00  0.00    +0.031 C 
ATOM     24  C   UNL     1      36.298 -25.137 -14.941  0.00  0.00    +0.023 C 
ATOM     25  C   UNL     1      36.979 -23.130 -16.079  0.00  0.00    +0.023 C 
ATOM     26  C   UNL     1      37.629 -25.339 -14.615  0.00  0.00    +0.099 C 
ATOM     27  C   UNL     1      38.280 -23.422 -15.702  0.00  0.00    +0.099 C 
ENDBRANCH   6  23
TORSDOF 2
ENDMDL
MODEL 3
REMARK VINA RESULT:     -10.8      6.342     10.323
REMARK  Name = 44177328
REMARK  2 active torsions:
REMARK  status: ('A' for Active; 'I' for Inactive)
REMARK    1  A    between atoms: N_1  and  C_15
REMARK    2  A    between atoms: C_6  and  C_23
REMARK                            x       y       z     vdW  Elec       q    Type
REMARK                         _______ _______ _______ _____ _____    ______ ____
ROOT
ATOM      1  N   UNL     1      33.898 -14.065 -23.912  0.00  0.00    -0.286 N 
ATOM      2  N   UNL     1      34.782 -16.186 -23.342  0.00  0.00    -0.386 NA
ATOM      3  N   UNL     1      34.651 -16.942 -26.040  0.00  0.00    -0.246 NA
ATOM      4  N   UNL     1      33.767 -14.807 -26.580  0.00  0.00    -0.340 N 
ATOM      5  C   UNL     1      34.322 -15.351 -24.295  0.00  0.00    +0.214 C 
ATOM      6  C   UNL     1      35.176 -17.404 -23.761  0.00  0.00    +0.135 C 
ATOM      7  C   UNL     1      34.258 -15.721 -25.620  0.00  0.00    +0.166 C 
ATOM      8  C   UNL     1      35.111 -17.775 -25.086  0.00  0.00    +0.185 C 
ATOM      9  H   UNL     1      34.021 -13.383 -24.611  0.00  0.00    +0.155 HD
ATOM     10  H   UNL     1      33.719 -15.067 -27.528  0.00  0.00    +0.144 HD
ATOM     11  H   UNL     1      33.473 -13.910 -26.299  0.00  0.00    +0.144 HD
ENDROOT
BRANCH   1  15
ATOM     12  N   UNL     1      31.606 -11.887 -19.372  0.00  0.00    -0.312 N 
ATOM     13  C   UNL     1      32.146 -11.812 -21.535  0.00  0.00    +0.016 C 
ATOM     14  C   UNL     1      32.225 -12.592 -20.379  0.00  0.00    +0.048 C 
ATOM     15  C   UNL     1      33.331 -13.562 -22.720  0.00  0.00    +0.050 C 
ATOM     16  C   UNL     1      32.711 -12.307 -22.728  0.00  0.00    +0.016 C 
ATOM     17  C   UNL     1      32.841 -13.848 -20.357  0.00  0.00    +0.016 C 
ATOM     18  C   UNL     1      33.395 -14.318 -21.552  0.00  0.00    +0.016 C 
ATOM     19  C   UNL     1      31.459 -10.615 -21.186  0.00  0.00    +0.017 C 
ATOM     20  C   UNL     1      31.141 -10.691 -19.849  0.00  0.00    +0.062 C 
ATOM     21  H   UNL     1      31.513 -12.197 -18.443  0.00  0.00    +0.152 HD
ENDBRANCH   1  15
BRANCH   6  23
ATOM     22  N   UNL     1      36.612 -20.023 -20.757  0.00  0.00    -0.242 NA
ATOM     23  C   UNL     1      35.664 -18.295 -22.740  0.00  0.00    +0.031 C 
ATOM     24  C   UNL     1      34.835 -19.284 -22.221  0.00  0.00    +0.023 C 
ATOM     25  C   UNL     1      36.967 -18.170 -22.269  0.00  0.00    +0.023 C 
ATOM     26  C   UNL     1      35.352 -20.115 -21.240  0.00  0.00    +0.099 C 
ATOM     27  C   UNL     1      37.389 -19.051 -21.286  0.00  0.00    +0.099 C 
ENDBRANCH   6  23
TORSDOF 2
ENDMDL
MODEL 4
REMARK VINA RESULT:     -10.2      1.798      7.035
REMARK  Name = 44177328
REMARK  2 active torsions:
REMARK  status: ('A' for Active; 'I' for Inactive)
REMARK    1  A    between atoms: N_1  and  C_15
REMARK    2  A    between atoms: C_6  and  C_23
REMARK                            x       y       z     vdW  Elec       q    Type
REMARK                         _______ _______ _______ _____ _____    ______ ____
ROOT
ATOM      1  N   UNL     1      34.616 -24.293 -15.605  0.00  0.00    -0.286 N 
ATOM      2  N   UNL     1      34.995 -22.871 -17.459  0.00  0.00    -0.386 NA
ATOM      3  N   UNL     1      37.656 -22.543 -16.635  0.00  0.00    -0.246 NA
ATOM      4  N   UNL     1      37.246 -23.973 -14.787  0.00  0.00    -0.340 N 
ATOM      5  C   UNL     1      35.481 -23.475 -16.356  0.00  0.00    +0.214 C 
ATOM      6  C   UNL     1      35.864 -22.099 -18.142  0.00  0.00    +0.135 C 
ATOM      7  C   UNL     1      36.787 -23.315 -15.951  0.00  0.00    +0.166 C 
ATOM      8  C   UNL     1      37.171 -21.938 -17.736  0.00  0.00    +0.185 C 
ATOM      9  H   UNL     1      35.072 -25.032 -15.142  0.00  0.00    +0.155 HD
ATOM     10  H   UNL     1      38.178 -23.862 -14.493  0.00  0.00    +0.144 HD
ATOM     11  H   UNL     1      36.631 -24.543 -14.270  0.00  0.00    +0.144 HD
ENDROOT
BRANCH   1  15
ATOM     12  N   UNL     1      29.128 -24.028 -14.959  0.00  0.00    -0.312 N 
ATOM     13  C   UNL     1      31.007 -23.540 -16.057  0.00  0.00    +0.016 C 
ATOM     14  C   UNL     1      30.493 -24.209 -14.944  0.00  0.00    +0.048 C 
ATOM     15  C   UNL     1      33.220 -24.261 -15.386  0.00  0.00    +0.050 C 
ATOM     16  C   UNL     1      32.399 -23.567 -16.281  0.00  0.00    +0.016 C 
ATOM     17  C   UNL     1      31.302 -24.908 -14.043  0.00  0.00    +0.016 C 
ATOM     18  C   UNL     1      32.679 -24.920 -14.285  0.00  0.00    +0.016 C 
ATOM     19  C   UNL     1      29.905 -22.952 -16.738  0.00  0.00    +0.017 C 
ATOM     20  C   UNL     1      28.763 -23.269 -16.039  0.00  0.00    +0.062 C 
ATOM     21  H   UNL     1      28.505 -24.391 -14.289  0.00  0.00    +0.152 HD
ENDBRANCH   1  15
BRANCH   6  23
ATOM     22  N   UNL     1      34.326 -20.193 -21.598  0.00  0.00    -0.242 NA
ATOM     23  C   UNL     1      35.341 -21.451 -19.317  0.00  0.00    +0.031 C 
ATOM     24  C   UNL     1      36.195 -20.765 -20.174  0.00  0.00    +0.023 C 
ATOM     25  C   UNL     1      33.981 -21.510 -19.601  0.00  0.00    +0.023 C 
ATOM     26  C   UNL     1      35.643 -20.159 -21.291  0.00  0.00    +0.099 C 
ATOM     27  C   UNL     1      33.528 -20.870 -20.743  0.00  0.00    +0.099 C 
ENDBRANCH   6  23
TORSDOF 2
ENDMDL
MODEL 5
REMARK VINA RESULT:     -10.2      1.663      4.096
REMARK  Name = 44177328
REMARK  2 active torsions:
REMARK  status: ('A' for Active; 'I' for Inactive)
REMARK    1  A    between atoms: N_1  and  C_15
REMARK    2  A    between atoms: C_6  and  C_23
REMARK                            x       y       z     vdW  Elec       q    Type
REMARK                         _______ _______ _______ _____ _____    ______ ____
ROOT
ATOM      1  N   UNL     1      36.939 -22.068 -17.436  0.00  0.00    -0.286 N 
ATOM      2  N   UNL     1      35.037 -22.843 -16.258  0.00  0.00    -0.386 NA
ATOM      3  N   UNL     1      36.675 -24.602 -14.812  0.00  0.00    -0.246 NA
ATOM      4  N   UNL     1      38.563 -23.804 -16.008  0.00  0.00    -0.340 N 
ATOM      5  C   UNL     1      36.368 -22.911 -16.464  0.00  0.00    +0.214 C 
ATOM      6  C   UNL     1      34.540 -23.670 -15.317  0.00  0.00    +0.135 C 
ATOM      7  C   UNL     1      37.173 -23.774 -15.754  0.00  0.00    +0.166 C 
ATOM      8  C   UNL     1      35.345 -24.534 -14.607  0.00  0.00    +0.185 C 
ATOM      9  H   UNL     1      37.869 -21.811 -17.239  0.00  0.00    +0.155 HD
ATOM     10  H   UNL     1      39.143 -24.420 -15.504  0.00  0.00    +0.144 HD
ATOM     11  H   UNL     1      38.951 -23.210 -16.691  0.00  0.00    +0.144 HD
ENDROOT
BRANCH   1  15
ATOM     12  N   UNL     1      35.193 -19.780 -22.160  0.00  0.00    -0.312 N 
ATOM     13  C   UNL     1      36.690 -20.019 -20.523  0.00  0.00    +0.016 C 
ATOM     14  C   UNL     1      35.448 -20.458 -20.989  0.00  0.00    +0.048 C 
ATOM     15  C   UNL     1      36.439 -21.520 -18.638  0.00  0.00    +0.050 C 
ATOM     16  C   UNL     1      37.194 -20.562 -19.324  0.00  0.00    +0.016 C 
ATOM     17  C   UNL     1      34.684 -21.415 -20.314  0.00  0.00    +0.016 C 
ATOM     18  C   UNL     1      35.204 -21.938 -19.126  0.00  0.00    +0.016 C 
ATOM     19  C   UNL     1      37.170 -19.057 -21.455  0.00  0.00    +0.017 C 
ATOM     20  C   UNL     1      36.227 -18.931 -22.450  0.00  0.00    +0.062 C 
ATOM     21  H   UNL     1      34.383 -19.890 -22.709  0.00  0.00    +0.152 HD
ENDBRANCH   1  15
BRANCH   6  23
ATOM     22  N   UNL     1      30.357 -23.458 -14.687  0.00  0.00    -0.242 NA
ATOM     23  C   UNL     1      33.118 -23.598 -15.102  0.00  0.00    +0.031 C 
ATOM     24  C   UNL     1      32.580 -23.940 -13.867  0.00  0.00    +0.023 C 
ATOM     25  C   UNL     1      32.277 -23.184 -16.130  0.00  0.00    +0.023 C 
ATOM     26  C   UNL     1      31.206 -23.854 -13.712  0.00  0.00    +0.099 C 
ATOM     27  C   UNL     1      30.916 -23.133 -15.874  0.00  0.00    +0.099 C 
ENDBRANCH   6  23
TORSDOF 2
ENDMDL
MODEL 6
REMARK VINA RESULT:     -10.2      1.858      6.634
REMARK  Name = 44177328
REMARK  2 active torsions:
REMARK  status: ('A' for Active; 'I' for Inactive)
REMARK    1  A    between atoms: N_1  and  C_15
REMARK    2  A    between atoms: C_6  and  C_23
REMARK                            x       y       z     vdW  Elec       q    Type
REMARK                         _______ _______ _______ _____ _____    ______ ____
ROOT
ATOM      1  N   UNL     1      34.997 -24.689 -13.816  0.00  0.00    -0.286 N 
ATOM      2  N   UNL     1      34.705 -23.633 -15.914  0.00  0.00    -0.386 NA
ATOM      3  N   UNL     1      31.953 -24.158 -15.772  0.00  0.00    -0.246 NA
ATOM      4  N   UNL     1      32.277 -25.209 -13.670  0.00  0.00    -0.340 N 
ATOM      5  C   UNL     1      34.154 -24.275 -14.865  0.00  0.00    +0.214 C 
ATOM      6  C   UNL     1      33.856 -23.259 -16.892  0.00  0.00    +0.135 C 
ATOM      7  C   UNL     1      32.803 -24.533 -14.794  0.00  0.00    +0.166 C 
ATOM      8  C   UNL     1      32.504 -23.517 -16.821  0.00  0.00    +0.185 C 
ATOM      9  H   UNL     1      34.553 -24.708 -12.937  0.00  0.00    +0.155 HD
ATOM     10  H   UNL     1      31.312 -25.396 -13.614  0.00  0.00    +0.144 HD
ATOM     11  H   UNL     1      32.876 -25.493 -12.942  0.00  0.00    +0.144 HD
ENDROOT
BRANCH   1  15
ATOM     12  N   UNL     1      40.341 -26.116 -13.894  0.00  0.00    -0.312 N 
ATOM     13  C   UNL     1      38.542 -25.169 -14.813  0.00  0.00    +0.016 C 
ATOM     14  C   UNL     1      39.005 -25.853 -13.686  0.00  0.00    +0.048 C 
ATOM     15  C   UNL     1      36.353 -25.080 -13.777  0.00  0.00    +0.050 C 
ATOM     16  C   UNL     1      37.189 -24.776 -14.857  0.00  0.00    +0.016 C 
ATOM     17  C   UNL     1      38.181 -26.163 -12.599  0.00  0.00    +0.016 C 
ATOM     18  C   UNL     1      36.843 -25.763 -12.667  0.00  0.00    +0.016 C 
ATOM     19  C   UNL     1      39.644 -25.032 -15.702  0.00  0.00    +0.017 C 
ATOM     20  C   UNL     1      40.736 -25.624 -15.109  0.00  0.00    +0.062 C 
ATOM     21  H   UNL     1      40.926 -26.590 -13.261  0.00  0.00    +0.152 HD
ENDBRANCH   1  15
BRANCH   6  23
ATOM     22  N   UNL     1      35.594 -21.251 -20.192  0.00  0.00    -0.242 NA
ATOM     23  C   UNL     1      34.447 -22.576 -18.014  0.00  0.00    +0.031 C 
ATOM     24  C   UNL     1      35.815 -22.325 -18.037  0.00  0.00    +0.023 C 
ATOM     25  C   UNL     1      33.653 -22.167 -19.079  0.00  0.00    +0.023 C 
ATOM     26  C   UNL     1      36.334 -21.665 -19.138  0.00  0.00    +0.099 C 
ATOM     27  C   UNL     1      34.269 -21.514 -20.135  0.00  0.00    +0.099 C 
ENDBRANCH   6  23
TORSDOF 2
ENDMDL
MODEL 7
REMARK VINA RESULT:     -10.1      7.839     11.805
REMARK  Name = 44177328
REMARK  2 active torsions:
REMARK  status: ('A' for Active; 'I' for Inactive)
REMARK    1  A    between atoms: N_1  and  C_15
REMARK    2  A    between atoms: C_6  and  C_23
REMARK                            x       y       z     vdW  Elec       q    Type
REMARK                         _______ _______ _______ _____ _____    ______ ____
ROOT
ATOM      1  N   UNL     1      33.564 -12.369 -24.750  0.00  0.00    -0.286 N 
ATOM      2  N   UNL     1      34.330 -14.531 -24.165  0.00  0.00    -0.386 NA
ATOM      3  N   UNL     1      34.023 -15.339 -26.833  0.00  0.00    -0.246 NA
ATOM      4  N   UNL     1      33.259 -13.163 -27.389  0.00  0.00    -0.340 N 
ATOM      5  C   UNL     1      33.883 -13.689 -25.118  0.00  0.00    +0.214 C 
ATOM      6  C   UNL     1      34.621 -15.783 -24.568  0.00  0.00    +0.135 C 
ATOM      7  C   UNL     1      33.732 -14.086 -26.429  0.00  0.00    +0.166 C 
ATOM      8  C   UNL     1      34.470 -16.180 -25.879  0.00  0.00    +0.185 C 
ATOM      9  H   UNL     1      33.699 -11.713 -25.472  0.00  0.00    +0.155 HD
ATOM     10  H   UNL     1      33.149 -13.441 -28.327  0.00  0.00    +0.144 HD
ATOM     11  H   UNL     1      33.040 -12.242 -27.120  0.00  0.00    +0.144 HD
ENDROOT
BRANCH   1  15
ATOM     12  N   UNL     1      31.695 -10.375 -19.940  0.00  0.00    -0.312 N 
ATOM     13  C   UNL     1      32.333 -12.057 -21.260  0.00  0.00    +0.016 C 
ATOM     14  C   UNL     1      32.160 -10.672 -21.202  0.00  0.00    +0.048 C 
ATOM     15  C   UNL     1      33.088 -11.800 -23.548  0.00  0.00    +0.050 C 
ATOM     16  C   UNL     1      32.807 -12.630 -22.457  0.00  0.00    +0.016 C 
ATOM     17  C   UNL     1      32.439  -9.830 -22.283  0.00  0.00    +0.016 C 
ATOM     18  C   UNL     1      32.906 -10.422 -23.461  0.00  0.00    +0.016 C 
ATOM     19  C   UNL     1      31.956 -12.579 -19.991  0.00  0.00    +0.017 C 
ATOM     20  C   UNL     1      31.568 -11.521 -19.202  0.00  0.00    +0.062 C 
ATOM     21  H   UNL     1      31.483  -9.470 -19.617  0.00  0.00    +0.152 HD
ENDBRANCH   1  15
BRANCH   6  23
ATOM     22  N   UNL     1      36.018 -18.424 -21.565  0.00  0.00    -0.242 NA
ATOM     23  C   UNL     1      35.096 -16.681 -23.547  0.00  0.00    +0.031 C 
ATOM     24  C   UNL     1      35.136 -16.269 -22.219  0.00  0.00    +0.023 C 
ATOM     25  C   UNL     1      35.515 -17.963 -23.885  0.00  0.00    +0.023 C 
ATOM     26  C   UNL     1      35.601 -17.170 -21.275  0.00  0.00    +0.099 C 
ATOM     27  C   UNL     1      35.963 -18.789 -22.866  0.00  0.00    +0.099 C 
ENDBRANCH   6  23
TORSDOF 2
ENDMDL
MODEL 8
REMARK VINA RESULT:     -10.0      1.641      6.710
REMARK  Name = 44177328
REMARK  2 active torsions:
REMARK  status: ('A' for Active; 'I' for Inactive)
REMARK    1  A    between atoms: N_1  and  C_15
REMARK    2  A    between atoms: C_6  and  C_23
REMARK                            x       y       z     vdW  Elec       q    Type
REMARK                         _______ _______ _______ _____ _____    ______ ____
ROOT
ATOM      1  N   UNL     1      34.603 -24.538 -14.748  0.00  0.00    -0.286 N 
ATOM      2  N   UNL     1      34.436 -23.307 -16.763  0.00  0.00    -0.386 NA
ATOM      3  N   UNL     1      31.639 -23.420 -16.575  0.00  0.00    -0.246 NA
ATOM      4  N   UNL     1      31.839 -24.651 -14.556  0.00  0.00    -0.340 N 
ATOM      5  C   UNL     1      33.814 -23.930 -15.742  0.00  0.00    +0.214 C 
ATOM      6  C   UNL     1      33.635 -22.742 -17.688  0.00  0.00    +0.135 C 
ATOM      7  C   UNL     1      32.441 -23.985 -15.649  0.00  0.00    +0.166 C 
ATOM      8  C   UNL     1      32.262 -22.797 -17.595  0.00  0.00    +0.185 C 
ATOM      9  H   UNL     1      34.179 -24.551 -13.859  0.00  0.00    +0.155 HD
ATOM     10  H   UNL     1      30.858 -24.694 -14.485  0.00  0.00    +0.144 HD
ATOM     11  H   UNL     1      32.402 -25.072 -13.867  0.00  0.00    +0.144 HD
ENDROOT
BRANCH   1  15
ATOM     12  N   UNL     1      39.704 -26.679 -14.702  0.00  0.00    -0.312 N 
ATOM     13  C   UNL     1      38.210 -25.137 -14.096  0.00  0.00    +0.016 C 
ATOM     14  C   UNL     1      38.385 -26.307 -14.838  0.00  0.00    +0.048 C 
ATOM     15  C   UNL     1      35.885 -25.132 -14.775  0.00  0.00    +0.050 C 
ATOM     16  C   UNL     1      36.934 -24.539 -14.065  0.00  0.00    +0.016 C 
ATOM     17  C   UNL     1      37.345 -26.911 -15.552  0.00  0.00    +0.016 C 
ATOM     18  C   UNL     1      36.088 -26.299 -15.507  0.00  0.00    +0.016 C 
ATOM     19  C   UNL     1      39.468 -24.820 -13.512  0.00  0.00    +0.017 C 
ATOM     20  C   UNL     1      40.367 -25.786 -13.903  0.00  0.00    +0.062 C 
ATOM     21  H   UNL     1      40.112 -27.470 -15.121  0.00  0.00    +0.152 HD
ENDBRANCH   1  15
BRANCH   6  23
ATOM     22  N   UNL     1      35.599 -20.797 -20.898  0.00  0.00    -0.242 NA
ATOM     23  C   UNL     1      34.303 -22.080 -18.780  0.00  0.00    +0.031 C 
ATOM     24  C   UNL     1      33.564 -21.387 -19.733  0.00  0.00    +0.023 C 
ATOM     25  C   UNL     1      35.689 -22.131 -18.884  0.00  0.00    +0.023 C 
ATOM     26  C   UNL     1      34.253 -20.769 -20.763  0.00  0.00    +0.099 C 
ATOM     27  C   UNL     1      36.283 -21.479 -19.952  0.00  0.00    +0.099 C 
ENDBRANCH   6  23
TORSDOF 2
ENDMDL
MODEL 9
REMARK VINA RESULT:      -9.9      1.908      6.543
REMARK  Name = 44177328
REMARK  2 active torsions:
REMARK  status: ('A' for Active; 'I' for Inactive)
REMARK    1  A    between atoms: N_1  and  C_15
REMARK    2  A    between atoms: C_6  and  C_23
REMARK                            x       y       z     vdW  Elec       q    Type
REMARK                         _______ _______ _______ _____ _____    ______ ____
ROOT
ATOM      1  N   UNL     1      33.291 -24.908 -14.408  0.00  0.00    -0.286 N 
ATOM      2  N   UNL     1      34.597 -23.666 -15.942  0.00  0.00    -0.386 NA
ATOM      3  N   UNL     1      36.684 -23.588 -14.070  0.00  0.00    -0.246 NA
ATOM      4  N   UNL     1      35.351 -24.835 -12.554  0.00  0.00    -0.340 N 
ATOM      5  C   UNL     1      34.490 -24.246 -14.731  0.00  0.00    +0.214 C 
ATOM      6  C   UNL     1      35.766 -23.046 -16.202  0.00  0.00    +0.135 C 
ATOM      7  C   UNL     1      35.515 -24.209 -13.811  0.00  0.00    +0.166 C 
ATOM      8  C   UNL     1      36.790 -23.008 -15.281  0.00  0.00    +0.185 C 
ATOM      9  H   UNL     1      33.409 -25.661 -13.786  0.00  0.00    +0.155 HD
ATOM     10  H   UNL     1      36.080 -24.812 -11.893  0.00  0.00    +0.144 HD
ATOM     11  H   UNL     1      34.507 -25.295 -12.340  0.00  0.00    +0.144 HD
ENDROOT
BRANCH   1  15
ATOM     12  N   UNL     1      28.118 -23.904 -16.094  0.00  0.00    -0.312 N 
ATOM     13  C   UNL     1      30.300 -23.438 -16.048  0.00  0.00    +0.016 C 
ATOM     14  C   UNL     1      29.323 -24.314 -15.568  0.00  0.00    +0.048 C 
ATOM     15  C   UNL     1      31.950 -24.702 -14.803  0.00  0.00    +0.050 C 
ATOM     16  C   UNL     1      31.639 -23.638 -15.657  0.00  0.00    +0.016 C 
ATOM     17  C   UNL     1      29.620 -25.383 -14.716  0.00  0.00    +0.016 C 
ATOM     18  C   UNL     1      30.955 -25.560 -14.341  0.00  0.00    +0.016 C 
ATOM     19  C   UNL     1      29.640 -22.489 -16.878  0.00  0.00    +0.017 C 
ATOM     20  C   UNL     1      28.299 -22.801 -16.886  0.00  0.00    +0.062 C 
ATOM     21  H   UNL     1      27.252 -24.339 -15.924  0.00  0.00    +0.152 HD
ENDBRANCH   1  15
BRANCH   6  23
ATOM     22  N   UNL     1      36.090 -21.215 -20.007  0.00  0.00    -0.242 NA
ATOM     23  C   UNL     1      35.875 -22.423 -17.496  0.00  0.00    +0.031 C 
ATOM     24  C   UNL     1      34.832 -22.522 -18.410  0.00  0.00    +0.023 C 
ATOM     25  C   UNL     1      37.026 -21.719 -17.836  0.00  0.00    +0.023 C 
ATOM     26  C   UNL     1      34.988 -21.906 -19.640  0.00  0.00    +0.099 C 
ATOM     27  C   UNL     1      37.083 -21.139 -19.093  0.00  0.00    +0.099 C 
ENDBRANCH   6  23
TORSDOF 2
ENDMDL
