MODEL 1
REMARK VINA RESULT:     -11.3      0.000      0.000
REMARK  Name = 4449
REMARK  10 active torsions:
REMARK  status: ('A' for Active; 'I' for Inactive)
REMARK    1  A    between atoms: N_2  and  C_9
REMARK    2  A    between atoms: N_3  and  C_26
REMARK    3  A    between atoms: C_6  and  C_7
REMARK    4  A    between atoms: C_9  and  C_10
REMARK    5  A    between atoms: C_10  and  C_11
REMARK    6  A    between atoms: C_11  and  N_12
REMARK    7  A    between atoms: N_13  and  C_20
REMARK    8  A    between atoms: C_26  and  C_27
REMARK    9  A    between atoms: C_27  and  O_28
REMARK   10  A    between atoms: O_28  and  C_29
REMARK                            x       y       z     vdW  Elec       q    Type
REMARK                         _______ _______ _______ _____ _____    ______ ____
ROOT
ATOM      1  O   UNL     1      35.355 -16.499 -20.819  0.00  0.00    -0.245 OA
ATOM      2  N   UNL     1      34.358 -14.820 -22.133  0.00  0.00    -0.201 N 
ATOM      3  N   UNL     1      35.275 -16.546 -23.159  0.00  0.00    -0.263 N 
ATOM      4  N   UNL     1      34.186 -14.621 -23.477  0.00  0.00    -0.152 NA
ATOM      5  C   UNL     1      35.041 -16.024 -21.900  0.00  0.00    +0.348 A 
ATOM      6  C   UNL     1      34.744 -15.659 -24.028  0.00  0.00    +0.144 A 
ENDROOT
BRANCH   6   7
ATOM      7  C   UNL     1      34.798 -15.883 -25.501  0.00  0.00    +0.066 C 
ATOM      8  C   UNL     1      33.684 -15.126 -26.195  0.00  0.00    +0.008 C 
ENDBRANCH   6   7
BRANCH   2   9
ATOM      9  C   UNL     1      33.873 -13.876 -21.164  0.00  0.00    +0.130 C 
BRANCH   9  10
ATOM     10  C   UNL     1      32.378 -13.595 -21.318  0.00  0.00    +0.004 C 
BRANCH  10  11
ATOM     11  C   UNL     1      31.876 -12.388 -20.521  0.00  0.00    -0.075 C 
BRANCH  11  12
ATOM     12  N   UNL     1      32.385 -11.127 -21.059  0.00  0.00    +0.389 N 
ATOM     13  N   UNL     1      32.201  -8.505 -22.175  0.00  0.00    -0.312 N 
ATOM     14  C   UNL     1      31.940  -9.998 -20.234  0.00  0.00    -0.055 C 
ATOM     15  C   UNL     1      31.939 -10.940 -22.445  0.00  0.00    -0.055 C 
ATOM     16  C   UNL     1      32.513  -8.676 -20.754  0.00  0.00    +0.068 C 
ATOM     17  C   UNL     1      32.513  -9.651 -23.038  0.00  0.00    +0.068 C 
ATOM     18  H   UNL     1      33.405 -11.164 -21.043  0.00  0.00    -0.080 HD
BRANCH  13  20
ATOM     19 CL   UNL     1      34.520  -5.207 -25.334  0.00  0.00    -0.082 Cl
ATOM     20  C   UNL     1      32.236  -7.226 -22.745  0.00  0.00    +0.049 C 
ATOM     21  C   UNL     1      33.244  -6.893 -23.649  0.00  0.00    +0.026 C 
ATOM     22  C   UNL     1      31.259  -6.288 -22.411  0.00  0.00    +0.015 C 
ATOM     23  C   UNL     1      33.275  -5.621 -24.219  0.00  0.00    +0.059 C 
ATOM     24  C   UNL     1      31.291  -5.016 -22.981  0.00  0.00    +0.002 C 
ATOM     25  C   UNL     1      32.299  -4.682 -23.886  0.00  0.00    +0.011 C 
ENDBRANCH  13  20
ENDBRANCH  11  12
ENDBRANCH  10  11
ENDBRANCH   9  10
ENDBRANCH   2   9
BRANCH   3  26
ATOM     26  C   UNL     1      35.955 -17.794 -23.451  0.00  0.00    +0.159 C 
BRANCH  26  27
ATOM     27  C   UNL     1      35.197 -18.985 -22.893  0.00  0.00    +0.230 C 
BRANCH  27  28
ATOM     28  O   UNL     1      35.956 -19.580 -21.848  0.00  0.00    -0.473 OA
BRANCH  28  29
ATOM     29  C   UNL     1      35.279 -20.394 -20.978  0.00  0.00    +0.139 C 
ATOM     30  C   UNL     1      33.890 -20.306 -20.879  0.00  0.00    +0.037 C 
ATOM     31  C   UNL     1      35.977 -21.309 -20.193  0.00  0.00    +0.037 C 
ATOM     32  C   UNL     1      33.200 -21.133 -19.994  0.00  0.00    +0.003 C 
ATOM     33  C   UNL     1      35.287 -22.138 -19.307  0.00  0.00    +0.003 C 
ATOM     34  C   UNL     1      33.899 -22.050 -19.208  0.00  0.00    +0.000 C 
ENDBRANCH  28  29
ENDBRANCH  27  28
ENDBRANCH  26  27
ENDBRANCH   3  26
TORSDOF 10
ENDMDL
MODEL 2
REMARK VINA RESULT:     -11.1      4.067     11.753
REMARK  Name = 4449
REMARK  10 active torsions:
REMARK  status: ('A' for Active; 'I' for Inactive)
REMARK    1  A    between atoms: N_2  and  C_9
REMARK    2  A    between atoms: N_3  and  C_26
REMARK    3  A    between atoms: C_6  and  C_7
REMARK    4  A    between atoms: C_9  and  C_10
REMARK    5  A    between atoms: C_10  and  C_11
REMARK    6  A    between atoms: C_11  and  N_12
REMARK    7  A    between atoms: N_13  and  C_20
REMARK    8  A    between atoms: C_26  and  C_27
REMARK    9  A    between atoms: C_27  and  O_28
REMARK   10  A    between atoms: O_28  and  C_29
REMARK                            x       y       z     vdW  Elec       q    Type
REMARK                         _______ _______ _______ _____ _____    ______ ____
ROOT
ATOM      1  O   UNL     1      33.910 -10.014 -24.356  0.00  0.00    -0.245 OA
ATOM      2  N   UNL     1      33.501 -12.149 -23.452  0.00  0.00    -0.201 N 
ATOM      3  N   UNL     1      32.423 -10.425 -22.593  0.00  0.00    -0.263 N 
ATOM      4  N   UNL     1      32.703 -12.637 -22.451  0.00  0.00    -0.152 NA
ATOM      5  C   UNL     1      33.347 -10.759 -23.566  0.00  0.00    +0.348 A 
ATOM      6  C   UNL     1      32.099 -11.585 -21.983  0.00  0.00    +0.144 A 
ENDROOT
BRANCH   6   7
ATOM      7  C   UNL     1      31.112 -11.629 -20.866  0.00  0.00    +0.066 C 
ATOM      8  C   UNL     1      31.818 -11.821 -19.539  0.00  0.00    +0.008 C 
ENDBRANCH   6   7
BRANCH   2   9
ATOM      9  C   UNL     1      34.346 -13.013 -24.230  0.00  0.00    +0.130 C 
BRANCH   9  10
ATOM     10  C   UNL     1      33.913 -14.477 -24.156  0.00  0.00    +0.004 C 
BRANCH  10  11
ATOM     11  C   UNL     1      34.798 -15.439 -24.954  0.00  0.00    -0.075 C 
BRANCH  11  12
ATOM     12  N   UNL     1      35.389 -16.472 -24.104  0.00  0.00    +0.389 N 
ATOM     13  N   UNL     1      35.379 -18.618 -22.220  0.00  0.00    -0.312 N 
ATOM     14  C   UNL     1      34.902 -17.800 -24.494  0.00  0.00    -0.055 C 
ATOM     15  C   UNL     1      35.074 -16.219 -22.693  0.00  0.00    -0.055 C 
ATOM     16  C   UNL     1      35.556 -18.896 -23.648  0.00  0.00    +0.068 C 
ATOM     17  C   UNL     1      35.735 -17.262 -21.787  0.00  0.00    +0.068 C 
ATOM     18  H   UNL     1      36.401 -16.443 -24.227  0.00  0.00    -0.080 HD
BRANCH  13  20
ATOM     19 CL   UNL     1      33.077 -22.156 -19.319  0.00  0.00    -0.082 Cl
ATOM     20  C   UNL     1      35.501 -19.658 -21.290  0.00  0.00    +0.049 C 
ATOM     21  C   UNL     1      34.361 -20.311 -20.822  0.00  0.00    +0.026 C 
ATOM     22  C   UNL     1      36.762 -20.042 -20.836  0.00  0.00    +0.015 C 
ATOM     23  C   UNL     1      34.483 -21.349 -19.899  0.00  0.00    +0.059 C 
ATOM     24  C   UNL     1      36.884 -21.080 -19.913  0.00  0.00    +0.002 C 
ATOM     25  C   UNL     1      35.745 -21.735 -19.444  0.00  0.00    +0.011 C 
ENDBRANCH  13  20
ENDBRANCH  11  12
ENDBRANCH  10  11
ENDBRANCH   9  10
ENDBRANCH   2   9
BRANCH   3  26
ATOM     26  C   UNL     1      31.926  -9.091 -22.313  0.00  0.00    +0.159 C 
BRANCH  26  27
ATOM     27  C   UNL     1      32.870  -8.324 -21.405  0.00  0.00    +0.230 C 
BRANCH  27  28
ATOM     28  O   UNL     1      32.635  -6.929 -21.550  0.00  0.00    -0.473 OA
BRANCH  28  29
ATOM     29  C   UNL     1      32.994  -6.363 -22.745  0.00  0.00    +0.139 C 
ATOM     30  C   UNL     1      32.140  -5.455 -23.371  0.00  0.00    +0.037 C 
ATOM     31  C   UNL     1      34.212  -6.694 -23.336  0.00  0.00    +0.037 C 
ATOM     32  C   UNL     1      32.504  -4.878 -24.587  0.00  0.00    +0.003 C 
ATOM     33  C   UNL     1      34.578  -6.118 -24.552  0.00  0.00    +0.003 C 
ATOM     34  C   UNL     1      33.725  -5.210 -25.178  0.00  0.00    +0.000 C 
ENDBRANCH  28  29
ENDBRANCH  27  28
ENDBRANCH  26  27
ENDBRANCH   3  26
TORSDOF 10
ENDMDL
MODEL 3
REMARK VINA RESULT:     -11.1      4.374     10.615
REMARK  Name = 4449
REMARK  10 active torsions:
REMARK  status: ('A' for Active; 'I' for Inactive)
REMARK    1  A    between atoms: N_2  and  C_9
REMARK    2  A    between atoms: N_3  and  C_26
REMARK    3  A    between atoms: C_6  and  C_7
REMARK    4  A    between atoms: C_9  and  C_10
REMARK    5  A    between atoms: C_10  and  C_11
REMARK    6  A    between atoms: C_11  and  N_12
REMARK    7  A    between atoms: N_13  and  C_20
REMARK    8  A    between atoms: C_26  and  C_27
REMARK    9  A    between atoms: C_27  and  O_28
REMARK   10  A    between atoms: O_28  and  C_29
REMARK                            x       y       z     vdW  Elec       q    Type
REMARK                         _______ _______ _______ _____ _____    ______ ____
ROOT
ATOM      1  O   UNL     1      34.061 -11.975 -26.448  0.00  0.00    -0.245 OA
ATOM      2  N   UNL     1      33.674 -13.947 -25.222  0.00  0.00    -0.201 N 
ATOM      3  N   UNL     1      33.948 -12.059 -24.110  0.00  0.00    -0.263 N 
ATOM      4  N   UNL     1      33.566 -14.250 -23.890  0.00  0.00    -0.152 NA
ATOM      5  C   UNL     1      33.915 -12.575 -25.393  0.00  0.00    +0.348 A 
ATOM      6  C   UNL     1      33.738 -13.109 -23.288  0.00  0.00    +0.144 A 
ENDROOT
BRANCH   6   7
ATOM      7  C   UNL     1      33.700 -12.944 -21.807  0.00  0.00    +0.066 C 
ATOM      8  C   UNL     1      32.837 -14.016 -21.174  0.00  0.00    +0.008 C 
ENDBRANCH   6   7
BRANCH   2   9
ATOM      9  C   UNL     1      33.543 -14.956 -26.237  0.00  0.00    +0.130 C 
BRANCH   9  10
ATOM     10  C   UNL     1      33.997 -16.333 -25.754  0.00  0.00    +0.004 C 
BRANCH  10  11
ATOM     11  C   UNL     1      35.452 -16.389 -25.281  0.00  0.00    -0.075 C 
BRANCH  11  12
ATOM     12  N   UNL     1      35.682 -17.492 -24.348  0.00  0.00    +0.389 N 
ATOM     13  N   UNL     1      35.043 -19.274 -22.210  0.00  0.00    -0.312 N 
ATOM     14  C   UNL     1      34.671 -18.540 -24.532  0.00  0.00    -0.055 C 
ATOM     15  C   UNL     1      35.655 -17.009 -22.962  0.00  0.00    -0.055 C 
ATOM     16  C   UNL     1      34.933 -19.726 -23.599  0.00  0.00    +0.068 C 
ATOM     17  C   UNL     1      35.951 -18.144 -21.979  0.00  0.00    +0.068 C 
ATOM     18  H   UNL     1      36.603 -17.886 -24.542  0.00  0.00    -0.080 HD
BRANCH  13  20
ATOM     19 CL   UNL     1      37.080 -22.012 -18.391  0.00  0.00    -0.082 Cl
ATOM     20  C   UNL     1      34.850 -20.187 -21.165  0.00  0.00    +0.049 C 
ATOM     21  C   UNL     1      35.934 -20.597 -20.391  0.00  0.00    +0.026 C 
ATOM     22  C   UNL     1      33.573 -20.679 -20.897  0.00  0.00    +0.015 C 
ATOM     23  C   UNL     1      35.742 -21.503 -19.348  0.00  0.00    +0.059 C 
ATOM     24  C   UNL     1      33.381 -21.585 -19.854  0.00  0.00    +0.002 C 
ATOM     25  C   UNL     1      34.465 -21.996 -19.078  0.00  0.00    +0.011 C 
ENDBRANCH  13  20
ENDBRANCH  11  12
ENDBRANCH  10  11
ENDBRANCH   9  10
ENDBRANCH   2   9
BRANCH   3  26
ATOM     26  C   UNL     1      34.166 -10.669 -23.756  0.00  0.00    +0.159 C 
BRANCH  26  27
ATOM     27  C   UNL     1      32.881  -9.866 -23.831  0.00  0.00    +0.230 C 
BRANCH  27  28
ATOM     28  O   UNL     1      32.731  -9.102 -22.641  0.00  0.00    -0.473 OA
BRANCH  28  29
ATOM     29  C   UNL     1      32.130  -9.725 -21.579  0.00  0.00    +0.139 C 
ATOM     30  C   UNL     1      32.531  -9.425 -20.277  0.00  0.00    +0.037 C 
ATOM     31  C   UNL     1      31.116 -10.656 -21.799  0.00  0.00    +0.037 C 
ATOM     32  C   UNL     1      31.919 -10.058 -19.195  0.00  0.00    +0.003 C 
ATOM     33  C   UNL     1      30.503 -11.289 -20.718  0.00  0.00    +0.003 C 
ATOM     34  C   UNL     1      30.904 -10.990 -19.416  0.00  0.00    +0.000 C 
ENDBRANCH  28  29
ENDBRANCH  27  28
ENDBRANCH  26  27
ENDBRANCH   3  26
TORSDOF 10
ENDMDL
MODEL 4
REMARK VINA RESULT:     -10.8      4.088     11.586
REMARK  Name = 4449
REMARK  10 active torsions:
REMARK  status: ('A' for Active; 'I' for Inactive)
REMARK    1  A    between atoms: N_2  and  C_9
REMARK    2  A    between atoms: N_3  and  C_26
REMARK    3  A    between atoms: C_6  and  C_7
REMARK    4  A    between atoms: C_9  and  C_10
REMARK    5  A    between atoms: C_10  and  C_11
REMARK    6  A    between atoms: C_11  and  N_12
REMARK    7  A    between atoms: N_13  and  C_20
REMARK    8  A    between atoms: C_26  and  C_27
REMARK    9  A    between atoms: C_27  and  O_28
REMARK   10  A    between atoms: O_28  and  C_29
REMARK                            x       y       z     vdW  Elec       q    Type
REMARK                         _______ _______ _______ _____ _____    ______ ____
ROOT
ATOM      1  O   UNL     1      34.271 -11.949 -26.400  0.00  0.00    -0.245 OA
ATOM      2  N   UNL     1      33.563 -13.864 -25.227  0.00  0.00    -0.201 N 
ATOM      3  N   UNL     1      33.783 -11.972 -24.109  0.00  0.00    -0.263 N 
ATOM      4  N   UNL     1      33.226 -14.129 -23.926  0.00  0.00    -0.152 NA
ATOM      5  C   UNL     1      33.920 -12.514 -25.374  0.00  0.00    +0.348 A 
ATOM      6  C   UNL     1      33.375 -12.988 -23.318  0.00  0.00    +0.144 A 
ENDROOT
BRANCH   6   7
ATOM      7  C   UNL     1      33.114 -12.788 -21.864  0.00  0.00    +0.066 C 
ATOM      8  C   UNL     1      32.839 -14.114 -21.185  0.00  0.00    +0.008 C 
ENDBRANCH   6   7
BRANCH   2   9
ATOM      9  C   UNL     1      33.528 -14.885 -26.238  0.00  0.00    +0.130 C 
BRANCH   9  10
ATOM     10  C   UNL     1      34.111 -16.211 -25.750  0.00  0.00    +0.004 C 
BRANCH  10  11
ATOM     11  C   UNL     1      35.444 -16.080 -25.007  0.00  0.00    -0.075 C 
BRANCH  11  12
ATOM     12  N   UNL     1      35.691 -17.220 -24.124  0.00  0.00    +0.389 N 
ATOM     13  N   UNL     1      35.061 -19.141 -22.108  0.00  0.00    -0.312 N 
ATOM     14  C   UNL     1      34.738 -18.301 -24.400  0.00  0.00    -0.055 C 
ATOM     15  C   UNL     1      35.593 -16.814 -22.717  0.00  0.00    -0.055 C 
ATOM     16  C   UNL     1      35.022 -19.523 -23.522  0.00  0.00    +0.068 C 
ATOM     17  C   UNL     1      35.906 -17.985 -21.784  0.00  0.00    +0.068 C 
ATOM     18  H   UNL     1      36.636 -17.561 -24.304  0.00  0.00    -0.080 HD
BRANCH  13  20
ATOM     19 CL   UNL     1      37.103 -22.039 -18.411  0.00  0.00    -0.082 Cl
ATOM     20  C   UNL     1      34.875 -20.116 -21.120  0.00  0.00    +0.049 C 
ATOM     21  C   UNL     1      35.956 -20.542 -20.349  0.00  0.00    +0.026 C 
ATOM     22  C   UNL     1      33.607 -20.656 -20.904  0.00  0.00    +0.015 C 
ATOM     23  C   UNL     1      35.769 -21.510 -19.362  0.00  0.00    +0.059 C 
ATOM     24  C   UNL     1      33.420 -21.623 -19.917  0.00  0.00    +0.002 C 
ATOM     25  C   UNL     1      34.501 -22.051 -19.146  0.00  0.00    +0.011 C 
ENDBRANCH  13  20
ENDBRANCH  11  12
ENDBRANCH  10  11
ENDBRANCH   9  10
ENDBRANCH   2   9
BRANCH   3  26
ATOM     26  C   UNL     1      34.035 -10.592 -23.741  0.00  0.00    +0.159 C 
BRANCH  26  27
ATOM     27  C   UNL     1      32.749  -9.789 -23.674  0.00  0.00    +0.230 C 
BRANCH  27  28
ATOM     28  O   UNL     1      32.912  -8.713 -22.760  0.00  0.00    -0.473 OA
BRANCH  28  29
ATOM     29  C   UNL     1      32.801  -7.446 -23.270  0.00  0.00    +0.139 C 
ATOM     30  C   UNL     1      33.881  -6.866 -23.937  0.00  0.00    +0.037 C 
ATOM     31  C   UNL     1      31.610  -6.736 -23.123  0.00  0.00    +0.037 C 
ATOM     32  C   UNL     1      33.769  -5.577 -24.457  0.00  0.00    +0.003 C 
ATOM     33  C   UNL     1      31.497  -5.447 -23.644  0.00  0.00    +0.003 C 
ATOM     34  C   UNL     1      32.576  -4.867 -24.310  0.00  0.00    +0.000 C 
ENDBRANCH  28  29
ENDBRANCH  27  28
ENDBRANCH  26  27
ENDBRANCH   3  26
TORSDOF 10
ENDMDL
MODEL 5
REMARK VINA RESULT:     -10.8      1.495      2.149
REMARK  Name = 4449
REMARK  10 active torsions:
REMARK  status: ('A' for Active; 'I' for Inactive)
REMARK    1  A    between atoms: N_2  and  C_9
REMARK    2  A    between atoms: N_3  and  C_26
REMARK    3  A    between atoms: C_6  and  C_7
REMARK    4  A    between atoms: C_9  and  C_10
REMARK    5  A    between atoms: C_10  and  C_11
REMARK    6  A    between atoms: C_11  and  N_12
REMARK    7  A    between atoms: N_13  and  C_20
REMARK    8  A    between atoms: C_26  and  C_27
REMARK    9  A    between atoms: C_27  and  O_28
REMARK   10  A    between atoms: O_28  and  C_29
REMARK                            x       y       z     vdW  Elec       q    Type
REMARK                         _______ _______ _______ _____ _____    ______ ____
ROOT
ATOM      1  O   UNL     1      34.511 -15.214 -20.844  0.00  0.00    -0.245 OA
ATOM      2  N   UNL     1      33.123 -13.514 -21.696  0.00  0.00    -0.201 N 
ATOM      3  N   UNL     1      34.457 -14.578 -23.098  0.00  0.00    -0.263 N 
ATOM      4  N   UNL     1      32.913 -12.971 -22.936  0.00  0.00    -0.152 NA
ATOM      5  C   UNL     1      34.091 -14.529 -21.765  0.00  0.00    +0.348 A 
ATOM      6  C   UNL     1      33.721 -13.630 -23.714  0.00  0.00    +0.144 A 
ENDROOT
BRANCH   6   7
ATOM      7  C   UNL     1      33.837 -13.383 -25.181  0.00  0.00    +0.066 C 
ATOM      8  C   UNL     1      34.191 -11.935 -25.450  0.00  0.00    +0.008 C 
ENDBRANCH   6   7
BRANCH   2   9
ATOM      9  C   UNL     1      32.408 -13.051 -20.539  0.00  0.00    +0.130 C 
BRANCH   9  10
ATOM     10  C   UNL     1      31.421 -11.933 -20.871  0.00  0.00    +0.004 C 
BRANCH  10  11
ATOM     11  C   UNL     1      31.739 -10.589 -20.207  0.00  0.00    -0.075 C 
BRANCH  11  12
ATOM     12  N   UNL     1      32.436  -9.681 -21.118  0.00  0.00    +0.389 N 
ATOM     13  N   UNL     1      32.712  -7.421 -22.841  0.00  0.00    -0.312 N 
ATOM     14  C   UNL     1      32.473  -8.324 -20.562  0.00  0.00    -0.055 C 
ATOM     15  C   UNL     1      31.782  -9.666 -22.432  0.00  0.00    -0.055 C 
ATOM     16  C   UNL     1      33.249  -7.375 -21.479  0.00  0.00    +0.068 C 
ATOM     17  C   UNL     1      32.537  -8.763 -23.410  0.00  0.00    +0.068 C 
ATOM     18  H   UNL     1      33.393 -10.017 -21.229  0.00  0.00    -0.080 HD
BRANCH  13  20
ATOM     19 CL   UNL     1      35.732  -5.350 -26.422  0.00  0.00    -0.082 Cl
ATOM     20  C   UNL     1      32.959  -6.361 -23.722  0.00  0.00    +0.049 C 
ATOM     21  C   UNL     1      34.091  -6.381 -24.536  0.00  0.00    +0.026 C 
ATOM     22  C   UNL     1      32.069  -5.289 -23.789  0.00  0.00    +0.015 C 
ATOM     23  C   UNL     1      34.334  -5.328 -25.417  0.00  0.00    +0.059 C 
ATOM     24  C   UNL     1      32.313  -4.235 -24.669  0.00  0.00    +0.002 C 
ATOM     25  C   UNL     1      33.445  -4.254 -25.484  0.00  0.00    +0.011 C 
ENDBRANCH  13  20
ENDBRANCH  11  12
ENDBRANCH  10  11
ENDBRANCH   9  10
ENDBRANCH   2   9
BRANCH   3  26
ATOM     26  C   UNL     1      35.436 -15.477 -23.679  0.00  0.00    +0.159 C 
BRANCH  26  27
ATOM     27  C   UNL     1      34.867 -16.871 -23.871  0.00  0.00    +0.230 C 
BRANCH  27  28
ATOM     28  O   UNL     1      35.925 -17.821 -23.837  0.00  0.00    -0.473 OA
BRANCH  28  29
ATOM     29  C   UNL     1      35.954 -18.675 -22.766  0.00  0.00    +0.139 C 
ATOM     30  C   UNL     1      34.825 -19.427 -22.442  0.00  0.00    +0.037 C 
ATOM     31  C   UNL     1      37.113 -18.793 -22.000  0.00  0.00    +0.037 C 
ATOM     32  C   UNL     1      34.855 -20.296 -21.352  0.00  0.00    +0.003 C 
ATOM     33  C   UNL     1      37.144 -19.663 -20.910  0.00  0.00    +0.003 C 
ATOM     34  C   UNL     1      36.015 -20.414 -20.586  0.00  0.00    +0.000 C 
ENDBRANCH  28  29
ENDBRANCH  27  28
ENDBRANCH  26  27
ENDBRANCH   3  26
TORSDOF 10
ENDMDL
MODEL 6
REMARK VINA RESULT:     -10.7      3.915      7.268
REMARK  Name = 4449
REMARK  10 active torsions:
REMARK  status: ('A' for Active; 'I' for Inactive)
REMARK    1  A    between atoms: N_2  and  C_9
REMARK    2  A    between atoms: N_3  and  C_26
REMARK    3  A    between atoms: C_6  and  C_7
REMARK    4  A    between atoms: C_9  and  C_10
REMARK    5  A    between atoms: C_10  and  C_11
REMARK    6  A    between atoms: C_11  and  N_12
REMARK    7  A    between atoms: N_13  and  C_20
REMARK    8  A    between atoms: C_26  and  C_27
REMARK    9  A    between atoms: C_27  and  O_28
REMARK   10  A    between atoms: O_28  and  C_29
REMARK                            x       y       z     vdW  Elec       q    Type
REMARK                         _______ _______ _______ _____ _____    ______ ____
ROOT
ATOM      1  O   UNL     1      32.892 -22.022 -20.272  0.00  0.00    -0.245 OA
ATOM      2  N   UNL     1      34.960 -20.903 -20.392  0.00  0.00    -0.201 N 
ATOM      3  N   UNL     1      34.681 -22.422 -18.815  0.00  0.00    -0.263 N 
ATOM      4  N   UNL     1      36.128 -20.955 -19.680  0.00  0.00    -0.152 NA
ATOM      5  C   UNL     1      34.028 -21.815 -19.872  0.00  0.00    +0.348 A 
ATOM      6  C   UNL     1      35.907 -21.857 -18.769  0.00  0.00    +0.144 A 
ENDROOT
BRANCH   6   7
ATOM      7  C   UNL     1      36.915 -22.263 -17.748  0.00  0.00    +0.066 C 
ATOM      8  C   UNL     1      37.686 -21.057 -17.253  0.00  0.00    +0.008 C 
ENDBRANCH   6   7
BRANCH   2   9
ATOM      9  C   UNL     1      34.796 -20.009 -21.506  0.00  0.00    +0.130 C 
BRANCH   9  10
ATOM     10  C   UNL     1      35.970 -19.043 -21.659  0.00  0.00    +0.004 C 
BRANCH  10  11
ATOM     11  C   UNL     1      36.090 -18.407 -23.047  0.00  0.00    -0.075 C 
BRANCH  11  12
ATOM     12  N   UNL     1      35.870 -16.962 -23.007  0.00  0.00    +0.389 N 
ATOM     13  N   UNL     1      34.326 -14.561 -22.918  0.00  0.00    -0.312 N 
ATOM     14  C   UNL     1      35.154 -16.584 -21.783  0.00  0.00    -0.055 C 
ATOM     15  C   UNL     1      35.113 -16.523 -24.185  0.00  0.00    -0.055 C 
ATOM     16  C   UNL     1      34.966 -15.067 -21.701  0.00  0.00    +0.068 C 
ATOM     17  C   UNL     1      34.925 -15.004 -24.183  0.00  0.00    +0.068 C 
ATOM     18  H   UNL     1      36.781 -16.502 -23.010  0.00  0.00    -0.080 HD
BRANCH  13  20
ATOM     19 CL   UNL     1      30.789 -11.533 -20.785  0.00  0.00    -0.082 Cl
ATOM     20  C   UNL     1      33.677 -13.321 -22.898  0.00  0.00    +0.049 C 
ATOM     21  C   UNL     1      32.673 -13.075 -21.962  0.00  0.00    +0.026 C 
ATOM     22  C   UNL     1      34.039 -12.330 -23.811  0.00  0.00    +0.015 C 
ATOM     23  C   UNL     1      32.030 -11.838 -21.939  0.00  0.00    +0.059 C 
ATOM     24  C   UNL     1      33.395 -11.093 -23.788  0.00  0.00    +0.002 C 
ATOM     25  C   UNL     1      32.391 -10.846 -22.851  0.00  0.00    +0.011 C 
ENDBRANCH  13  20
ENDBRANCH  11  12
ENDBRANCH  10  11
ENDBRANCH   9  10
ENDBRANCH   2   9
BRANCH   3  26
ATOM     26  C   UNL     1      34.132 -23.451 -17.952  0.00  0.00    +0.159 C 
BRANCH  26  27
ATOM     27  C   UNL     1      33.374 -22.851 -16.782  0.00  0.00    +0.230 C 
BRANCH  27  28
ATOM     28  O   UNL     1      32.748 -23.892 -16.042  0.00  0.00    -0.473 OA
BRANCH  28  29
ATOM     29  C   UNL     1      31.378 -23.895 -16.019  0.00  0.00    +0.139 C 
ATOM     30  C   UNL     1      30.668 -22.849 -16.609  0.00  0.00    +0.037 C 
ATOM     31  C   UNL     1      30.693 -24.943 -15.406  0.00  0.00    +0.037 C 
ATOM     32  C   UNL     1      29.274 -22.851 -16.585  0.00  0.00    +0.003 C 
ATOM     33  C   UNL     1      29.298 -24.947 -15.383  0.00  0.00    +0.003 C 
ATOM     34  C   UNL     1      28.589 -23.901 -15.972  0.00  0.00    +0.000 C 
ENDBRANCH  28  29
ENDBRANCH  27  28
ENDBRANCH  26  27
ENDBRANCH   3  26
TORSDOF 10
ENDMDL
MODEL 7
REMARK VINA RESULT:     -10.6      4.710     11.619
REMARK  Name = 4449
REMARK  10 active torsions:
REMARK  status: ('A' for Active; 'I' for Inactive)
REMARK    1  A    between atoms: N_2  and  C_9
REMARK    2  A    between atoms: N_3  and  C_26
REMARK    3  A    between atoms: C_6  and  C_7
REMARK    4  A    between atoms: C_9  and  C_10
REMARK    5  A    between atoms: C_10  and  C_11
REMARK    6  A    between atoms: C_11  and  N_12
REMARK    7  A    between atoms: N_13  and  C_20
REMARK    8  A    between atoms: C_26  and  C_27
REMARK    9  A    between atoms: C_27  and  O_28
REMARK   10  A    between atoms: O_28  and  C_29
REMARK                            x       y       z     vdW  Elec       q    Type
REMARK                         _______ _______ _______ _____ _____    ______ ____
ROOT
ATOM      1  O   UNL     1      35.665 -16.844 -20.981  0.00  0.00    -0.245 OA
ATOM      2  N   UNL     1      35.551 -17.143 -23.314  0.00  0.00    -0.201 N 
ATOM      3  N   UNL     1      34.783 -15.257 -22.461  0.00  0.00    -0.263 N 
ATOM      4  N   UNL     1      35.094 -16.390 -24.363  0.00  0.00    -0.152 NA
ATOM      5  C   UNL     1      35.368 -16.458 -22.103  0.00  0.00    +0.348 A 
ATOM      6  C   UNL     1      34.654 -15.300 -23.805  0.00  0.00    +0.144 A 
ENDROOT
BRANCH   6   7
ATOM      7  C   UNL     1      34.059 -14.165 -24.568  0.00  0.00    +0.066 C 
ATOM      8  C   UNL     1      33.632 -14.618 -25.949  0.00  0.00    +0.008 C 
ENDBRANCH   6   7
BRANCH   2   9
ATOM      9  C   UNL     1      36.125 -18.445 -23.516  0.00  0.00    +0.130 C 
BRANCH   9  10
ATOM     10  C   UNL     1      35.072 -19.553 -23.531  0.00  0.00    +0.004 C 
BRANCH  10  11
ATOM     11  C   UNL     1      34.214 -19.627 -22.264  0.00  0.00    -0.075 C 
BRANCH  11  12
ATOM     12  N   UNL     1      34.691 -20.654 -21.340  0.00  0.00    +0.389 N 
ATOM     13  N   UNL     1      35.503 -21.717 -18.816  0.00  0.00    -0.312 N 
ATOM     14  C   UNL     1      33.703 -20.894 -20.282  0.00  0.00    -0.055 C 
ATOM     15  C   UNL     1      35.973 -20.257 -20.745  0.00  0.00    -0.055 C 
ATOM     16  C   UNL     1      34.165 -22.008 -19.339  0.00  0.00    +0.068 C 
ATOM     17  C   UNL     1      36.511 -21.350 -19.818  0.00  0.00    +0.068 C 
ATOM     18  H   UNL     1      34.826 -21.517 -21.866  0.00  0.00    -0.080 HD
BRANCH  13  20
ATOM     19 CL   UNL     1      34.368 -24.577 -14.722  0.00  0.00    -0.082 Cl
ATOM     20  C   UNL     1      35.941 -22.341 -17.642  0.00  0.00    +0.049 C 
ATOM     21  C   UNL     1      35.041 -23.062 -16.859  0.00  0.00    +0.026 C 
ATOM     22  C   UNL     1      37.279 -22.246 -17.260  0.00  0.00    +0.015 C 
ATOM     23  C   UNL     1      35.479 -23.688 -15.692  0.00  0.00    +0.059 C 
ATOM     24  C   UNL     1      37.717 -22.871 -16.093  0.00  0.00    +0.002 C 
ATOM     25  C   UNL     1      36.817 -23.593 -15.308  0.00  0.00    +0.011 C 
ENDBRANCH  13  20
ENDBRANCH  11  12
ENDBRANCH  10  11
ENDBRANCH   9  10
ENDBRANCH   2   9
BRANCH   3  26
ATOM     26  C   UNL     1      34.398 -14.193 -21.554  0.00  0.00    +0.159 C 
BRANCH  26  27
ATOM     27  C   UNL     1      33.062 -14.479 -20.893  0.00  0.00    +0.230 C 
BRANCH  27  28
ATOM     28  O   UNL     1      32.073 -13.610 -21.430  0.00  0.00    -0.473 OA
BRANCH  28  29
ATOM     29  C   UNL     1      31.983 -12.360 -20.876  0.00  0.00    +0.139 C 
ATOM     30  C   UNL     1      31.931 -11.235 -21.700  0.00  0.00    +0.037 C 
ATOM     31  C   UNL     1      31.942 -12.212 -19.491  0.00  0.00    +0.037 C 
ATOM     32  C   UNL     1      31.839  -9.962 -21.137  0.00  0.00    +0.003 C 
ATOM     33  C   UNL     1      31.849 -10.939 -18.927  0.00  0.00    +0.003 C 
ATOM     34  C   UNL     1      31.798  -9.815 -19.750  0.00  0.00    +0.000 C 
ENDBRANCH  28  29
ENDBRANCH  27  28
ENDBRANCH  26  27
ENDBRANCH   3  26
TORSDOF 10
ENDMDL
MODEL 8
REMARK VINA RESULT:     -10.4      6.473     10.885
REMARK  Name = 4449
REMARK  10 active torsions:
REMARK  status: ('A' for Active; 'I' for Inactive)
REMARK    1  A    between atoms: N_2  and  C_9
REMARK    2  A    between atoms: N_3  and  C_26
REMARK    3  A    between atoms: C_6  and  C_7
REMARK    4  A    between atoms: C_9  and  C_10
REMARK    5  A    between atoms: C_10  and  C_11
REMARK    6  A    between atoms: C_11  and  N_12
REMARK    7  A    between atoms: N_13  and  C_20
REMARK    8  A    between atoms: C_26  and  C_27
REMARK    9  A    between atoms: C_27  and  O_28
REMARK   10  A    between atoms: O_28  and  C_29
REMARK                            x       y       z     vdW  Elec       q    Type
REMARK                         _______ _______ _______ _____ _____    ______ ____
ROOT
ATOM      1  O   UNL     1      35.271 -23.782 -16.773  0.00  0.00    -0.245 OA
ATOM      2  N   UNL     1      37.279 -23.004 -15.821  0.00  0.00    -0.201 N 
ATOM      3  N   UNL     1      35.899 -24.168 -14.549  0.00  0.00    -0.263 N 
ATOM      4  N   UNL     1      37.859 -23.094 -14.583  0.00  0.00    -0.152 NA
ATOM      5  C   UNL     1      36.044 -23.670 -15.831  0.00  0.00    +0.348 A 
ATOM      6  C   UNL     1      37.007 -23.782 -13.881  0.00  0.00    +0.144 A 
ENDROOT
BRANCH   6   7
ATOM      7  C   UNL     1      37.217 -24.140 -12.448  0.00  0.00    +0.066 C 
ATOM      8  C   UNL     1      37.601 -22.915 -11.644  0.00  0.00    +0.008 C 
ENDBRANCH   6   7
BRANCH   2   9
ATOM      9  C   UNL     1      37.918 -22.306 -16.903  0.00  0.00    +0.130 C 
BRANCH   9  10
ATOM     10  C   UNL     1      36.969 -21.348 -17.621  0.00  0.00    +0.004 C 
BRANCH  10  11
ATOM     11  C   UNL     1      36.774 -21.650 -19.111  0.00  0.00    -0.075 C 
BRANCH  11  12
ATOM     12  N   UNL     1      36.266 -20.489 -19.841  0.00  0.00    +0.389 N 
ATOM     13  N   UNL     1      35.585 -18.958 -22.154  0.00  0.00    -0.312 N 
ATOM     14  C   UNL     1      35.114 -20.865 -20.668  0.00  0.00    -0.055 C 
ATOM     15  C   UNL     1      37.319 -19.911 -20.685  0.00  0.00    -0.055 C 
ATOM     16  C   UNL     1      34.537 -19.647 -21.395  0.00  0.00    +0.068 C 
ATOM     17  C   UNL     1      36.816 -18.661 -21.412  0.00  0.00    +0.068 C 
ATOM     18  H   UNL     1      35.969 -19.790 -19.160  0.00  0.00    -0.080 HD
BRANCH  13  20
ATOM     19 CL   UNL     1      34.943 -14.173 -23.862  0.00  0.00    -0.082 Cl
ATOM     20  C   UNL     1      35.233 -18.108 -23.209  0.00  0.00    +0.049 C 
ATOM     21  C   UNL     1      35.259 -16.726 -23.030  0.00  0.00    +0.026 C 
ATOM     22  C   UNL     1      34.863 -18.645 -24.442  0.00  0.00    +0.015 C 
ATOM     23  C   UNL     1      34.913 -15.880 -24.083  0.00  0.00    +0.059 C 
ATOM     24  C   UNL     1      34.517 -17.799 -25.495  0.00  0.00    +0.002 C 
ATOM     25  C   UNL     1      34.542 -16.416 -25.316  0.00  0.00    +0.011 C 
ENDBRANCH  13  20
ENDBRANCH  11  12
ENDBRANCH  10  11
ENDBRANCH   9  10
ENDBRANCH   2   9
BRANCH   3  26
ATOM     26  C   UNL     1      34.775 -24.941 -14.057  0.00  0.00    +0.159 C 
BRANCH  26  27
ATOM     27  C   UNL     1      33.632 -24.045 -13.615  0.00  0.00    +0.230 C 
BRANCH  27  28
ATOM     28  O   UNL     1      32.457 -24.827 -13.448  0.00  0.00    -0.473 OA
BRANCH  28  29
ATOM     29  C   UNL     1      31.378 -24.495 -14.225  0.00  0.00    +0.139 C 
ATOM     30  C   UNL     1      31.241 -23.194 -14.709  0.00  0.00    +0.037 C 
ATOM     31  C   UNL     1      30.417 -25.457 -14.531  0.00  0.00    +0.037 C 
ATOM     32  C   UNL     1      30.144 -22.855 -15.499  0.00  0.00    +0.003 C 
ATOM     33  C   UNL     1      29.319 -25.119 -15.323  0.00  0.00    +0.003 C 
ATOM     34  C   UNL     1      29.182 -23.819 -15.806  0.00  0.00    +0.000 C 
ENDBRANCH  28  29
ENDBRANCH  27  28
ENDBRANCH  26  27
ENDBRANCH   3  26
TORSDOF 10
ENDMDL
MODEL 9
REMARK VINA RESULT:     -10.4      4.054     11.892
REMARK  Name = 4449
REMARK  10 active torsions:
REMARK  status: ('A' for Active; 'I' for Inactive)
REMARK    1  A    between atoms: N_2  and  C_9
REMARK    2  A    between atoms: N_3  and  C_26
REMARK    3  A    between atoms: C_6  and  C_7
REMARK    4  A    between atoms: C_9  and  C_10
REMARK    5  A    between atoms: C_10  and  C_11
REMARK    6  A    between atoms: C_11  and  N_12
REMARK    7  A    between atoms: N_13  and  C_20
REMARK    8  A    between atoms: C_26  and  C_27
REMARK    9  A    between atoms: C_27  and  O_28
REMARK   10  A    between atoms: O_28  and  C_29
REMARK                            x       y       z     vdW  Elec       q    Type
REMARK                         _______ _______ _______ _____ _____    ______ ____
ROOT
ATOM      1  O   UNL     1      32.094 -12.918 -22.473  0.00  0.00    -0.245 OA
ATOM      2  N   UNL     1      33.713 -12.911 -24.183  0.00  0.00    -0.201 N 
ATOM      3  N   UNL     1      33.246 -11.003 -23.175  0.00  0.00    -0.263 N 
ATOM      4  N   UNL     1      34.503 -11.952 -24.760  0.00  0.00    -0.152 NA
ATOM      5  C   UNL     1      32.909 -12.344 -23.181  0.00  0.00    +0.348 A 
ATOM      6  C   UNL     1      34.185 -10.857 -24.134  0.00  0.00    +0.144 A 
ENDROOT
BRANCH   6   7
ATOM      7  C   UNL     1      34.803  -9.531 -24.425  0.00  0.00    +0.066 C 
ATOM      8  C   UNL     1      35.977  -9.688 -25.369  0.00  0.00    +0.008 C 
ENDBRANCH   6   7
BRANCH   2   9
ATOM      9  C   UNL     1      33.765 -14.284 -24.605  0.00  0.00    +0.130 C 
BRANCH   9  10
ATOM     10  C   UNL     1      34.991 -15.017 -24.062  0.00  0.00    +0.004 C 
BRANCH  10  11
ATOM     11  C   UNL     1      35.385 -16.265 -24.856  0.00  0.00    -0.075 C 
BRANCH  11  12
ATOM     12  N   UNL     1      35.660 -17.405 -23.982  0.00  0.00    +0.389 N 
ATOM     13  N   UNL     1      35.095 -19.322 -21.942  0.00  0.00    -0.312 N 
ATOM     14  C   UNL     1      34.693 -18.482 -24.222  0.00  0.00    -0.055 C 
ATOM     15  C   UNL     1      35.614 -16.997 -22.573  0.00  0.00    -0.055 C 
ATOM     16  C   UNL     1      35.003 -19.705 -23.353  0.00  0.00    +0.068 C 
ATOM     17  C   UNL     1      35.956 -18.170 -21.650  0.00  0.00    +0.068 C 
ATOM     18  H   UNL     1      36.596 -17.750 -24.195  0.00  0.00    -0.080 HD
BRANCH  13  20
ATOM     19 CL   UNL     1      37.234 -22.138 -18.237  0.00  0.00    -0.082 Cl
ATOM     20  C   UNL     1      34.941 -20.295 -20.947  0.00  0.00    +0.049 C 
ATOM     21  C   UNL     1      36.037 -20.687 -20.179  0.00  0.00    +0.026 C 
ATOM     22  C   UNL     1      33.689 -20.868 -20.721  0.00  0.00    +0.015 C 
ATOM     23  C   UNL     1      35.882 -21.653 -19.185  0.00  0.00    +0.059 C 
ATOM     24  C   UNL     1      33.534 -21.834 -19.727  0.00  0.00    +0.002 C 
ATOM     25  C   UNL     1      34.630 -22.227 -18.959  0.00  0.00    +0.011 C 
ENDBRANCH  13  20
ENDBRANCH  11  12
ENDBRANCH  10  11
ENDBRANCH   9  10
ENDBRANCH   2   9
BRANCH   3  26
ATOM     26  C   UNL     1      32.684  -9.988 -22.304  0.00  0.00    +0.159 C 
BRANCH  26  27
ATOM     27  C   UNL     1      31.742  -9.067 -23.057  0.00  0.00    +0.230 C 
BRANCH  27  28
ATOM     28  O   UNL     1      31.591  -7.852 -22.333  0.00  0.00    -0.473 OA
BRANCH  28  29
ATOM     29  C   UNL     1      31.865  -6.692 -23.008  0.00  0.00    +0.139 C 
ATOM     30  C   UNL     1      31.094  -5.552 -22.778  0.00  0.00    +0.037 C 
ATOM     31  C   UNL     1      32.915  -6.650 -23.925  0.00  0.00    +0.037 C 
ATOM     32  C   UNL     1      31.373  -4.371 -23.465  0.00  0.00    +0.003 C 
ATOM     33  C   UNL     1      33.195  -5.469 -24.612  0.00  0.00    +0.003 C 
ATOM     34  C   UNL     1      32.424  -4.329 -24.382  0.00  0.00    +0.000 C 
ENDBRANCH  28  29
ENDBRANCH  27  28
ENDBRANCH  26  27
ENDBRANCH   3  26
TORSDOF 10
ENDMDL
