MODEL 1
REMARK VINA RESULT:     -10.9      0.000      0.000
REMARK  Name = 447649
REMARK  5 active torsions:
REMARK  status: ('A' for Active; 'I' for Inactive)
REMARK    1  A    between atoms: N_5  and  C_14
REMARK    2  A    between atoms: C_6  and  O_22
REMARK    3  A    between atoms: C_19  and  O_20
REMARK    4  A    between atoms: O_22  and  C_23
REMARK    5  A    between atoms: C_23  and  C_24
REMARK                            x       y       z     vdW  Elec       q    Type
REMARK                         _______ _______ _______ _____ _____    ______ ____
ROOT
ATOM      1  N   UNL     1      34.749 -15.908 -23.534  0.00  0.00    -0.293 NA
ATOM      2  N   UNL     1      33.602 -13.141 -25.668  0.00  0.00    -0.266 NA
ATOM      3  N   UNL     1      34.582 -16.476 -25.900  0.00  0.00    -0.316 NA
ATOM      4  N   UNL     1      33.823 -14.641 -27.302  0.00  0.00    -0.296 N 
ATOM      5  N   UNL     1      35.287 -18.048 -24.318  0.00  0.00    -0.238 N 
ATOM      6  C   UNL     1      34.331 -14.644 -23.765  0.00  0.00    +0.288 C 
ATOM      7  C   UNL     1      34.036 -14.286 -25.064  0.00  0.00    +0.215 C 
ATOM      8  C   UNL     1      34.166 -15.202 -26.099  0.00  0.00    +0.196 C 
ATOM      9  C   UNL     1      34.846 -16.735 -24.602  0.00  0.00    +0.207 C 
ATOM     10  C   UNL     1      33.489 -13.401 -27.008  0.00  0.00    +0.164 C 
ATOM     11  H   UNL     1      33.406 -12.285 -25.222  0.00  0.00    +0.126 HD
ATOM     12  H   UNL     1      33.827 -15.068 -28.189  0.00  0.00    +0.150 HD
ATOM     13  H   UNL     1      35.349 -18.626 -25.112  0.00  0.00    +0.166 HD
ENDROOT
BRANCH   5  14
ATOM     14  C   UNL     1      35.651 -18.689 -23.121  0.00  0.00    +0.059 C 
ATOM     15  C   UNL     1      34.741 -19.523 -22.466  0.00  0.00    +0.018 C 
ATOM     16  C   UNL     1      36.924 -18.496 -22.580  0.00  0.00    +0.018 C 
ATOM     17  C   UNL     1      35.102 -20.158 -21.278  0.00  0.00    +0.038 C 
ATOM     18  C   UNL     1      37.285 -19.132 -21.392  0.00  0.00    +0.038 C 
ATOM     19  C   UNL     1      36.375 -19.963 -20.741  0.00  0.00    +0.134 C 
BRANCH  19  20
ATOM     20  O   UNL     1      36.727 -20.585 -19.583  0.00  0.00    -0.506 OA
ATOM     21  H   UNL     1      36.248 -21.333 -19.287  0.00  0.00    +0.292 HD
ENDBRANCH  19  20
ENDBRANCH   5  14
BRANCH   6  22
ATOM     22  O   UNL     1      34.220 -13.779 -22.703  0.00  0.00    -0.453 OA
BRANCH  22  23
ATOM     23  C   UNL     1      33.447 -14.212 -21.599  0.00  0.00    +0.208 C 
BRANCH  23  24
ATOM     24  C   UNL     1      32.361 -13.171 -21.332  0.00  0.00    +0.044 C 
ATOM     25  C   UNL     1      32.440 -12.664 -19.886  0.00  0.00    +0.004 C 
ATOM     26  C   UNL     1      32.469 -12.007 -22.326  0.00  0.00    +0.004 C 
ATOM     27  C   UNL     1      31.396 -11.583 -19.610  0.00  0.00    +0.000 C 
ATOM     28  C   UNL     1      31.427 -10.927 -22.047  0.00  0.00    +0.000 C 
ATOM     29  C   UNL     1      31.503 -10.432 -20.605  0.00  0.00    +0.000 C 
ENDBRANCH  23  24
ENDBRANCH  22  23
ENDBRANCH   6  22
TORSDOF 5
ENDMDL
MODEL 2
REMARK VINA RESULT:     -10.9      7.791     11.002
REMARK  Name = 447649
REMARK  5 active torsions:
REMARK  status: ('A' for Active; 'I' for Inactive)
REMARK    1  A    between atoms: N_5  and  C_14
REMARK    2  A    between atoms: C_6  and  O_22
REMARK    3  A    between atoms: C_19  and  O_20
REMARK    4  A    between atoms: O_22  and  C_23
REMARK    5  A    between atoms: C_23  and  C_24
REMARK                            x       y       z     vdW  Elec       q    Type
REMARK                         _______ _______ _______ _____ _____    ______ ____
ROOT
ATOM      1  N   UNL     1      33.166 -23.517 -16.349  0.00  0.00    -0.293 NA
ATOM      2  N   UNL     1      29.663 -22.788 -17.202  0.00  0.00    -0.266 NA
ATOM      3  N   UNL     1      31.559 -24.214 -14.651  0.00  0.00    -0.316 NA
ATOM      4  N   UNL     1      29.248 -23.728 -15.225  0.00  0.00    -0.296 N 
ATOM      5  N   UNL     1      33.856 -24.556 -14.367  0.00  0.00    -0.238 N 
ATOM      6  C   UNL     1      32.183 -23.038 -17.143  0.00  0.00    +0.288 C 
ATOM      7  C   UNL     1      30.882 -23.144 -16.698  0.00  0.00    +0.215 C 
ATOM      8  C   UNL     1      30.597 -23.726 -15.470  0.00  0.00    +0.196 C 
ATOM      9  C   UNL     1      32.798 -24.067 -15.168  0.00  0.00    +0.207 C 
ATOM     10  C   UNL     1      28.716 -23.158 -16.285  0.00  0.00    +0.164 C 
ATOM     11  H   UNL     1      29.497 -22.346 -18.067  0.00  0.00    +0.126 HD
ATOM     12  H   UNL     1      28.781 -24.079 -14.433  0.00  0.00    +0.150 HD
ATOM     13  H   UNL     1      33.560 -24.951 -13.516  0.00  0.00    +0.166 HD
ENDROOT
BRANCH   5  14
ATOM     14  C   UNL     1      35.250 -24.586 -14.550  0.00  0.00    +0.059 C 
ATOM     15  C   UNL     1      36.029 -23.485 -14.187  0.00  0.00    +0.018 C 
ATOM     16  C   UNL     1      35.863 -25.716 -15.097  0.00  0.00    +0.018 C 
ATOM     17  C   UNL     1      37.411 -23.514 -14.369  0.00  0.00    +0.038 C 
ATOM     18  C   UNL     1      37.245 -25.745 -15.280  0.00  0.00    +0.038 C 
ATOM     19  C   UNL     1      38.020 -24.644 -14.915  0.00  0.00    +0.134 C 
BRANCH  19  20
ATOM     20  O   UNL     1      39.369 -24.673 -15.092  0.00  0.00    -0.506 OA
ATOM     21  H   UNL     1      39.866 -23.880 -15.042  0.00  0.00    +0.292 HD
ENDBRANCH  19  20
ENDBRANCH   5  14
BRANCH   6  22
ATOM     22  O   UNL     1      32.522 -22.472 -18.348  0.00  0.00    -0.453 OA
BRANCH  22  23
ATOM     23  C   UNL     1      33.790 -22.803 -18.880  0.00  0.00    +0.208 C 
BRANCH  23  24
ATOM     24  C   UNL     1      34.434 -21.529 -19.425  0.00  0.00    +0.044 C 
ATOM     25  C   UNL     1      35.873 -21.800 -19.883  0.00  0.00    +0.004 C 
ATOM     26  C   UNL     1      33.596 -20.947 -20.572  0.00  0.00    +0.004 C 
ATOM     27  C   UNL     1      36.519 -20.553 -20.481  0.00  0.00    +0.000 C 
ATOM     28  C   UNL     1      34.246 -19.702 -21.170  0.00  0.00    +0.000 C 
ATOM     29  C   UNL     1      35.680 -19.974 -21.615  0.00  0.00    +0.000 C 
ENDBRANCH  23  24
ENDBRANCH  22  23
ENDBRANCH   6  22
TORSDOF 5
ENDMDL
MODEL 3
REMARK VINA RESULT:     -10.9      7.974     11.748
REMARK  Name = 447649
REMARK  5 active torsions:
REMARK  status: ('A' for Active; 'I' for Inactive)
REMARK    1  A    between atoms: N_5  and  C_14
REMARK    2  A    between atoms: C_6  and  O_22
REMARK    3  A    between atoms: C_19  and  O_20
REMARK    4  A    between atoms: O_22  and  C_23
REMARK    5  A    between atoms: C_23  and  C_24
REMARK                            x       y       z     vdW  Elec       q    Type
REMARK                         _______ _______ _______ _____ _____    ______ ____
ROOT
ATOM      1  N   UNL     1      33.799 -23.662 -16.049  0.00  0.00    -0.293 NA
ATOM      2  N   UNL     1      37.464 -23.891 -15.843  0.00  0.00    -0.266 NA
ATOM      3  N   UNL     1      34.619 -24.762 -14.032  0.00  0.00    -0.316 NA
ATOM      4  N   UNL     1      37.041 -24.908 -13.906  0.00  0.00    -0.296 N 
ATOM      5  N   UNL     1      32.329 -24.480 -14.420  0.00  0.00    -0.238 N 
ATOM      6  C   UNL     1      35.057 -23.463 -16.502  0.00  0.00    +0.288 C 
ATOM      7  C   UNL     1      36.104 -23.911 -15.724  0.00  0.00    +0.215 C 
ATOM      8  C   UNL     1      35.867 -24.547 -14.513  0.00  0.00    +0.196 C 
ATOM      9  C   UNL     1      33.660 -24.292 -14.858  0.00  0.00    +0.207 C 
ATOM     10  C   UNL     1      37.982 -24.499 -14.731  0.00  0.00    +0.164 C 
ATOM     11  H   UNL     1      37.978 -23.510 -16.592  0.00  0.00    +0.126 HD
ATOM     12  H   UNL     1      37.157 -25.369 -13.044  0.00  0.00    +0.150 HD
ATOM     13  H   UNL     1      32.258 -24.939 -13.552  0.00  0.00    +0.166 HD
ENDROOT
BRANCH   5  14
ATOM     14  C   UNL     1      31.087 -24.142 -14.984  0.00  0.00    +0.059 C 
ATOM     15  C   UNL     1      30.325 -25.113 -15.639  0.00  0.00    +0.018 C 
ATOM     16  C   UNL     1      30.607 -22.833 -14.894  0.00  0.00    +0.018 C 
ATOM     17  C   UNL     1      29.093 -24.778 -16.200  0.00  0.00    +0.038 C 
ATOM     18  C   UNL     1      29.375 -22.497 -15.455  0.00  0.00    +0.038 C 
ATOM     19  C   UNL     1      28.617 -23.469 -16.107  0.00  0.00    +0.134 C 
BRANCH  19  20
ATOM     20  O   UNL     1      27.415 -23.142 -16.653  0.00  0.00    -0.506 OA
ATOM     21  H   UNL     1      26.779 -23.810 -16.823  0.00  0.00    +0.292 HD
ENDBRANCH  19  20
ENDBRANCH   5  14
BRANCH   6  22
ATOM     22  O   UNL     1      35.233 -22.829 -17.708  0.00  0.00    -0.453 OA
BRANCH  22  23
ATOM     23  C   UNL     1      34.105 -22.737 -18.558  0.00  0.00    +0.208 C 
BRANCH  23  24
ATOM     24  C   UNL     1      34.511 -21.979 -19.820  0.00  0.00    +0.044 C 
ATOM     25  C   UNL     1      33.464 -20.915 -20.175  0.00  0.00    +0.004 C 
ATOM     26  C   UNL     1      35.898 -21.345 -19.649  0.00  0.00    +0.004 C 
ATOM     27  C   UNL     1      33.875 -20.108 -21.405  0.00  0.00    +0.000 C 
ATOM     28  C   UNL     1      36.305 -20.536 -20.878  0.00  0.00    +0.000 C 
ATOM     29  C   UNL     1      35.257 -19.486 -21.233  0.00  0.00    +0.000 C 
ENDBRANCH  23  24
ENDBRANCH  22  23
ENDBRANCH   6  22
TORSDOF 5
ENDMDL
MODEL 4
REMARK VINA RESULT:     -10.7      7.592     11.195
REMARK  Name = 447649
REMARK  5 active torsions:
REMARK  status: ('A' for Active; 'I' for Inactive)
REMARK    1  A    between atoms: N_5  and  C_14
REMARK    2  A    between atoms: C_6  and  O_22
REMARK    3  A    between atoms: C_19  and  O_20
REMARK    4  A    between atoms: O_22  and  C_23
REMARK    5  A    between atoms: C_23  and  C_24
REMARK                            x       y       z     vdW  Elec       q    Type
REMARK                         _______ _______ _______ _____ _____    ______ ____
ROOT
ATOM      1  N   UNL     1      34.647 -24.139 -16.162  0.00  0.00    -0.293 NA
ATOM      2  N   UNL     1      31.423 -22.816 -17.335  0.00  0.00    -0.266 NA
ATOM      3  N   UNL     1      32.895 -24.129 -14.464  0.00  0.00    -0.316 NA
ATOM      4  N   UNL     1      30.769 -23.252 -15.250  0.00  0.00    -0.296 N 
ATOM      5  N   UNL     1      35.045 -24.918 -13.989  0.00  0.00    -0.238 N 
ATOM      6  C   UNL     1      33.814 -23.609 -17.084  0.00  0.00    +0.288 C 
ATOM      7  C   UNL     1      32.517 -23.335 -16.705  0.00  0.00    +0.215 C 
ATOM      8  C   UNL     1      32.085 -23.598 -15.412  0.00  0.00    +0.196 C 
ATOM      9  C   UNL     1      34.143 -24.363 -14.925  0.00  0.00    +0.207 C 
ATOM     10  C   UNL     1      30.400 -22.785 -16.425  0.00  0.00    +0.164 C 
ATOM     11  H   UNL     1      31.377 -22.517 -18.273  0.00  0.00    +0.126 HD
ATOM     12  H   UNL     1      30.220 -23.335 -14.437  0.00  0.00    +0.150 HD
ATOM     13  H   UNL     1      34.651 -25.070 -13.100  0.00  0.00    +0.166 HD
ENDROOT
BRANCH   5  14
ATOM     14  C   UNL     1      36.397 -25.294 -14.082  0.00  0.00    +0.059 C 
ATOM     15  C   UNL     1      36.774 -26.362 -14.899  0.00  0.00    +0.018 C 
ATOM     16  C   UNL     1      37.370 -24.602 -13.357  0.00  0.00    +0.018 C 
ATOM     17  C   UNL     1      38.114 -26.736 -14.991  0.00  0.00    +0.038 C 
ATOM     18  C   UNL     1      38.711 -24.976 -13.448  0.00  0.00    +0.038 C 
ATOM     19  C   UNL     1      39.083 -26.042 -14.265  0.00  0.00    +0.134 C 
BRANCH  19  20
ATOM     20  O   UNL     1      40.391 -26.406 -14.356  0.00  0.00    -0.506 OA
ATOM     21  H   UNL     1      41.064 -25.814 -14.083  0.00  0.00    +0.292 HD
ENDBRANCH  19  20
ENDBRANCH   5  14
BRANCH   6  22
ATOM     22  O   UNL     1      34.295 -23.368 -18.349  0.00  0.00    -0.453 OA
BRANCH  22  23
ATOM     23  C   UNL     1      35.379 -22.466 -18.464  0.00  0.00    +0.208 C 
BRANCH  23  24
ATOM     24  C   UNL     1      35.274 -21.754 -19.812  0.00  0.00    +0.044 C 
ATOM     25  C   UNL     1      33.903 -21.082 -19.965  0.00  0.00    +0.004 C 
ATOM     26  C   UNL     1      36.406 -20.730 -19.973  0.00  0.00    +0.004 C 
ATOM     27  C   UNL     1      33.794 -20.319 -21.284  0.00  0.00    +0.000 C 
ATOM     28  C   UNL     1      36.293 -19.967 -21.291  0.00  0.00    +0.000 C 
ATOM     29  C   UNL     1      34.925 -19.308 -21.443  0.00  0.00    +0.000 C 
ENDBRANCH  23  24
ENDBRANCH  22  23
ENDBRANCH   6  22
TORSDOF 5
ENDMDL
MODEL 5
REMARK VINA RESULT:     -10.7      8.418     12.151
REMARK  Name = 447649
REMARK  5 active torsions:
REMARK  status: ('A' for Active; 'I' for Inactive)
REMARK    1  A    between atoms: N_5  and  C_14
REMARK    2  A    between atoms: C_6  and  O_22
REMARK    3  A    between atoms: C_19  and  O_20
REMARK    4  A    between atoms: O_22  and  C_23
REMARK    5  A    between atoms: C_23  and  C_24
REMARK                            x       y       z     vdW  Elec       q    Type
REMARK                         _______ _______ _______ _____ _____    ______ ____
ROOT
ATOM      1  N   UNL     1      33.392 -23.742 -15.574  0.00  0.00    -0.293 NA
ATOM      2  N   UNL     1      36.873 -23.863 -14.393  0.00  0.00    -0.266 NA
ATOM      3  N   UNL     1      33.627 -24.331 -13.218  0.00  0.00    -0.316 NA
ATOM      4  N   UNL     1      35.931 -24.408 -12.448  0.00  0.00    -0.296 N 
ATOM      5  N   UNL     1      31.523 -24.181 -14.231  0.00  0.00    -0.238 N 
ATOM      6  C   UNL     1      34.730 -23.635 -15.724  0.00  0.00    +0.288 C 
ATOM      7  C   UNL     1      35.527 -23.874 -14.624  0.00  0.00    +0.215 C 
ATOM      8  C   UNL     1      34.964 -24.215 -13.401  0.00  0.00    +0.196 C 
ATOM      9  C   UNL     1      32.929 -24.080 -14.347  0.00  0.00    +0.207 C 
ATOM     10  C   UNL     1      37.067 -24.188 -13.077  0.00  0.00    +0.164 C 
ATOM     11  H   UNL     1      37.576 -23.659 -15.053  0.00  0.00    +0.126 HD
ATOM     12  H   UNL     1      35.805 -24.655 -11.504  0.00  0.00    +0.150 HD
ATOM     13  H   UNL     1      31.216 -24.427 -13.329  0.00  0.00    +0.166 HD
ENDROOT
BRANCH   5  14
ATOM     14  C   UNL     1      30.480 -24.001 -15.156  0.00  0.00    +0.059 C 
ATOM     15  C   UNL     1      29.947 -25.100 -15.835  0.00  0.00    +0.018 C 
ATOM     16  C   UNL     1      29.970 -22.724 -15.400  0.00  0.00    +0.018 C 
ATOM     17  C   UNL     1      28.913 -24.922 -16.753  0.00  0.00    +0.038 C 
ATOM     18  C   UNL     1      28.935 -22.546 -16.318  0.00  0.00    +0.038 C 
ATOM     19  C   UNL     1      28.405 -23.644 -16.994  0.00  0.00    +0.134 C 
BRANCH  19  20
ATOM     20  O   UNL     1      27.395 -23.471 -17.889  0.00  0.00    -0.506 OA
ATOM     21  H   UNL     1      27.309 -24.053 -18.618  0.00  0.00    +0.292 HD
ENDBRANCH  19  20
ENDBRANCH   5  14
BRANCH   6  22
ATOM     22  O   UNL     1      35.233 -23.295 -16.957  0.00  0.00    -0.453 OA
BRANCH  22  23
ATOM     23  C   UNL     1      34.308 -23.196 -18.023  0.00  0.00    +0.208 C 
BRANCH  23  24
ATOM     24  C   UNL     1      34.591 -21.904 -18.789  0.00  0.00    +0.044 C 
ATOM     25  C   UNL     1      35.983 -21.950 -19.433  0.00  0.00    +0.004 C 
ATOM     26  C   UNL     1      33.507 -21.653 -19.846  0.00  0.00    +0.004 C 
ATOM     27  C   UNL     1      36.267 -20.690 -20.249  0.00  0.00    +0.000 C 
ATOM     28  C   UNL     1      33.796 -20.395 -20.662  0.00  0.00    +0.000 C 
ATOM     29  C   UNL     1      35.184 -20.440 -21.293  0.00  0.00    +0.000 C 
ENDBRANCH  23  24
ENDBRANCH  22  23
ENDBRANCH   6  22
TORSDOF 5
ENDMDL
MODEL 6
REMARK VINA RESULT:     -10.4      7.619     12.377
REMARK  Name = 447649
REMARK  5 active torsions:
REMARK  status: ('A' for Active; 'I' for Inactive)
REMARK    1  A    between atoms: N_5  and  C_14
REMARK    2  A    between atoms: C_6  and  O_22
REMARK    3  A    between atoms: C_19  and  O_20
REMARK    4  A    between atoms: O_22  and  C_23
REMARK    5  A    between atoms: C_23  and  C_24
REMARK                            x       y       z     vdW  Elec       q    Type
REMARK                         _______ _______ _______ _____ _____    ______ ____
ROOT
ATOM      1  N   UNL     1      34.072 -22.890 -16.666  0.00  0.00    -0.293 NA
ATOM      2  N   UNL     1      32.947 -24.707 -13.672  0.00  0.00    -0.266 NA
ATOM      3  N   UNL     1      31.804 -23.774 -16.827  0.00  0.00    -0.316 NA
ATOM      4  N   UNL     1      31.071 -24.973 -14.844  0.00  0.00    -0.296 N 
ATOM      5  N   UNL     1      32.772 -22.576 -18.588  0.00  0.00    -0.238 N 
ATOM      6  C   UNL     1      34.221 -23.387 -15.418  0.00  0.00    +0.288 C 
ATOM      7  C   UNL     1      33.165 -24.080 -14.865  0.00  0.00    +0.215 C 
ATOM      8  C   UNL     1      31.985 -24.259 -15.576  0.00  0.00    +0.196 C 
ATOM      9  C   UNL     1      32.888 -23.112 -17.285  0.00  0.00    +0.207 C 
ATOM     10  C   UNL     1      31.681 -25.226 -13.705  0.00  0.00    +0.164 C 
ATOM     11  H   UNL     1      33.585 -24.774 -12.924  0.00  0.00    +0.126 HD
ATOM     12  H   UNL     1      30.160 -25.236 -15.110  0.00  0.00    +0.150 HD
ATOM     13  H   UNL     1      31.902 -22.752 -19.013  0.00  0.00    +0.166 HD
ENDROOT
BRANCH   5  14
ATOM     14  C   UNL     1      33.659 -21.842 -19.396  0.00  0.00    +0.059 C 
ATOM     15  C   UNL     1      33.179 -20.809 -20.204  0.00  0.00    +0.018 C 
ATOM     16  C   UNL     1      35.023 -22.142 -19.394  0.00  0.00    +0.018 C 
ATOM     17  C   UNL     1      34.058 -20.081 -21.006  0.00  0.00    +0.038 C 
ATOM     18  C   UNL     1      35.902 -21.415 -20.196  0.00  0.00    +0.038 C 
ATOM     19  C   UNL     1      35.420 -20.384 -21.001  0.00  0.00    +0.134 C 
BRANCH  19  20
ATOM     20  O   UNL     1      36.278 -19.672 -21.783  0.00  0.00    -0.506 OA
ATOM     21  H   UNL     1      36.839 -20.116 -22.388  0.00  0.00    +0.292 HD
ENDBRANCH  19  20
ENDBRANCH   5  14
BRANCH   6  22
ATOM     22  O   UNL     1      35.411 -23.181 -14.761  0.00  0.00    -0.453 OA
BRANCH  22  23
ATOM     23  C   UNL     1      36.598 -23.377 -15.506  0.00  0.00    +0.208 C 
BRANCH  23  24
ATOM     24  C   UNL     1      37.461 -24.406 -14.777  0.00  0.00    +0.044 C 
ATOM     25  C   UNL     1      37.661 -24.006 -13.310  0.00  0.00    +0.004 C 
ATOM     26  C   UNL     1      36.838 -25.805 -14.882  0.00  0.00    +0.004 C 
ATOM     27  C   UNL     1      38.477 -25.048 -12.548  0.00  0.00    +0.000 C 
ATOM     28  C   UNL     1      37.654 -26.844 -14.117  0.00  0.00    +0.000 C 
ATOM     29  C   UNL     1      37.859 -26.437 -12.661  0.00  0.00    +0.000 C 
ENDBRANCH  23  24
ENDBRANCH  22  23
ENDBRANCH   6  22
TORSDOF 5
ENDMDL
MODEL 7
REMARK VINA RESULT:     -10.3      8.063     11.550
REMARK  Name = 447649
REMARK  5 active torsions:
REMARK  status: ('A' for Active; 'I' for Inactive)
REMARK    1  A    between atoms: N_5  and  C_14
REMARK    2  A    between atoms: C_6  and  O_22
REMARK    3  A    between atoms: C_19  and  O_20
REMARK    4  A    between atoms: O_22  and  C_23
REMARK    5  A    between atoms: C_23  and  C_24
REMARK                            x       y       z     vdW  Elec       q    Type
REMARK                         _______ _______ _______ _____ _____    ______ ____
ROOT
ATOM      1  N   UNL     1      35.345 -23.293 -15.975  0.00  0.00    -0.293 NA
ATOM      2  N   UNL     1      38.977 -23.831 -15.764  0.00  0.00    -0.266 NA
ATOM      3  N   UNL     1      35.992 -25.213 -14.617  0.00  0.00    -0.316 NA
ATOM      4  N   UNL     1      38.394 -25.560 -14.484  0.00  0.00    -0.296 N 
ATOM      5  N   UNL     1      33.744 -24.640 -14.922  0.00  0.00    -0.238 N 
ATOM      6  C   UNL     1      36.635 -23.000 -16.251  0.00  0.00    +0.288 C 
ATOM      7  C   UNL     1      37.613 -23.810 -15.712  0.00  0.00    +0.215 C 
ATOM      8  C   UNL     1      37.275 -24.893 -14.912  0.00  0.00    +0.196 C 
ATOM      9  C   UNL     1      35.107 -24.368 -15.186  0.00  0.00    +0.207 C 
ATOM     10  C   UNL     1      39.400 -24.896 -15.014  0.00  0.00    +0.164 C 
ATOM     11  H   UNL     1      39.552 -23.196 -16.251  0.00  0.00    +0.126 HD
ATOM     12  H   UNL     1      38.437 -26.358 -13.909  0.00  0.00    +0.150 HD
ATOM     13  H   UNL     1      33.602 -25.426 -14.346  0.00  0.00    +0.166 HD
ENDROOT
BRANCH   5  14
ATOM     14  C   UNL     1      32.555 -24.008 -15.323  0.00  0.00    +0.059 C 
ATOM     15  C   UNL     1      31.506 -23.845 -14.414  0.00  0.00    +0.018 C 
ATOM     16  C   UNL     1      32.414 -23.539 -16.631  0.00  0.00    +0.018 C 
ATOM     17  C   UNL     1      30.325 -23.219 -14.812  0.00  0.00    +0.038 C 
ATOM     18  C   UNL     1      31.233 -22.913 -17.029  0.00  0.00    +0.038 C 
ATOM     19  C   UNL     1      30.188 -22.752 -16.119  0.00  0.00    +0.134 C 
BRANCH  19  20
ATOM     20  O   UNL     1      29.037 -22.140 -16.507  0.00  0.00    -0.506 OA
ATOM     21  H   UNL     1      28.326 -22.051 -15.902  0.00  0.00    +0.292 HD
ENDBRANCH  19  20
ENDBRANCH   5  14
BRANCH   6  22
ATOM     22  O   UNL     1      36.912 -21.916 -17.049  0.00  0.00    -0.453 OA
BRANCH  22  23
ATOM     23  C   UNL     1      36.931 -22.136 -18.447  0.00  0.00    +0.208 C 
BRANCH  23  24
ATOM     24  C   UNL     1      35.889 -21.225 -19.094  0.00  0.00    +0.044 C 
ATOM     25  C   UNL     1      36.411 -20.663 -20.423  0.00  0.00    +0.004 C 
ATOM     26  C   UNL     1      34.566 -21.975 -19.299  0.00  0.00    +0.004 C 
ATOM     27  C   UNL     1      35.365 -19.790 -21.115  0.00  0.00    +0.000 C 
ATOM     28  C   UNL     1      33.524 -21.101 -19.993  0.00  0.00    +0.000 C 
ATOM     29  C   UNL     1      34.050 -20.537 -21.309  0.00  0.00    +0.000 C 
ENDBRANCH  23  24
ENDBRANCH  22  23
ENDBRANCH   6  22
TORSDOF 5
ENDMDL
MODEL 8
REMARK VINA RESULT:      -9.8      8.515     12.466
REMARK  Name = 447649
REMARK  5 active torsions:
REMARK  status: ('A' for Active; 'I' for Inactive)
REMARK    1  A    between atoms: N_5  and  C_14
REMARK    2  A    between atoms: C_6  and  O_22
REMARK    3  A    between atoms: C_19  and  O_20
REMARK    4  A    between atoms: O_22  and  C_23
REMARK    5  A    between atoms: C_23  and  C_24
REMARK                            x       y       z     vdW  Elec       q    Type
REMARK                         _______ _______ _______ _____ _____    ______ ____
ROOT
ATOM      1  N   UNL     1      35.340 -23.844 -15.432  0.00  0.00    -0.293 NA
ATOM      2  N   UNL     1      36.577 -25.398 -12.336  0.00  0.00    -0.266 NA
ATOM      3  N   UNL     1      37.750 -23.646 -15.109  0.00  0.00    -0.316 NA
ATOM      4  N   UNL     1      38.557 -24.676 -13.061  0.00  0.00    -0.296 N 
ATOM      5  N   UNL     1      36.697 -22.747 -16.995  0.00  0.00    -0.238 N 
ATOM      6  C   UNL     1      35.199 -24.521 -14.271  0.00  0.00    +0.288 C 
ATOM      7  C   UNL     1      36.330 -24.767 -13.521  0.00  0.00    +0.215 C 
ATOM      8  C   UNL     1      37.575 -24.328 -13.952  0.00  0.00    +0.196 C 
ATOM      9  C   UNL     1      36.591 -23.453 -15.774  0.00  0.00    +0.207 C 
ATOM     10  C   UNL     1      37.924 -25.318 -12.102  0.00  0.00    +0.164 C 
ATOM     11  H   UNL     1      35.909 -25.831 -11.756  0.00  0.00    +0.126 HD
ATOM     12  H   UNL     1      39.522 -24.489 -13.125  0.00  0.00    +0.150 HD
ATOM     13  H   UNL     1      37.616 -22.476 -17.218  0.00  0.00    +0.166 HD
ENDROOT
BRANCH   5  14
ATOM     14  C   UNL     1      35.743 -22.355 -17.950  0.00  0.00    +0.059 C 
ATOM     15  C   UNL     1      36.127 -21.582 -19.049  0.00  0.00    +0.018 C 
ATOM     16  C   UNL     1      34.407 -22.737 -17.807  0.00  0.00    +0.018 C 
ATOM     17  C   UNL     1      35.181 -21.192 -19.997  0.00  0.00    +0.038 C 
ATOM     18  C   UNL     1      33.461 -22.347 -18.755  0.00  0.00    +0.038 C 
ATOM     19  C   UNL     1      33.848 -21.575 -19.850  0.00  0.00    +0.134 C 
BRANCH  19  20
ATOM     20  O   UNL     1      32.925 -21.196 -20.776  0.00  0.00    -0.506 OA
ATOM     21  H   UNL     1      33.146 -20.557 -21.424  0.00  0.00    +0.292 HD
ENDBRANCH  19  20
ENDBRANCH   5  14
BRANCH   6  22
ATOM     22  O   UNL     1      33.943 -24.932 -13.893  0.00  0.00    -0.453 OA
BRANCH  22  23
ATOM     23  C   UNL     1      32.946 -23.933 -13.784  0.00  0.00    +0.208 C 
BRANCH  23  24
ATOM     24  C   UNL     1      31.858 -24.221 -14.817  0.00  0.00    +0.044 C 
ATOM     25  C   UNL     1      30.701 -25.003 -14.182  0.00  0.00    +0.004 C 
ATOM     26  C   UNL     1      31.354 -22.916 -15.450  0.00  0.00    +0.004 C 
ATOM     27  C   UNL     1      29.576 -25.257 -15.184  0.00  0.00    +0.000 C 
ATOM     28  C   UNL     1      30.228 -23.173 -16.448  0.00  0.00    +0.000 C 
ATOM     29  C   UNL     1      29.083 -23.959 -15.816  0.00  0.00    +0.000 C 
ENDBRANCH  23  24
ENDBRANCH  22  23
ENDBRANCH   6  22
TORSDOF 5
ENDMDL
MODEL 9
REMARK VINA RESULT:      -9.6      7.532     11.679
REMARK  Name = 447649
REMARK  5 active torsions:
REMARK  status: ('A' for Active; 'I' for Inactive)
REMARK    1  A    between atoms: N_5  and  C_14
REMARK    2  A    between atoms: C_6  and  O_22
REMARK    3  A    between atoms: C_19  and  O_20
REMARK    4  A    between atoms: O_22  and  C_23
REMARK    5  A    between atoms: C_23  and  C_24
REMARK                            x       y       z     vdW  Elec       q    Type
REMARK                         _______ _______ _______ _____ _____    ______ ____
ROOT
ATOM      1  N   UNL     1      34.166 -22.887 -17.220  0.00  0.00    -0.293 NA
ATOM      2  N   UNL     1      36.393 -21.590 -19.844  0.00  0.00    -0.266 NA
ATOM      3  N   UNL     1      32.999 -21.904 -19.124  0.00  0.00    -0.316 NA
ATOM      4  N   UNL     1      34.480 -21.051 -20.852  0.00  0.00    -0.296 N 
ATOM      5  N   UNL     1      31.827 -22.806 -17.311  0.00  0.00    -0.238 N 
ATOM      6  C   UNL     1      35.372 -22.626 -17.771  0.00  0.00    +0.288 C 
ATOM      7  C   UNL     1      35.401 -22.003 -19.001  0.00  0.00    +0.215 C 
ATOM      8  C   UNL     1      34.223 -21.656 -19.649  0.00  0.00    +0.196 C 
ATOM      9  C   UNL     1      33.069 -22.514 -17.921  0.00  0.00    +0.207 C 
ATOM     10  C   UNL     1      35.794 -21.027 -20.939  0.00  0.00    +0.164 C 
ATOM     11  H   UNL     1      37.362 -21.682 -19.693  0.00  0.00    +0.126 HD
ATOM     12  H   UNL     1      33.828 -20.710 -21.506  0.00  0.00    +0.150 HD
ATOM     13  H   UNL     1      31.048 -22.525 -17.843  0.00  0.00    +0.166 HD
ENDROOT
BRANCH   5  14
ATOM     14  C   UNL     1      31.489 -23.417 -16.091  0.00  0.00    +0.059 C 
ATOM     15  C   UNL     1      31.967 -22.893 -14.888  0.00  0.00    +0.018 C 
ATOM     16  C   UNL     1      30.675 -24.552 -16.076  0.00  0.00    +0.018 C 
ATOM     17  C   UNL     1      31.633 -23.500 -13.677  0.00  0.00    +0.038 C 
ATOM     18  C   UNL     1      30.340 -25.159 -14.865  0.00  0.00    +0.038 C 
ATOM     19  C   UNL     1      30.819 -24.633 -13.666  0.00  0.00    +0.134 C 
BRANCH  19  20
ATOM     20  O   UNL     1      30.492 -25.224 -12.485  0.00  0.00    -0.506 OA
ATOM     21  H   UNL     1      31.015 -25.072 -11.723  0.00  0.00    +0.292 HD
ENDBRANCH  19  20
ENDBRANCH   5  14
BRANCH   6  22
ATOM     22  O   UNL     1      36.505 -22.990 -17.085  0.00  0.00    -0.453 OA
BRANCH  22  23
ATOM     23  C   UNL     1      36.485 -22.831 -15.679  0.00  0.00    +0.208 C 
BRANCH  23  24
ATOM     24  C   UNL     1      37.284 -23.973 -15.053  0.00  0.00    +0.044 C 
ATOM     25  C   UNL     1      37.494 -23.728 -13.552  0.00  0.00    +0.004 C 
ATOM     26  C   UNL     1      36.588 -25.319 -15.295  0.00  0.00    +0.004 C 
ATOM     27  C   UNL     1      38.246 -24.883 -12.893  0.00  0.00    +0.000 C 
ATOM     28  C   UNL     1      37.340 -26.470 -14.633  0.00  0.00    +0.000 C 
ATOM     29  C   UNL     1      37.555 -26.219 -13.143  0.00  0.00    +0.000 C 
ENDBRANCH  23  24
ENDBRANCH  22  23
ENDBRANCH   6  22
TORSDOF 5
ENDMDL
