MODEL 1
REMARK VINA RESULT:     -11.9      0.000      0.000
REMARK  Name = 216239
REMARK  6 active torsions:
REMARK  status: ('A' for Active; 'I' for Inactive)
REMARK    1  A    between atoms: C_1  and  N_9
REMARK    2  A    between atoms: C_2  and  O_24
REMARK    3  A    between atoms: N_8  and  C_14
REMARK    4  A    between atoms: C_15  and  C_23
REMARK    5  A    between atoms: O_24  and  C_26
REMARK    6  A    between atoms: C_28  and  C_33
REMARK                            x       y       z     vdW  Elec       q    Type
REMARK                         _______ _______ _______ _____ _____    ______ ____
ROOT
ATOM      1  C   UNL     1      35.294 -22.051 -18.890  0.00  0.00    +0.052 C 
ATOM      2  C   UNL     1      34.470 -23.559 -16.717  0.00  0.00    +0.145 C 
ATOM      3  C   UNL     1      34.129 -22.794 -18.983  0.00  0.00    +0.018 C 
ATOM      4  C   UNL     1      36.056 -22.046 -17.733  0.00  0.00    +0.018 C 
ATOM      5  C   UNL     1      33.714 -23.553 -17.889  0.00  0.00    +0.039 C 
ATOM      6  C   UNL     1      35.642 -22.806 -16.639  0.00  0.00    +0.039 C 
ENDROOT
BRANCH   1   9
ATOM      7  O   UNL     1      33.748 -20.187 -20.637  0.00  0.00    -0.252 OA
ATOM      8  N   UNL     1      35.749 -19.838 -21.803  0.00  0.00    -0.268 N 
ATOM      9  N   UNL     1      35.714 -21.281 -19.999  0.00  0.00    -0.268 N 
ATOM     10  C   UNL     1      34.943 -20.415 -20.792  0.00  0.00    +0.308 C 
ATOM     11  H   UNL     1      36.694 -20.116 -21.806  0.00  0.00    +0.156 HD
ATOM     12  H   UNL     1      36.663 -21.362 -20.248  0.00  0.00    +0.156 HD
BRANCH   8  14
ATOM     13 CL   UNL     1      34.202 -16.022 -26.043  0.00  0.00    -0.082 Cl
ATOM     14  C   UNL     1      35.384 -18.929 -22.797  0.00  0.00    +0.052 C 
ATOM     15  C   UNL     1      34.927 -16.662 -23.495  0.00  0.00    +0.083 C 
ATOM     16  C   UNL     1      35.291 -17.570 -22.501  0.00  0.00    +0.019 C 
ATOM     17  C   UNL     1      35.111 -19.383 -24.088  0.00  0.00    +0.016 C 
ATOM     18  C   UNL     1      34.653 -17.115 -24.786  0.00  0.00    +0.062 C 
ATOM     19  C   UNL     1      34.746 -18.475 -25.082  0.00  0.00    +0.013 C 
BRANCH  15  23
ATOM     20  F   UNL     1      35.632 -14.415 -23.912  0.00  0.00    -0.166 F 
ATOM     21  F   UNL     1      33.584 -14.697 -23.256  0.00  0.00    -0.166 F 
ATOM     22  F   UNL     1      35.221 -14.971 -21.851  0.00  0.00    -0.166 F 
ATOM     23  C   UNL     1      34.842 -15.213 -23.138  0.00  0.00    +0.419 C 
ENDBRANCH  15  23
ENDBRANCH   8  14
ENDBRANCH   1   9
BRANCH   2  24
ATOM     24  O   UNL     1      34.066 -24.302 -15.651  0.00  0.00    -0.453 OA
BRANCH  24  26
ATOM     25  N   UNL     1      36.933 -25.341 -12.827  0.00  0.00    -0.239 NA
ATOM     26  C   UNL     1      35.021 -24.649 -14.710  0.00  0.00    +0.149 C 
ATOM     27  C   UNL     1      36.165 -25.300 -15.119  0.00  0.00    +0.061 C 
ATOM     28  C   UNL     1      37.090 -25.624 -14.140  0.00  0.00    +0.137 C 
ATOM     29  C   UNL     1      34.806 -24.335 -13.385  0.00  0.00    +0.058 C 
ATOM     30  C   UNL     1      35.792 -24.704 -12.483  0.00  0.00    +0.102 C 
BRANCH  28  33
ATOM     31  O   UNL     1      38.289 -27.443 -15.007  0.00  0.00    -0.268 OA
ATOM     32  N   UNL     1      39.521 -25.630 -14.251  0.00  0.00    -0.298 N 
ATOM     33  C   UNL     1      38.321 -26.310 -14.493  0.00  0.00    +0.264 C 
ATOM     34  C   UNL     1      40.824 -26.170 -14.569  0.00  0.00    +0.111 C 
ATOM     35  H   UNL     1      39.475 -24.736 -13.842  0.00  0.00    +0.150 HD
ENDBRANCH  28  33
ENDBRANCH  24  26
ENDBRANCH   2  24
TORSDOF 6
ENDMDL
MODEL 2
REMARK VINA RESULT:     -11.9      2.789      4.360
REMARK  Name = 216239
REMARK  6 active torsions:
REMARK  status: ('A' for Active; 'I' for Inactive)
REMARK    1  A    between atoms: C_1  and  N_9
REMARK    2  A    between atoms: C_2  and  O_24
REMARK    3  A    between atoms: N_8  and  C_14
REMARK    4  A    between atoms: C_15  and  C_23
REMARK    5  A    between atoms: O_24  and  C_26
REMARK    6  A    between atoms: C_28  and  C_33
REMARK                            x       y       z     vdW  Elec       q    Type
REMARK                         _______ _______ _______ _____ _____    ______ ____
ROOT
ATOM      1  C   UNL     1      35.920 -21.141 -19.598  0.00  0.00    +0.052 C 
ATOM      2  C   UNL     1      35.361 -23.027 -17.648  0.00  0.00    +0.145 C 
ATOM      3  C   UNL     1      34.757 -21.886 -19.690  0.00  0.00    +0.018 C 
ATOM      4  C   UNL     1      36.810 -21.318 -18.553  0.00  0.00    +0.018 C 
ATOM      5  C   UNL     1      34.475 -22.836 -18.708  0.00  0.00    +0.039 C 
ATOM      6  C   UNL     1      36.530 -22.269 -17.571  0.00  0.00    +0.039 C 
ENDROOT
BRANCH   1   9
ATOM      7  O   UNL     1      34.073 -19.560 -21.334  0.00  0.00    -0.252 OA
ATOM      8  N   UNL     1      35.994 -18.594 -22.263  0.00  0.00    -0.268 N 
ATOM      9  N   UNL     1      36.205 -20.178 -20.595  0.00  0.00    -0.268 N 
ATOM     10  C   UNL     1      35.294 -19.459 -21.387  0.00  0.00    +0.308 C 
ATOM     11  H   UNL     1      36.976 -18.619 -22.195  0.00  0.00    +0.156 HD
ATOM     12  H   UNL     1      37.157 -19.988 -20.753  0.00  0.00    +0.156 HD
BRANCH   8  14
ATOM     13 CL   UNL     1      33.812 -14.882 -26.312  0.00  0.00    -0.082 Cl
ATOM     14  C   UNL     1      35.478 -17.710 -23.211  0.00  0.00    +0.052 C 
ATOM     15  C   UNL     1      34.702 -15.502 -23.812  0.00  0.00    +0.083 C 
ATOM     16  C   UNL     1      35.217 -16.385 -22.863  0.00  0.00    +0.019 C 
ATOM     17  C   UNL     1      35.223 -18.153 -24.510  0.00  0.00    +0.016 C 
ATOM     18  C   UNL     1      34.446 -15.945 -25.110  0.00  0.00    +0.062 C 
ATOM     19  C   UNL     1      34.708 -17.270 -25.458  0.00  0.00    +0.013 C 
BRANCH  15  23
ATOM     20  F   UNL     1      34.960 -13.167 -24.257  0.00  0.00    -0.166 F 
ATOM     21  F   UNL     1      33.111 -13.789 -23.309  0.00  0.00    -0.166 F 
ATOM     22  F   UNL     1      34.967 -13.797 -22.176  0.00  0.00    -0.166 F 
ATOM     23  C   UNL     1      34.438 -14.090 -23.399  0.00  0.00    +0.419 C 
ENDBRANCH  15  23
ENDBRANCH   8  14
ENDBRANCH   1   9
BRANCH   2  24
ATOM     24  O   UNL     1      35.087 -23.954 -16.691  0.00  0.00    -0.453 OA
BRANCH  24  26
ATOM     25  N   UNL     1      31.681 -23.398 -14.376  0.00  0.00    -0.239 NA
ATOM     26  C   UNL     1      33.952 -23.768 -15.920  0.00  0.00    +0.149 C 
ATOM     27  C   UNL     1      32.767 -23.429 -16.536  0.00  0.00    +0.061 C 
ATOM     28  C   UNL     1      31.660 -23.255 -15.721  0.00  0.00    +0.137 C 
ATOM     29  C   UNL     1      34.033 -23.927 -14.553  0.00  0.00    +0.058 C 
ATOM     30  C   UNL     1      32.869 -23.730 -13.826  0.00  0.00    +0.102 C 
BRANCH  28  33
ATOM     31  O   UNL     1      30.303 -22.455 -17.458  0.00  0.00    -0.268 OA
ATOM     32  N   UNL     1      29.242 -23.096 -15.498  0.00  0.00    -0.298 N 
ATOM     33  C   UNL     1      30.375 -22.897 -16.297  0.00  0.00    +0.264 C 
ATOM     34  C   UNL     1      27.895 -22.810 -15.937  0.00  0.00    +0.111 C 
ATOM     35  H   UNL     1      29.370 -23.449 -14.588  0.00  0.00    +0.150 HD
ENDBRANCH  28  33
ENDBRANCH  24  26
ENDBRANCH   2  24
TORSDOF 6
ENDMDL
MODEL 3
REMARK VINA RESULT:     -11.7      5.730     11.642
REMARK  Name = 216239
REMARK  6 active torsions:
REMARK  status: ('A' for Active; 'I' for Inactive)
REMARK    1  A    between atoms: C_1  and  N_9
REMARK    2  A    between atoms: C_2  and  O_24
REMARK    3  A    between atoms: N_8  and  C_14
REMARK    4  A    between atoms: C_15  and  C_23
REMARK    5  A    between atoms: O_24  and  C_26
REMARK    6  A    between atoms: C_28  and  C_33
REMARK                            x       y       z     vdW  Elec       q    Type
REMARK                         _______ _______ _______ _____ _____    ______ ____
ROOT
ATOM      1  C   UNL     1      36.694 -19.809 -20.583  0.00  0.00    +0.052 C 
ATOM      2  C   UNL     1      35.957 -18.910 -23.097  0.00  0.00    +0.145 C 
ATOM      3  C   UNL     1      35.445 -20.138 -21.081  0.00  0.00    +0.018 C 
ATOM      4  C   UNL     1      37.584 -19.040 -21.315  0.00  0.00    +0.018 C 
ATOM      5  C   UNL     1      35.074 -19.686 -22.347  0.00  0.00    +0.039 C 
ATOM      6  C   UNL     1      37.212 -18.586 -22.581  0.00  0.00    +0.039 C 
ENDROOT
BRANCH   1   9
ATOM      7  O   UNL     1      35.908 -22.291 -19.119  0.00  0.00    -0.252 OA
ATOM      8  N   UNL     1      37.278 -21.533 -17.377  0.00  0.00    -0.268 N 
ATOM      9  N   UNL     1      37.071 -20.269 -19.300  0.00  0.00    -0.268 N 
ATOM     10  C   UNL     1      36.670 -21.451 -18.654  0.00  0.00    +0.308 C 
ATOM     11  H   UNL     1      37.868 -20.782 -17.135  0.00  0.00    +0.156 HD
ATOM     12  H   UNL     1      37.688 -19.691 -18.797  0.00  0.00    +0.156 HD
BRANCH   8  14
ATOM     13 CL   UNL     1      36.700 -25.764 -13.290  0.00  0.00    -0.082 Cl
ATOM     14  C   UNL     1      37.151 -22.535 -16.414  0.00  0.00    +0.052 C 
ATOM     15  C   UNL     1      38.115 -24.345 -15.138  0.00  0.00    +0.083 C 
ATOM     16  C   UNL     1      38.242 -23.344 -16.100  0.00  0.00    +0.019 C 
ATOM     17  C   UNL     1      35.931 -22.727 -15.765  0.00  0.00    +0.016 C 
ATOM     18  C   UNL     1      36.895 -24.538 -14.488  0.00  0.00    +0.062 C 
ATOM     19  C   UNL     1      35.804 -23.728 -14.802  0.00  0.00    +0.013 C 
BRANCH  15  23
ATOM     20  F   UNL     1      40.406 -24.875 -15.577  0.00  0.00    -0.166 F 
ATOM     21  F   UNL     1      39.720 -25.096 -13.531  0.00  0.00    -0.166 F 
ATOM     22  F   UNL     1      39.081 -26.516 -15.048  0.00  0.00    -0.166 F 
ATOM     23  C   UNL     1      39.309 -25.189 -14.828  0.00  0.00    +0.419 C 
ENDBRANCH  15  23
ENDBRANCH   8  14
ENDBRANCH   1   9
BRANCH   2  24
ATOM     24  O   UNL     1      35.594 -18.466 -24.331  0.00  0.00    -0.453 OA
BRANCH  24  26
ATOM     25  N   UNL     1      34.052 -14.618 -24.625  0.00  0.00    -0.239 NA
ATOM     26  C   UNL     1      35.079 -17.184 -24.429  0.00  0.00    +0.149 C 
ATOM     27  C   UNL     1      34.905 -16.439 -23.282  0.00  0.00    +0.061 C 
ATOM     28  C   UNL     1      34.388 -15.162 -23.434  0.00  0.00    +0.137 C 
ATOM     29  C   UNL     1      34.754 -16.682 -25.671  0.00  0.00    +0.058 C 
ATOM     30  C   UNL     1      34.243 -15.394 -25.715  0.00  0.00    +0.102 C 
BRANCH  28  33
ATOM     31  O   UNL     1      35.087 -14.139 -21.443  0.00  0.00    -0.268 OA
ATOM     32  N   UNL     1      32.923 -13.702 -22.152  0.00  0.00    -0.298 N 
ATOM     33  C   UNL     1      34.176 -14.315 -22.272  0.00  0.00    +0.264 C 
ATOM     34  C   UNL     1      32.568 -12.815 -21.067  0.00  0.00    +0.111 C 
ATOM     35  H   UNL     1      32.247 -13.884 -22.844  0.00  0.00    +0.150 HD
ENDBRANCH  28  33
ENDBRANCH  24  26
ENDBRANCH   2  24
TORSDOF 6
ENDMDL
MODEL 4
REMARK VINA RESULT:     -11.7      5.819     11.908
REMARK  Name = 216239
REMARK  6 active torsions:
REMARK  status: ('A' for Active; 'I' for Inactive)
REMARK    1  A    between atoms: C_1  and  N_9
REMARK    2  A    between atoms: C_2  and  O_24
REMARK    3  A    between atoms: N_8  and  C_14
REMARK    4  A    between atoms: C_15  and  C_23
REMARK    5  A    between atoms: O_24  and  C_26
REMARK    6  A    between atoms: C_28  and  C_33
REMARK                            x       y       z     vdW  Elec       q    Type
REMARK                         _______ _______ _______ _____ _____    ______ ____
ROOT
ATOM      1  C   UNL     1      35.402 -20.962 -20.127  0.00  0.00    +0.052 C 
ATOM      2  C   UNL     1      36.108 -19.205 -22.149  0.00  0.00    +0.145 C 
ATOM      3  C   UNL     1      36.714 -20.529 -20.221  0.00  0.00    +0.018 C 
ATOM      4  C   UNL     1      34.435 -20.535 -21.022  0.00  0.00    +0.018 C 
ATOM      5  C   UNL     1      37.069 -19.645 -21.239  0.00  0.00    +0.039 C 
ATOM      6  C   UNL     1      34.791 -19.651 -22.041  0.00  0.00    +0.039 C 
ENDROOT
BRANCH   1   9
ATOM      7  O   UNL     1      36.798 -21.615 -17.569  0.00  0.00    -0.252 OA
ATOM      8  N   UNL     1      35.033 -23.094 -17.141  0.00  0.00    -0.268 N 
ATOM      9  N   UNL     1      35.042 -21.859 -19.094  0.00  0.00    -0.268 N 
ATOM     10  C   UNL     1      35.738 -22.130 -17.904  0.00  0.00    +0.308 C 
ATOM     11  H   UNL     1      34.193 -23.421 -17.538  0.00  0.00    +0.156 HD
ATOM     12  H   UNL     1      34.202 -22.354 -19.224  0.00  0.00    +0.156 HD
BRANCH   8  14
ATOM     13 CL   UNL     1      36.421 -25.405 -11.882  0.00  0.00    -0.082 Cl
ATOM     14  C   UNL     1      35.370 -23.642 -15.904  0.00  0.00    +0.052 C 
ATOM     15  C   UNL     1      37.000 -24.655 -14.437  0.00  0.00    +0.083 C 
ATOM     16  C   UNL     1      36.664 -24.109 -15.675  0.00  0.00    +0.019 C 
ATOM     17  C   UNL     1      34.411 -23.722 -14.893  0.00  0.00    +0.016 C 
ATOM     18  C   UNL     1      36.042 -24.737 -13.427  0.00  0.00    +0.062 C 
ATOM     19  C   UNL     1      34.747 -24.269 -13.655  0.00  0.00    +0.013 C 
BRANCH  15  23
ATOM     20  F   UNL     1      38.999 -24.619 -13.124  0.00  0.00    -0.166 F 
ATOM     21  F   UNL     1      38.487 -26.496 -14.084  0.00  0.00    -0.166 F 
ATOM     22  F   UNL     1      39.218 -24.831 -15.277  0.00  0.00    -0.166 F 
ATOM     23  C   UNL     1      38.399 -25.142 -14.232  0.00  0.00    +0.419 C 
ENDBRANCH  15  23
ENDBRANCH   8  14
ENDBRANCH   1   9
BRANCH   2  24
ATOM     24  O   UNL     1      36.455 -18.344 -23.144  0.00  0.00    -0.453 OA
BRANCH  24  26
ATOM     25  N   UNL     1      34.213 -14.869 -23.554  0.00  0.00    -0.239 NA
ATOM     26  C   UNL     1      35.709 -17.186 -23.281  0.00  0.00    +0.149 C 
ATOM     27  C   UNL     1      35.235 -16.833 -24.526  0.00  0.00    +0.061 C 
ATOM     28  C   UNL     1      34.492 -15.666 -24.610  0.00  0.00    +0.137 C 
ATOM     29  C   UNL     1      35.456 -16.411 -22.168  0.00  0.00    +0.058 C 
ATOM     30  C   UNL     1      34.704 -15.263 -22.359  0.00  0.00    +0.102 C 
BRANCH  28  33
ATOM     31  O   UNL     1      33.683 -16.057 -26.776  0.00  0.00    -0.268 OA
ATOM     32  N   UNL     1      33.750 -13.854 -26.055  0.00  0.00    -0.298 N 
ATOM     33  C   UNL     1      33.957 -15.229 -25.889  0.00  0.00    +0.264 C 
ATOM     34  C   UNL     1      33.204 -13.268 -27.258  0.00  0.00    +0.111 C 
ATOM     35  H   UNL     1      33.990 -13.254 -25.312  0.00  0.00    +0.150 HD
ENDBRANCH  28  33
ENDBRANCH  24  26
ENDBRANCH   2  24
TORSDOF 6
ENDMDL
MODEL 5
REMARK VINA RESULT:     -11.5      5.771      9.789
REMARK  Name = 216239
REMARK  6 active torsions:
REMARK  status: ('A' for Active; 'I' for Inactive)
REMARK    1  A    between atoms: C_1  and  N_9
REMARK    2  A    between atoms: C_2  and  O_24
REMARK    3  A    between atoms: N_8  and  C_14
REMARK    4  A    between atoms: C_15  and  C_23
REMARK    5  A    between atoms: O_24  and  C_26
REMARK    6  A    between atoms: C_28  and  C_33
REMARK                            x       y       z     vdW  Elec       q    Type
REMARK                         _______ _______ _______ _____ _____    ______ ____
ROOT
ATOM      1  C   UNL     1      34.462 -14.330 -24.489  0.00  0.00    +0.052 C 
ATOM      2  C   UNL     1      34.947 -17.054 -24.345  0.00  0.00    +0.145 C 
ATOM      3  C   UNL     1      35.032 -14.857 -23.342  0.00  0.00    +0.018 C 
ATOM      4  C   UNL     1      34.129 -15.136 -25.565  0.00  0.00    +0.018 C 
ATOM      5  C   UNL     1      35.276 -16.229 -23.270  0.00  0.00    +0.039 C 
ATOM      6  C   UNL     1      34.372 -16.508 -25.492  0.00  0.00    +0.039 C 
ENDROOT
BRANCH   1   9
ATOM      7  O   UNL     1      33.133 -12.505 -22.534  0.00  0.00    -0.252 OA
ATOM      8  N   UNL     1      33.537 -10.786 -24.072  0.00  0.00    -0.268 N 
ATOM      9  N   UNL     1      34.214 -12.940 -24.562  0.00  0.00    -0.268 N 
ATOM     10  C   UNL     1      33.582 -12.123 -23.609  0.00  0.00    +0.308 C 
ATOM     11  H   UNL     1      33.937 -10.626 -24.958  0.00  0.00    +0.156 HD
ATOM     12  H   UNL     1      34.523 -12.488 -25.380  0.00  0.00    +0.156 HD
BRANCH   8  14
ATOM     13 CL   UNL     1      31.248  -6.055 -21.368  0.00  0.00    -0.082 Cl
ATOM     14  C   UNL     1      32.999  -9.663 -23.442  0.00  0.00    +0.052 C 
ATOM     15  C   UNL     1      32.397  -7.324 -23.489  0.00  0.00    +0.083 C 
ATOM     16  C   UNL     1      32.935  -8.446 -24.119  0.00  0.00    +0.019 C 
ATOM     17  C   UNL     1      32.525  -9.759 -22.133  0.00  0.00    +0.016 C 
ATOM     18  C   UNL     1      31.923  -7.420 -22.180  0.00  0.00    +0.062 C 
ATOM     19  C   UNL     1      31.987  -8.638 -21.503  0.00  0.00    +0.013 C 
BRANCH  15  23
ATOM     20  F   UNL     1      31.131  -5.417 -24.184  0.00  0.00    -0.166 F 
ATOM     21  F   UNL     1      33.247  -5.112 -23.815  0.00  0.00    -0.166 F 
ATOM     22  F   UNL     1      32.600  -6.208 -25.579  0.00  0.00    -0.166 F 
ATOM     23  C   UNL     1      32.344  -6.038 -24.250  0.00  0.00    +0.419 C 
ENDBRANCH  15  23
ENDBRANCH   8  14
ENDBRANCH   1   9
BRANCH   2  24
ATOM     24  O   UNL     1      35.184 -18.392 -24.273  0.00  0.00    -0.453 OA
BRANCH  24  26
ATOM     25  N   UNL     1      36.206 -19.979 -20.570  0.00  0.00    -0.239 NA
ATOM     26  C   UNL     1      35.523 -18.920 -23.039  0.00  0.00    +0.149 C 
ATOM     27  C   UNL     1      34.584 -19.638 -22.330  0.00  0.00    +0.061 C 
ATOM     28  C   UNL     1      34.974 -20.146 -21.102  0.00  0.00    +0.137 C 
ATOM     29  C   UNL     1      36.796 -18.717 -22.547  0.00  0.00    +0.058 C 
ATOM     30  C   UNL     1      37.086 -19.266 -21.308  0.00  0.00    +0.102 C 
BRANCH  28  33
ATOM     31  O   UNL     1      32.820 -20.668 -20.336  0.00  0.00    -0.268 OA
ATOM     32  N   UNL     1      34.573 -21.941 -19.508  0.00  0.00    -0.298 N 
ATOM     33  C   UNL     1      34.039 -20.914 -20.297  0.00  0.00    +0.264 C 
ATOM     34  C   UNL     1      33.770 -22.805 -18.672  0.00  0.00    +0.111 C 
ATOM     35  H   UNL     1      35.547 -22.082 -19.523  0.00  0.00    +0.150 HD
ENDBRANCH  28  33
ENDBRANCH  24  26
ENDBRANCH   2  24
TORSDOF 6
ENDMDL
MODEL 6
REMARK VINA RESULT:     -11.5      5.417     11.839
REMARK  Name = 216239
REMARK  6 active torsions:
REMARK  status: ('A' for Active; 'I' for Inactive)
REMARK    1  A    between atoms: C_1  and  N_9
REMARK    2  A    between atoms: C_2  and  O_24
REMARK    3  A    between atoms: N_8  and  C_14
REMARK    4  A    between atoms: C_15  and  C_23
REMARK    5  A    between atoms: O_24  and  C_26
REMARK    6  A    between atoms: C_28  and  C_33
REMARK                            x       y       z     vdW  Elec       q    Type
REMARK                         _______ _______ _______ _____ _____    ______ ____
ROOT
ATOM      1  C   UNL     1      35.353 -18.898 -23.256  0.00  0.00    +0.052 C 
ATOM      2  C   UNL     1      34.536 -17.286 -25.355  0.00  0.00    +0.145 C 
ATOM      3  C   UNL     1      35.726 -17.565 -23.271  0.00  0.00    +0.018 C 
ATOM      4  C   UNL     1      34.580 -19.443 -24.268  0.00  0.00    +0.018 C 
ATOM      5  C   UNL     1      35.314 -16.753 -24.328  0.00  0.00    +0.039 C 
ATOM      6  C   UNL     1      34.169 -18.631 -25.326  0.00  0.00    +0.039 C 
ENDROOT
BRANCH   1   9
ATOM      7  O   UNL     1      33.763 -20.164 -21.068  0.00  0.00    -0.252 OA
ATOM      8  N   UNL     1      35.789 -21.050 -20.294  0.00  0.00    -0.268 N 
ATOM      9  N   UNL     1      35.770 -19.721 -22.184  0.00  0.00    -0.268 N 
ATOM     10  C   UNL     1      34.978 -20.294 -21.176  0.00  0.00    +0.308 C 
ATOM     11  H   UNL     1      36.751 -21.064 -20.505  0.00  0.00    +0.156 HD
ATOM     12  H   UNL     1      36.734 -19.916 -22.138  0.00  0.00    +0.156 HD
BRANCH   8  14
ATOM     13 CL   UNL     1      34.131 -24.130 -15.530  0.00  0.00    -0.082 Cl
ATOM     14  C   UNL     1      35.408 -21.777 -19.166  0.00  0.00    +0.052 C 
ATOM     15  C   UNL     1      35.949 -22.754 -17.024  0.00  0.00    +0.083 C 
ATOM     16  C   UNL     1      36.331 -22.028 -18.152  0.00  0.00    +0.019 C 
ATOM     17  C   UNL     1      34.101 -22.253 -19.054  0.00  0.00    +0.016 C 
ATOM     18  C   UNL     1      34.642 -23.230 -16.911  0.00  0.00    +0.062 C 
ATOM     19  C   UNL     1      33.719 -22.979 -17.926  0.00  0.00    +0.013 C 
BRANCH  15  23
ATOM     20  F   UNL     1      37.275 -24.318 -15.794  0.00  0.00    -0.166 F 
ATOM     21  F   UNL     1      38.160 -22.377 -16.192  0.00  0.00    -0.166 F 
ATOM     22  F   UNL     1      36.556 -22.561 -14.733  0.00  0.00    -0.166 F 
ATOM     23  C   UNL     1      36.967 -22.999 -15.958  0.00  0.00    +0.419 C 
ENDBRANCH  15  23
ENDBRANCH   8  14
ENDBRANCH   1   9
BRANCH   2  24
ATOM     24  O   UNL     1      34.136 -16.494 -26.387  0.00  0.00    -0.453 OA
BRANCH  24  26
ATOM     25  N   UNL     1      33.552 -12.453 -25.609  0.00  0.00    -0.239 NA
ATOM     26  C   UNL     1      33.941 -15.148 -26.128  0.00  0.00    +0.149 C 
ATOM     27  C   UNL     1      33.711 -14.738 -24.832  0.00  0.00    +0.061 C 
ATOM     28  C   UNL     1      33.523 -13.381 -24.625  0.00  0.00    +0.137 C 
ATOM     29  C   UNL     1      33.982 -14.248 -27.172  0.00  0.00    +0.058 C 
ATOM     30  C   UNL     1      33.781 -12.913 -26.860  0.00  0.00    +0.102 C 
BRANCH  28  33
ATOM     31  O   UNL     1      33.141 -11.650 -23.090  0.00  0.00    -0.268 OA
ATOM     32  N   UNL     1      33.177 -13.813 -22.255  0.00  0.00    -0.298 N 
ATOM     33  C   UNL     1      33.276 -12.871 -23.287  0.00  0.00    +0.264 C 
ATOM     34  C   UNL     1      32.912 -13.464 -20.878  0.00  0.00    +0.111 C 
ATOM     35  H   UNL     1      33.295 -14.764 -22.480  0.00  0.00    +0.150 HD
ENDBRANCH  28  33
ENDBRANCH  24  26
ENDBRANCH   2  24
TORSDOF 6
ENDMDL
MODEL 7
REMARK VINA RESULT:     -11.5      4.579      7.869
REMARK  Name = 216239
REMARK  6 active torsions:
REMARK  status: ('A' for Active; 'I' for Inactive)
REMARK    1  A    between atoms: C_1  and  N_9
REMARK    2  A    between atoms: C_2  and  O_24
REMARK    3  A    between atoms: N_8  and  C_14
REMARK    4  A    between atoms: C_15  and  C_23
REMARK    5  A    between atoms: O_24  and  C_26
REMARK    6  A    between atoms: C_28  and  C_33
REMARK                            x       y       z     vdW  Elec       q    Type
REMARK                         _______ _______ _______ _____ _____    ______ ____
ROOT
ATOM      1  C   UNL     1      35.047 -16.082 -23.748  0.00  0.00    +0.052 C 
ATOM      2  C   UNL     1      35.617 -18.590 -22.718  0.00  0.00    +0.145 C 
ATOM      3  C   UNL     1      35.352 -16.209 -22.404  0.00  0.00    +0.018 C 
ATOM      4  C   UNL     1      35.020 -17.182 -24.589  0.00  0.00    +0.018 C 
ATOM      5  C   UNL     1      35.639 -17.472 -21.885  0.00  0.00    +0.039 C 
ATOM      6  C   UNL     1      35.306 -18.445 -24.071  0.00  0.00    +0.039 C 
ENDROOT
BRANCH   1   9
ATOM      7  O   UNL     1      34.927 -13.425 -22.390  0.00  0.00    -0.252 OA
ATOM      8  N   UNL     1      34.382 -12.531 -24.485  0.00  0.00    -0.268 N 
ATOM      9  N   UNL     1      34.755 -14.801 -24.273  0.00  0.00    -0.268 N 
ATOM     10  C   UNL     1      34.712 -13.576 -23.587  0.00  0.00    +0.308 C 
ATOM     11  H   UNL     1      34.236 -12.802 -25.421  0.00  0.00    +0.156 HD
ATOM     12  H   UNL     1      34.559 -14.763 -25.236  0.00  0.00    +0.156 HD
BRANCH   8  14
ATOM     13 CL   UNL     1      33.801  -6.754 -23.380  0.00  0.00    -0.082 Cl
ATOM     14  C   UNL     1      34.235 -11.169 -24.221  0.00  0.00    +0.052 C 
ATOM     15  C   UNL     1      32.915  -9.332 -23.374  0.00  0.00    +0.083 C 
ATOM     16  C   UNL     1      33.061 -10.693 -23.639  0.00  0.00    +0.019 C 
ATOM     17  C   UNL     1      35.264 -10.283 -24.541  0.00  0.00    +0.016 C 
ATOM     18  C   UNL     1      33.944  -8.445 -23.694  0.00  0.00    +0.062 C 
ATOM     19  C   UNL     1      35.118  -8.921 -24.277  0.00  0.00    +0.013 C 
BRANCH  15  23
ATOM     20  F   UNL     1      31.827  -8.229 -21.552  0.00  0.00    -0.166 F 
ATOM     21  F   UNL     1      30.949  -7.977 -23.519  0.00  0.00    -0.166 F 
ATOM     22  F   UNL     1      30.778  -9.886 -22.492  0.00  0.00    -0.166 F 
ATOM     23  C   UNL     1      31.643  -8.862 -22.746  0.00  0.00    +0.419 C 
ENDBRANCH  15  23
ENDBRANCH   8  14
ENDBRANCH   1   9
BRANCH   2  24
ATOM     24  O   UNL     1      35.895 -19.822 -22.212  0.00  0.00    -0.453 OA
BRANCH  24  26
ATOM     25  N   UNL     1      33.225 -21.423 -19.459  0.00  0.00    -0.239 NA
ATOM     26  C   UNL     1      35.006 -20.356 -21.295  0.00  0.00    +0.149 C 
ATOM     27  C   UNL     1      35.488 -21.119 -20.253  0.00  0.00    +0.061 C 
ATOM     28  C   UNL     1      34.558 -21.629 -19.362  0.00  0.00    +0.137 C 
ATOM     29  C   UNL     1      33.657 -20.112 -21.444  0.00  0.00    +0.058 C 
ATOM     30  C   UNL     1      32.808 -20.669 -20.500  0.00  0.00    +0.102 C 
BRANCH  28  33
ATOM     31  O   UNL     1      36.197 -22.536 -17.952  0.00  0.00    -0.268 OA
ATOM     32  N   UNL     1      33.991 -23.083 -17.495  0.00  0.00    -0.298 N 
ATOM     33  C   UNL     1      34.990 -22.442 -18.238  0.00  0.00    +0.264 C 
ATOM     34  C   UNL     1      34.259 -23.906 -16.337  0.00  0.00    +0.111 C 
ATOM     35  H   UNL     1      33.054 -22.968 -17.777  0.00  0.00    +0.150 HD
ENDBRANCH  28  33
ENDBRANCH  24  26
ENDBRANCH   2  24
TORSDOF 6
ENDMDL
MODEL 8
REMARK VINA RESULT:     -11.4      4.840      7.997
REMARK  Name = 216239
REMARK  6 active torsions:
REMARK  status: ('A' for Active; 'I' for Inactive)
REMARK    1  A    between atoms: C_1  and  N_9
REMARK    2  A    between atoms: C_2  and  O_24
REMARK    3  A    between atoms: N_8  and  C_14
REMARK    4  A    between atoms: C_15  and  C_23
REMARK    5  A    between atoms: O_24  and  C_26
REMARK    6  A    between atoms: C_28  and  C_33
REMARK                            x       y       z     vdW  Elec       q    Type
REMARK                         _______ _______ _______ _____ _____    ______ ____
ROOT
ATOM      1  C   UNL     1      34.991 -15.743 -23.519  0.00  0.00    +0.052 C 
ATOM      2  C   UNL     1      35.720 -18.308 -22.768  0.00  0.00    +0.145 C 
ATOM      3  C   UNL     1      35.054 -16.738 -24.479  0.00  0.00    +0.018 C 
ATOM      4  C   UNL     1      35.285 -16.003 -22.190  0.00  0.00    +0.018 C 
ATOM      5  C   UNL     1      35.421 -18.030 -24.101  0.00  0.00    +0.039 C 
ATOM      6  C   UNL     1      35.654 -17.294 -21.812  0.00  0.00    +0.039 C 
ENDROOT
BRANCH   1   9
ATOM      7  O   UNL     1      33.851 -13.511 -21.895  0.00  0.00    -0.252 OA
ATOM      8  N   UNL     1      33.852 -12.255 -23.872  0.00  0.00    -0.268 N 
ATOM      9  N   UNL     1      34.619 -14.434 -23.902  0.00  0.00    -0.268 N 
ATOM     10  C   UNL     1      34.085 -13.416 -23.095  0.00  0.00    +0.308 C 
ATOM     11  H   UNL     1      34.087 -12.324 -24.826  0.00  0.00    +0.156 HD
ATOM     12  H   UNL     1      34.750 -14.207 -24.851  0.00  0.00    +0.156 HD
BRANCH   8  14
ATOM     13 CL   UNL     1      31.616  -7.066 -22.136  0.00  0.00    -0.082 Cl
ATOM     14  C   UNL     1      33.332 -11.025 -23.467  0.00  0.00    +0.052 C 
ATOM     15  C   UNL     1      33.421  -8.611 -23.472  0.00  0.00    +0.083 C 
ATOM     16  C   UNL     1      33.942  -9.840 -23.877  0.00  0.00    +0.019 C 
ATOM     17  C   UNL     1      32.202 -10.982 -22.650  0.00  0.00    +0.016 C 
ATOM     18  C   UNL     1      32.290  -8.567 -22.655  0.00  0.00    +0.062 C 
ATOM     19  C   UNL     1      31.681  -9.753 -22.245  0.00  0.00    +0.013 C 
BRANCH  15  23
ATOM     20  F   UNL     1      34.630  -6.623 -22.919  0.00  0.00    -0.166 F 
ATOM     21  F   UNL     1      35.141  -7.596 -24.789  0.00  0.00    -0.166 F 
ATOM     22  F   UNL     1      33.257  -6.525 -24.601  0.00  0.00    -0.166 F 
ATOM     23  C   UNL     1      34.102  -7.363 -23.935  0.00  0.00    +0.419 C 
ENDBRANCH  15  23
ENDBRANCH   8  14
ENDBRANCH   1   9
BRANCH   2  24
ATOM     24  O   UNL     1      36.080 -19.568 -22.400  0.00  0.00    -0.453 OA
BRANCH  24  26
ATOM     25  N   UNL     1      33.775 -21.464 -19.508  0.00  0.00    -0.239 NA
ATOM     26  C   UNL     1      35.313 -20.200 -21.437  0.00  0.00    +0.149 C 
ATOM     27  C   UNL     1      35.940 -20.857 -20.399  0.00  0.00    +0.061 C 
ATOM     28  C   UNL     1      35.127 -21.472 -19.460  0.00  0.00    +0.137 C 
ATOM     29  C   UNL     1      33.938 -20.159 -21.536  0.00  0.00    +0.058 C 
ATOM     30  C   UNL     1      33.215 -20.806 -20.547  0.00  0.00    +0.102 C 
BRANCH  28  33
ATOM     31  O   UNL     1      35.113 -23.136 -17.809  0.00  0.00    -0.268 OA
ATOM     32  N   UNL     1      36.978 -21.761 -17.907  0.00  0.00    -0.298 N 
ATOM     33  C   UNL     1      35.714 -22.183 -18.337  0.00  0.00    +0.264 C 
ATOM     34  C   UNL     1      37.700 -22.382 -16.819  0.00  0.00    +0.111 C 
ATOM     35  H   UNL     1      37.397 -21.000 -18.369  0.00  0.00    +0.150 HD
ENDBRANCH  28  33
ENDBRANCH  24  26
ENDBRANCH   2  24
TORSDOF 6
ENDMDL
MODEL 9
REMARK VINA RESULT:     -11.4      5.470     11.548
REMARK  Name = 216239
REMARK  6 active torsions:
REMARK  status: ('A' for Active; 'I' for Inactive)
REMARK    1  A    between atoms: C_1  and  N_9
REMARK    2  A    between atoms: C_2  and  O_24
REMARK    3  A    between atoms: N_8  and  C_14
REMARK    4  A    between atoms: C_15  and  C_23
REMARK    5  A    between atoms: O_24  and  C_26
REMARK    6  A    between atoms: C_28  and  C_33
REMARK                            x       y       z     vdW  Elec       q    Type
REMARK                         _______ _______ _______ _____ _____    ______ ____
ROOT
ATOM      1  C   UNL     1      35.620 -20.692 -20.417  0.00  0.00    +0.052 C 
ATOM      2  C   UNL     1      36.015 -19.097 -22.646  0.00  0.00    +0.145 C 
ATOM      3  C   UNL     1      34.568 -20.478 -21.291  0.00  0.00    +0.018 C 
ATOM      4  C   UNL     1      36.865 -20.126 -20.632  0.00  0.00    +0.018 C 
ATOM      5  C   UNL     1      34.767 -19.675 -22.414  0.00  0.00    +0.039 C 
ATOM      6  C   UNL     1      37.064 -19.321 -21.754  0.00  0.00    +0.039 C 
ENDROOT
BRANCH   1   9
ATOM      7  O   UNL     1      33.086 -21.590 -19.116  0.00  0.00    -0.252 OA
ATOM      8  N   UNL     1      34.438 -22.719 -17.572  0.00  0.00    -0.268 N 
ATOM      9  N   UNL     1      35.417 -21.507 -19.278  0.00  0.00    -0.268 N 
ATOM     10  C   UNL     1      34.197 -21.902 -18.704  0.00  0.00    +0.308 C 
ATOM     11  H   UNL     1      35.385 -22.885 -17.358  0.00  0.00    +0.156 HD
ATOM     12  H   UNL     1      36.230 -21.838 -18.833  0.00  0.00    +0.156 HD
BRANCH   8  14
ATOM     13 CL   UNL     1      30.550 -25.283 -13.933  0.00  0.00    -0.082 Cl
ATOM     14  C   UNL     1      33.512 -23.319 -16.718  0.00  0.00    +0.052 C 
ATOM     15  C   UNL     1      31.223 -23.704 -16.050  0.00  0.00    +0.083 C 
ATOM     16  C   UNL     1      32.148 -23.103 -16.904  0.00  0.00    +0.019 C 
ATOM     17  C   UNL     1      33.954 -24.135 -15.676  0.00  0.00    +0.016 C 
ATOM     18  C   UNL     1      31.664 -24.521 -15.008  0.00  0.00    +0.062 C 
ATOM     19  C   UNL     1      33.029 -24.736 -14.822  0.00  0.00    +0.013 C 
BRANCH  15  23
ATOM     20  F   UNL     1      29.148 -22.836 -15.237  0.00  0.00    -0.166 F 
ATOM     21  F   UNL     1      29.524 -22.653 -17.366  0.00  0.00    -0.166 F 
ATOM     22  F   UNL     1      29.068 -24.599 -16.507  0.00  0.00    -0.166 F 
ATOM     23  C   UNL     1      29.769 -23.450 -16.285  0.00  0.00    +0.419 C 
ENDBRANCH  15  23
ENDBRANCH   8  14
ENDBRANCH   1   9
BRANCH   2  24
ATOM     24  O   UNL     1      36.208 -18.311 -23.740  0.00  0.00    -0.453 OA
BRANCH  24  26
ATOM     25  N   UNL     1      34.233 -14.656 -23.865  0.00  0.00    -0.239 NA
ATOM     26  C   UNL     1      35.551 -17.093 -23.783  0.00  0.00    +0.149 C 
ATOM     27  C   UNL     1      35.061 -16.633 -24.986  0.00  0.00    +0.061 C 
ATOM     28  C   UNL     1      34.410 -15.410 -24.974  0.00  0.00    +0.137 C 
ATOM     29  C   UNL     1      35.400 -16.369 -22.619  0.00  0.00    +0.058 C 
ATOM     30  C   UNL     1      34.735 -15.157 -22.714  0.00  0.00    +0.102 C 
BRANCH  28  33
ATOM     31  O   UNL     1      33.654 -15.591 -27.186  0.00  0.00    -0.268 OA
ATOM     32  N   UNL     1      33.575 -13.488 -26.212  0.00  0.00    -0.298 N 
ATOM     33  C   UNL     1      33.865 -14.858 -26.203  0.00  0.00    +0.264 C 
ATOM     34  C   UNL     1      33.008 -12.799 -27.350  0.00  0.00    +0.111 C 
ATOM     35  H   UNL     1      33.767 -12.966 -25.400  0.00  0.00    +0.150 HD
ENDBRANCH  28  33
ENDBRANCH  24  26
ENDBRANCH   2  24
TORSDOF 6
ENDMDL
