MODEL 1
REMARK VINA RESULT:     -11.5      0.000      0.000
REMARK  Name = 5327686
REMARK  3 active torsions:
REMARK  status: ('A' for Active; 'I' for Inactive)
REMARK    1  A    between atoms: C_4  and  C_10
REMARK    2  A    between atoms: C_5  and  C_23
REMARK    3  A    between atoms: C_17  and  N_21
REMARK                            x       y       z     vdW  Elec       q    Type
REMARK                         _______ _______ _______ _____ _____    ______ ____
ROOT
ATOM      1  O   UNL     1      31.880 -22.904 -17.855  0.00  0.00    -0.270 OA
ATOM      2  O   UNL     1      31.742 -25.252 -13.927  0.00  0.00    -0.270 OA
ATOM      3  N   UNL     1      31.424 -24.133 -15.937  0.00  0.00    -0.248 N 
ATOM      4  C   UNL     1      33.591 -23.498 -16.266  0.00  0.00    +0.059 C 
ATOM      5  C   UNL     1      33.548 -24.179 -15.106  0.00  0.00    +0.059 C 
ATOM      6  C   UNL     1      32.213 -23.456 -16.819  0.00  0.00    +0.252 C 
ATOM      7  C   UNL     1      32.143 -24.602 -14.879  0.00  0.00    +0.252 C 
ATOM      8  H   UNL     1      30.454 -24.266 -16.050  0.00  0.00    +0.158 HD
ENDROOT
BRANCH   4  10
ATOM      9  N   UNL     1      36.772 -22.163 -17.299  0.00  0.00    -0.284 N 
ATOM     10  C   UNL     1      34.702 -22.875 -16.915  0.00  0.00    +0.021 C 
ATOM     11  C   UNL     1      34.716 -22.190 -18.164  0.00  0.00    +0.015 C 
ATOM     12  C   UNL     1      36.026 -21.756 -18.381  0.00  0.00    +0.053 C 
ATOM     13  C   UNL     1      35.982 -22.840 -16.408  0.00  0.00    +0.066 C 
ATOM     14  C   UNL     1      33.737 -21.900 -19.135  0.00  0.00    +0.003 C 
ATOM     15  C   UNL     1      36.406 -21.043 -19.524  0.00  0.00    +0.039 C 
ATOM     16  C   UNL     1      38.187 -21.922 -17.114  0.00  0.00    +0.117 C 
ATOM     17  C   UNL     1      35.417 -20.766 -20.472  0.00  0.00    +0.144 C 
ATOM     18  C   UNL     1      34.102 -21.188 -20.283  0.00  0.00    +0.024 C 
BRANCH  17  21
ATOM     19  O   UNL     1      36.858 -19.441 -21.690  0.00  0.00    -0.126 OA
ATOM     20  O   UNL     1      34.951 -20.026 -22.605  0.00  0.00    -0.126 OA
ATOM     21  N   UNL     1      35.759 -20.042 -21.646  0.00  0.00    +0.058 N 
ENDBRANCH  17  21
ENDBRANCH   4  10
BRANCH   5  23
ATOM     22  N   UNL     1      35.845 -24.546 -12.360  0.00  0.00    -0.284 N 
ATOM     23  C   UNL     1      34.608 -24.505 -14.202  0.00  0.00    +0.021 C 
ATOM     24  C   UNL     1      35.721 -25.359 -14.434  0.00  0.00    +0.015 C 
ATOM     25  C   UNL     1      36.481 -25.368 -13.262  0.00  0.00    +0.052 C 
ATOM     26  C   UNL     1      34.712 -24.019 -12.919  0.00  0.00    +0.066 C 
ATOM     27  C   UNL     1      36.156 -26.130 -15.531  0.00  0.00    +0.001 C 
ATOM     28  C   UNL     1      37.660 -26.111 -13.133  0.00  0.00    +0.015 C 
ATOM     29  C   UNL     1      36.297 -24.264 -11.015  0.00  0.00    +0.117 C 
ATOM     30  C   UNL     1      37.333 -26.878 -15.415  0.00  0.00    +0.000 C 
ATOM     31  C   UNL     1      38.072 -26.867 -14.234  0.00  0.00    +0.001 C 
ENDBRANCH   5  23
TORSDOF 3
ENDMDL
MODEL 2
REMARK VINA RESULT:     -11.1      0.786      2.004
REMARK  Name = 5327686
REMARK  3 active torsions:
REMARK  status: ('A' for Active; 'I' for Inactive)
REMARK    1  A    between atoms: C_4  and  C_10
REMARK    2  A    between atoms: C_5  and  C_23
REMARK    3  A    between atoms: C_17  and  N_21
REMARK                            x       y       z     vdW  Elec       q    Type
REMARK                         _______ _______ _______ _____ _____    ______ ____
ROOT
ATOM      1  O   UNL     1      31.845 -22.461 -17.602  0.00  0.00    -0.270 OA
ATOM      2  O   UNL     1      32.180 -25.628 -14.314  0.00  0.00    -0.270 OA
ATOM      3  N   UNL     1      31.620 -24.072 -15.944  0.00  0.00    -0.248 N 
ATOM      4  C   UNL     1      33.745 -23.470 -16.517  0.00  0.00    +0.059 C 
ATOM      5  C   UNL     1      33.843 -24.393 -15.543  0.00  0.00    +0.059 C 
ATOM      6  C   UNL     1      32.302 -23.246 -16.788  0.00  0.00    +0.252 C 
ATOM      7  C   UNL     1      32.466 -24.797 -15.160  0.00  0.00    +0.252 C 
ATOM      8  H   UNL     1      30.638 -24.135 -15.904  0.00  0.00    +0.158 HD
ENDROOT
BRANCH   4  10
ATOM      9  N   UNL     1      36.771 -21.894 -17.671  0.00  0.00    -0.284 N 
ATOM     10  C   UNL     1      34.778 -22.762 -17.208  0.00  0.00    +0.021 C 
ATOM     11  C   UNL     1      34.690 -22.079 -18.455  0.00  0.00    +0.015 C 
ATOM     12  C   UNL     1      35.953 -21.544 -18.722  0.00  0.00    +0.053 C 
ATOM     13  C   UNL     1      36.071 -22.629 -16.752  0.00  0.00    +0.066 C 
ATOM     14  C   UNL     1      33.653 -21.865 -19.384  0.00  0.00    +0.003 C 
ATOM     15  C   UNL     1      36.231 -20.805 -19.876  0.00  0.00    +0.039 C 
ATOM     16  C   UNL     1      38.169 -21.543 -17.542  0.00  0.00    +0.117 C 
ATOM     17  C   UNL     1      35.187 -20.605 -20.784  0.00  0.00    +0.144 C 
ATOM     18  C   UNL     1      33.917 -21.126 -20.544  0.00  0.00    +0.024 C 
BRANCH  17  21
ATOM     19  O   UNL     1      34.538 -19.825 -22.854  0.00  0.00    -0.126 OA
ATOM     20  O   UNL     1      36.515 -19.250 -22.094  0.00  0.00    -0.126 OA
ATOM     21  N   UNL     1      35.425 -19.857 -21.968  0.00  0.00    +0.058 N 
ENDBRANCH  17  21
ENDBRANCH   4  10
BRANCH   5  23
ATOM     22  N   UNL     1      36.841 -26.184 -14.678  0.00  0.00    -0.284 N 
ATOM     23  C   UNL     1      35.010 -24.959 -14.939  0.00  0.00    +0.021 C 
ATOM     24  C   UNL     1      35.531 -24.707 -13.641  0.00  0.00    +0.015 C 
ATOM     25  C   UNL     1      36.681 -25.488 -13.502  0.00  0.00    +0.052 C 
ATOM     26  C   UNL     1      35.836 -25.873 -15.553  0.00  0.00    +0.066 C 
ATOM     27  C   UNL     1      35.136 -23.884 -12.566  0.00  0.00    +0.001 C 
ATOM     28  C   UNL     1      37.457 -25.489 -12.338  0.00  0.00    +0.015 C 
ATOM     29  C   UNL     1      37.908 -27.120 -14.962  0.00  0.00    +0.117 C 
ATOM     30  C   UNL     1      35.903 -23.876 -11.396  0.00  0.00    +0.000 C 
ATOM     31  C   UNL     1      37.046 -24.666 -11.285  0.00  0.00    +0.001 C 
ENDBRANCH   5  23
TORSDOF 3
ENDMDL
MODEL 3
REMARK VINA RESULT:     -11.1      2.785      6.369
REMARK  Name = 5327686
REMARK  3 active torsions:
REMARK  status: ('A' for Active; 'I' for Inactive)
REMARK    1  A    between atoms: C_4  and  C_10
REMARK    2  A    between atoms: C_5  and  C_23
REMARK    3  A    between atoms: C_17  and  N_21
REMARK                            x       y       z     vdW  Elec       q    Type
REMARK                         _______ _______ _______ _____ _____    ______ ____
ROOT
ATOM      1  O   UNL     1      32.418 -25.296 -13.143  0.00  0.00    -0.270 OA
ATOM      2  O   UNL     1      31.973 -23.221 -17.199  0.00  0.00    -0.270 OA
ATOM      3  N   UNL     1      31.813 -24.350 -15.177  0.00  0.00    -0.248 N 
ATOM      4  C   UNL     1      33.994 -24.131 -14.545  0.00  0.00    +0.059 C 
ATOM      5  C   UNL     1      33.866 -23.531 -15.742  0.00  0.00    +0.059 C 
ATOM      6  C   UNL     1      32.665 -24.675 -14.164  0.00  0.00    +0.252 C 
ATOM      7  C   UNL     1      32.449 -23.663 -16.167  0.00  0.00    +0.252 C 
ATOM      8  H   UNL     1      30.856 -24.585 -15.193  0.00  0.00    +0.158 HD
ENDROOT
BRANCH   4  10
ATOM      9  N   UNL     1      36.462 -24.308 -11.928  0.00  0.00    -0.284 N 
ATOM     10  C   UNL     1      35.155 -24.290 -13.726  0.00  0.00    +0.021 C 
ATOM     11  C   UNL     1      36.458 -24.708 -14.122  0.00  0.00    +0.015 C 
ATOM     12  C   UNL     1      37.257 -24.713 -12.976  0.00  0.00    +0.053 C 
ATOM     13  C   UNL     1      35.192 -24.051 -12.369  0.00  0.00    +0.066 C 
ATOM     14  C   UNL     1      37.034 -25.088 -15.351  0.00  0.00    +0.003 C 
ATOM     15  C   UNL     1      38.607 -25.077 -12.998  0.00  0.00    +0.039 C 
ATOM     16  C   UNL     1      36.891 -24.171 -10.552  0.00  0.00    +0.117 C 
ATOM     17  C   UNL     1      39.157 -25.448 -14.228  0.00  0.00    +0.144 C 
ATOM     18  C   UNL     1      38.384 -25.455 -15.388  0.00  0.00    +0.024 C 
BRANCH  17  21
ATOM     19  O   UNL     1      40.882 -26.913 -13.788  0.00  0.00    -0.126 OA
ATOM     20  O   UNL     1      41.339 -25.056 -14.863  0.00  0.00    -0.126 OA
ATOM     21  N   UNL     1      40.526 -25.824 -14.297  0.00  0.00    +0.058 N 
ENDBRANCH  17  21
ENDBRANCH   4  10
BRANCH   5  23
ATOM     22  N   UNL     1      36.681 -21.716 -17.057  0.00  0.00    -0.284 N 
ATOM     23  C   UNL     1      34.846 -22.847 -16.527  0.00  0.00    +0.021 C 
ATOM     24  C   UNL     1      34.843 -22.628 -17.932  0.00  0.00    +0.015 C 
ATOM     25  C   UNL     1      36.005 -21.917 -18.239  0.00  0.00    +0.052 C 
ATOM     26  C   UNL     1      35.988 -22.274 -16.016  0.00  0.00    +0.066 C 
ATOM     27  C   UNL     1      33.960 -22.970 -18.977  0.00  0.00    +0.001 C 
ATOM     28  C   UNL     1      36.329 -21.527 -19.544  0.00  0.00    +0.015 C 
ATOM     29  C   UNL     1      37.938 -21.014 -16.916  0.00  0.00    +0.117 C 
ATOM     30  C   UNL     1      34.272 -22.586 -20.286  0.00  0.00    +0.000 C 
ATOM     31  C   UNL     1      35.439 -21.876 -20.563  0.00  0.00    +0.001 C 
ENDBRANCH   5  23
TORSDOF 3
ENDMDL
MODEL 4
REMARK VINA RESULT:     -10.4      2.257      5.213
REMARK  Name = 5327686
REMARK  3 active torsions:
REMARK  status: ('A' for Active; 'I' for Inactive)
REMARK    1  A    between atoms: C_4  and  C_10
REMARK    2  A    between atoms: C_5  and  C_23
REMARK    3  A    between atoms: C_17  and  N_21
REMARK                            x       y       z     vdW  Elec       q    Type
REMARK                         _______ _______ _______ _____ _____    ______ ____
ROOT
ATOM      1  O   UNL     1      33.750 -22.346 -18.801  0.00  0.00    -0.270 OA
ATOM      2  O   UNL     1      38.077 -22.197 -17.314  0.00  0.00    -0.270 OA
ATOM      3  N   UNL     1      36.026 -22.107 -18.397  0.00  0.00    -0.248 N 
ATOM      4  C   UNL     1      34.772 -23.027 -16.728  0.00  0.00    +0.059 C 
ATOM      5  C   UNL     1      36.045 -22.994 -16.295  0.00  0.00    +0.059 C 
ATOM      6  C   UNL     1      34.742 -22.456 -18.099  0.00  0.00    +0.252 C 
ATOM      7  C   UNL     1      36.875 -22.394 -17.371  0.00  0.00    +0.252 C 
ATOM      8  H   UNL     1      36.304 -21.699 -19.249  0.00  0.00    +0.158 HD
ENDROOT
BRANCH   4  10
ATOM      9  N   UNL     1      32.316 -24.607 -14.619  0.00  0.00    -0.284 N 
ATOM     10  C   UNL     1      33.601 -23.523 -16.073  0.00  0.00    +0.021 C 
ATOM     11  C   UNL     1      32.238 -23.286 -16.416  0.00  0.00    +0.015 C 
ATOM     12  C   UNL     1      31.454 -23.977 -15.488  0.00  0.00    +0.053 C 
ATOM     13  C   UNL     1      33.614 -24.340 -14.964  0.00  0.00    +0.066 C 
ATOM     14  C   UNL     1      31.596 -22.547 -17.429  0.00  0.00    +0.003 C 
ATOM     15  C   UNL     1      30.056 -23.964 -15.524  0.00  0.00    +0.039 C 
ATOM     16  C   UNL     1      31.924 -25.435 -13.499  0.00  0.00    +0.117 C 
ATOM     17  C   UNL     1      29.441 -23.225 -16.538  0.00  0.00    +0.144 C 
ATOM     18  C   UNL     1      30.197 -22.526 -17.477  0.00  0.00    +0.024 C 
BRANCH  17  21
ATOM     19  O   UNL     1      27.373 -22.784 -15.619  0.00  0.00    -0.126 OA
ATOM     20  O   UNL     1      27.460 -23.558 -17.671  0.00  0.00    -0.126 OA
ATOM     21  N   UNL     1      28.023 -23.187 -16.613  0.00  0.00    +0.058 N 
ENDBRANCH  17  21
ENDBRANCH   4  10
BRANCH   5  23
ATOM     22  N   UNL     1      37.388 -23.315 -12.972  0.00  0.00    -0.284 N 
ATOM     23  C   UNL     1      36.592 -23.413 -15.042  0.00  0.00    +0.021 C 
ATOM     24  C   UNL     1      36.931 -24.732 -14.634  0.00  0.00    +0.015 C 
ATOM     25  C   UNL     1      37.427 -24.643 -13.331  0.00  0.00    +0.052 C 
ATOM     26  C   UNL     1      36.886 -22.563 -14.000  0.00  0.00    +0.066 C 
ATOM     27  C   UNL     1      36.860 -25.999 -15.248  0.00  0.00    +0.001 C 
ATOM     28  C   UNL     1      37.860 -25.762 -12.610  0.00  0.00    +0.015 C 
ATOM     29  C   UNL     1      37.817 -22.775 -11.700  0.00  0.00    +0.117 C 
ATOM     30  C   UNL     1      37.290 -27.126 -14.538  0.00  0.00    +0.000 C 
ATOM     31  C   UNL     1      37.781 -27.007 -13.239  0.00  0.00    +0.001 C 
ENDBRANCH   5  23
TORSDOF 3
ENDMDL
MODEL 5
REMARK VINA RESULT:     -10.3      2.929      6.162
REMARK  Name = 5327686
REMARK  3 active torsions:
REMARK  status: ('A' for Active; 'I' for Inactive)
REMARK    1  A    between atoms: C_4  and  C_10
REMARK    2  A    between atoms: C_5  and  C_23
REMARK    3  A    between atoms: C_17  and  N_21
REMARK                            x       y       z     vdW  Elec       q    Type
REMARK                         _______ _______ _______ _____ _____    ______ ____
ROOT
ATOM      1  O   UNL     1      32.937 -25.291 -12.572  0.00  0.00    -0.270 OA
ATOM      2  O   UNL     1      31.305 -24.077 -16.673  0.00  0.00    -0.270 OA
ATOM      3  N   UNL     1      31.762 -24.808 -14.517  0.00  0.00    -0.248 N 
ATOM      4  C   UNL     1      33.983 -24.285 -14.495  0.00  0.00    +0.059 C 
ATOM      5  C   UNL     1      33.505 -23.939 -15.704  0.00  0.00    +0.059 C 
ATOM      6  C   UNL     1      32.860 -24.858 -13.710  0.00  0.00    +0.252 C 
ATOM      7  C   UNL     1      32.058 -24.270 -15.734  0.00  0.00    +0.252 C 
ATOM      8  H   UNL     1      30.867 -25.123 -14.254  0.00  0.00    +0.158 HD
ENDROOT
BRANCH   4  10
ATOM      9  N   UNL     1      37.023 -23.537 -12.715  0.00  0.00    -0.284 N 
ATOM     10  C   UNL     1      35.312 -24.183 -13.978  0.00  0.00    +0.021 C 
ATOM     11  C   UNL     1      36.480 -24.869 -14.420  0.00  0.00    +0.015 C 
ATOM     12  C   UNL     1      37.538 -24.446 -13.611  0.00  0.00    +0.053 C 
ATOM     13  C   UNL     1      35.681 -23.371 -12.928  0.00  0.00    +0.066 C 
ATOM     14  C   UNL     1      36.738 -25.813 -15.434  0.00  0.00    +0.003 C 
ATOM     15  C   UNL     1      38.844 -24.922 -13.766  0.00  0.00    +0.039 C 
ATOM     16  C   UNL     1      37.777 -22.848 -11.689  0.00  0.00    +0.117 C 
ATOM     17  C   UNL     1      39.076 -25.857 -14.778  0.00  0.00    +0.144 C 
ATOM     18  C   UNL     1      38.041 -26.298 -15.600  0.00  0.00    +0.024 C 
BRANCH  17  21
ATOM     19  O   UNL     1      40.998 -26.862 -13.995  0.00  0.00    -0.126 OA
ATOM     20  O   UNL     1      40.902 -26.302 -16.115  0.00  0.00    -0.126 OA
ATOM     21  N   UNL     1      40.389 -26.365 -14.972  0.00  0.00    +0.058 N 
ENDBRANCH  17  21
ENDBRANCH   4  10
BRANCH   5  23
ATOM     22  N   UNL     1      34.617 -22.672 -18.884  0.00  0.00    -0.284 N 
ATOM     23  C   UNL     1      34.181 -23.336 -16.811  0.00  0.00    +0.021 C 
ATOM     24  C   UNL     1      35.421 -22.640 -16.804  0.00  0.00    +0.015 C 
ATOM     25  C   UNL     1      35.671 -22.233 -18.117  0.00  0.00    +0.052 C 
ATOM     26  C   UNL     1      33.711 -23.340 -18.105  0.00  0.00    +0.066 C 
ATOM     27  C   UNL     1      36.358 -22.313 -15.802  0.00  0.00    +0.001 C 
ATOM     28  C   UNL     1      36.817 -21.515 -18.480  0.00  0.00    +0.015 C 
ATOM     29  C   UNL     1      34.473 -22.471 -20.310  0.00  0.00    +0.117 C 
ATOM     30  C   UNL     1      37.508 -21.595 -16.152  0.00  0.00    +0.000 C 
ATOM     31  C   UNL     1      37.732 -21.203 -17.470  0.00  0.00    +0.001 C 
ENDBRANCH   5  23
TORSDOF 3
ENDMDL
MODEL 6
REMARK VINA RESULT:      -9.8      8.400     13.580
REMARK  Name = 5327686
REMARK  3 active torsions:
REMARK  status: ('A' for Active; 'I' for Inactive)
REMARK    1  A    between atoms: C_4  and  C_10
REMARK    2  A    between atoms: C_5  and  C_23
REMARK    3  A    between atoms: C_17  and  N_21
REMARK                            x       y       z     vdW  Elec       q    Type
REMARK                         _______ _______ _______ _____ _____    ______ ____
ROOT
ATOM      1  O   UNL     1      33.679 -16.553 -26.208  0.00  0.00    -0.270 OA
ATOM      2  O   UNL     1      33.250 -12.280 -27.794  0.00  0.00    -0.270 OA
ATOM      3  N   UNL     1      33.383 -14.557 -27.360  0.00  0.00    -0.248 N 
ATOM      4  C   UNL     1      33.885 -14.403 -25.140  0.00  0.00    +0.059 C 
ATOM      5  C   UNL     1      33.770 -13.147 -25.608  0.00  0.00    +0.059 C 
ATOM      6  C   UNL     1      33.640 -15.335 -26.270  0.00  0.00    +0.252 C 
ATOM      7  C   UNL     1      33.440 -13.230 -27.054  0.00  0.00    +0.252 C 
ATOM      8  H   UNL     1      33.182 -14.910 -28.257  0.00  0.00    +0.158 HD
ENDROOT
BRANCH   4  10
ATOM      9  N   UNL     1      34.338 -14.920 -21.604  0.00  0.00    -0.284 N 
ATOM     10  C   UNL     1      34.205 -14.857 -23.822  0.00  0.00    +0.021 C 
ATOM     11  C   UNL     1      34.902 -16.042 -23.448  0.00  0.00    +0.015 C 
ATOM     12  C   UNL     1      34.971 -16.057 -22.052  0.00  0.00    +0.053 C 
ATOM     13  C   UNL     1      33.872 -14.189 -22.664  0.00  0.00    +0.066 C 
ATOM     14  C   UNL     1      35.481 -17.107 -24.166  0.00  0.00    +0.003 C 
ATOM     15  C   UNL     1      35.592 -17.087 -21.338  0.00  0.00    +0.039 C 
ATOM     16  C   UNL     1      34.179 -14.537 -20.217  0.00  0.00    +0.117 C 
ATOM     17  C   UNL     1      36.160 -18.132 -22.071  0.00  0.00    +0.144 C 
ATOM     18  C   UNL     1      36.106 -18.145 -23.464  0.00  0.00    +0.024 C 
BRANCH  17  21
ATOM     19  O   UNL     1      38.040 -19.348 -21.522  0.00  0.00    -0.126 OA
ATOM     20  O   UNL     1      36.115 -19.957 -20.663  0.00  0.00    -0.126 OA
ATOM     21  N   UNL     1      36.803 -19.197 -21.386  0.00  0.00    +0.058 N 
ENDBRANCH  17  21
ENDBRANCH   4  10
BRANCH   5  23
ATOM     22  N   UNL     1      34.677  -9.906 -24.335  0.00  0.00    -0.284 N 
ATOM     23  C   UNL     1      33.900 -11.902 -24.917  0.00  0.00    +0.021 C 
ATOM     24  C   UNL     1      33.098 -11.406 -23.853  0.00  0.00    +0.015 C 
ATOM     25  C   UNL     1      33.607 -10.152 -23.506  0.00  0.00    +0.052 C 
ATOM     26  C   UNL     1      34.864 -10.958 -25.191  0.00  0.00    +0.066 C 
ATOM     27  C   UNL     1      31.983 -11.904 -23.149  0.00  0.00    +0.001 C 
ATOM     28  C   UNL     1      33.054  -9.369 -22.486  0.00  0.00    +0.015 C 
ATOM     29  C   UNL     1      35.501  -8.717 -24.314  0.00  0.00    +0.117 C 
ATOM     30  C   UNL     1      31.421 -11.131 -22.126  0.00  0.00    +0.000 C 
ATOM     31  C   UNL     1      31.950  -9.883 -21.802  0.00  0.00    +0.001 C 
ENDBRANCH   5  23
TORSDOF 3
ENDMDL
MODEL 7
REMARK VINA RESULT:      -9.3     10.795     14.544
REMARK  Name = 5327686
REMARK  3 active torsions:
REMARK  status: ('A' for Active; 'I' for Inactive)
REMARK    1  A    between atoms: C_4  and  C_10
REMARK    2  A    between atoms: C_5  and  C_23
REMARK    3  A    between atoms: C_17  and  N_21
REMARK                            x       y       z     vdW  Elec       q    Type
REMARK                         _______ _______ _______ _____ _____    ______ ____
ROOT
ATOM      1  O   UNL     1      31.942  -9.966 -19.957  0.00  0.00    -0.270 OA
ATOM      2  O   UNL     1      31.940 -14.501 -20.579  0.00  0.00    -0.270 OA
ATOM      3  N   UNL     1      31.766 -12.282 -19.918  0.00  0.00    -0.248 N 
ATOM      4  C   UNL     1      32.720 -11.349 -21.769  0.00  0.00    +0.059 C 
ATOM      5  C   UNL     1      32.729 -12.683 -21.947  0.00  0.00    +0.059 C 
ATOM      6  C   UNL     1      32.099 -11.071 -20.449  0.00  0.00    +0.252 C 
ATOM      7  C   UNL     1      32.109 -13.306 -20.750  0.00  0.00    +0.252 C 
ATOM      8  H   UNL     1      31.334 -12.402 -19.042  0.00  0.00    +0.158 HD
ENDROOT
BRANCH   4  10
ATOM      9  N   UNL     1      34.498  -9.241 -24.086  0.00  0.00    -0.284 N 
ATOM     10  C   UNL     1      33.214 -10.314 -22.623  0.00  0.00    +0.021 C 
ATOM     11  C   UNL     1      32.671  -9.012 -22.826  0.00  0.00    +0.015 C 
ATOM     12  C   UNL     1      33.495  -8.361 -23.748  0.00  0.00    +0.053 C 
ATOM     13  C   UNL     1      34.338 -10.422 -23.412  0.00  0.00    +0.066 C 
ATOM     14  C   UNL     1      31.553  -8.324 -22.313  0.00  0.00    +0.003 C 
ATOM     15  C   UNL     1      33.256  -7.054 -24.184  0.00  0.00    +0.039 C 
ATOM     16  C   UNL     1      35.574  -8.973 -25.017  0.00  0.00    +0.117 C 
ATOM     17  C   UNL     1      32.142  -6.391 -23.661  0.00  0.00    +0.144 C 
ATOM     18  C   UNL     1      31.302  -7.015 -22.740  0.00  0.00    +0.024 C 
BRANCH  17  21
ATOM     19  O   UNL     1      30.806  -4.512 -23.681  0.00  0.00    -0.126 OA
ATOM     20  O   UNL     1      32.682  -4.473 -24.821  0.00  0.00    -0.126 OA
ATOM     21  N   UNL     1      31.863  -5.061 -24.074  0.00  0.00    +0.058 N 
ENDBRANCH  17  21
ENDBRANCH   4  10
BRANCH   5  23
ATOM     22  N   UNL     1      33.517 -14.130 -25.146  0.00  0.00    -0.284 N 
ATOM     23  C   UNL     1      33.205 -13.450 -23.057  0.00  0.00    +0.021 C 
ATOM     24  C   UNL     1      34.071 -14.578 -23.032  0.00  0.00    +0.015 C 
ATOM     25  C   UNL     1      34.251 -14.985 -24.356  0.00  0.00    +0.052 C 
ATOM     26  C   UNL     1      32.881 -13.199 -24.371  0.00  0.00    +0.066 C 
ATOM     27  C   UNL     1      34.722 -15.293 -22.007  0.00  0.00    +0.001 C 
ATOM     28  C   UNL     1      35.052 -16.078 -24.707  0.00  0.00    +0.015 C 
ATOM     29  C   UNL     1      33.417 -14.195 -26.588  0.00  0.00    +0.117 C 
ATOM     30  C   UNL     1      35.527 -16.388 -22.345  0.00  0.00    +0.000 C 
ATOM     31  C   UNL     1      35.688 -16.773 -23.675  0.00  0.00    +0.001 C 
ENDBRANCH   5  23
TORSDOF 3
ENDMDL
MODEL 8
REMARK VINA RESULT:      -9.2      9.413     14.229
REMARK  Name = 5327686
REMARK  3 active torsions:
REMARK  status: ('A' for Active; 'I' for Inactive)
REMARK    1  A    between atoms: C_4  and  C_10
REMARK    2  A    between atoms: C_5  and  C_23
REMARK    3  A    between atoms: C_17  and  N_21
REMARK                            x       y       z     vdW  Elec       q    Type
REMARK                         _______ _______ _______ _____ _____    ______ ____
ROOT
ATOM      1  O   UNL     1      31.927 -14.438 -20.253  0.00  0.00    -0.270 OA
ATOM      2  O   UNL     1      31.794  -9.864 -20.108  0.00  0.00    -0.270 OA
ATOM      3  N   UNL     1      31.679 -12.167 -19.831  0.00  0.00    -0.248 N 
ATOM      4  C   UNL     1      32.718 -12.749 -21.778  0.00  0.00    +0.059 C 
ATOM      5  C   UNL     1      32.669 -11.405 -21.740  0.00  0.00    +0.059 C 
ATOM      6  C   UNL     1      32.073 -13.261 -20.542  0.00  0.00    +0.252 C 
ATOM      7  C   UNL     1      31.997 -11.009 -20.476  0.00  0.00    +0.252 C 
ATOM      8  H   UNL     1      31.220 -12.207 -18.961  0.00  0.00    +0.158 HD
ENDROOT
BRANCH   4  10
ATOM      9  N   UNL     1      33.698 -14.462 -24.790  0.00  0.00    -0.284 N 
ATOM     10  C   UNL     1      33.249 -13.612 -22.786  0.00  0.00    +0.021 C 
ATOM     11  C   UNL     1      34.068 -14.765 -22.611  0.00  0.00    +0.015 C 
ATOM     12  C   UNL     1      34.336 -15.277 -23.883  0.00  0.00    +0.053 C 
ATOM     13  C   UNL     1      33.039 -13.454 -24.139  0.00  0.00    +0.066 C 
ATOM     14  C   UNL     1      34.611 -15.420 -21.488  0.00  0.00    +0.003 C 
ATOM     15  C   UNL     1      35.121 -16.417 -24.088  0.00  0.00    +0.039 C 
ATOM     16  C   UNL     1      33.713 -14.631 -26.228  0.00  0.00    +0.117 C 
ATOM     17  C   UNL     1      35.648 -17.051 -22.959  0.00  0.00    +0.144 C 
ATOM     18  C   UNL     1      35.398 -16.562 -21.679  0.00  0.00    +0.024 C 
BRANCH  17  21
ATOM     19  O   UNL     1      37.526 -18.301 -22.486  0.00  0.00    -0.126 OA
ATOM     20  O   UNL     1      36.056 -19.118 -23.897  0.00  0.00    -0.126 OA
ATOM     21  N   UNL     1      36.449 -18.213 -23.122  0.00  0.00    +0.058 N 
ENDBRANCH  17  21
ENDBRANCH   4  10
BRANCH   5  23
ATOM     22  N   UNL     1      34.501  -9.469 -24.158  0.00  0.00    -0.284 N 
ATOM     23  C   UNL     1      33.164 -10.449 -22.682  0.00  0.00    +0.021 C 
ATOM     24  C   UNL     1      32.546  -9.242 -23.109  0.00  0.00    +0.015 C 
ATOM     25  C   UNL     1      33.406  -8.646 -24.036  0.00  0.00    +0.052 C 
ATOM     26  C   UNL     1      34.366 -10.561 -23.344  0.00  0.00    +0.066 C 
ATOM     27  C   UNL     1      31.332  -8.596 -22.798  0.00  0.00    +0.001 C 
ATOM     28  C   UNL     1      33.111  -7.432 -24.667  0.00  0.00    +0.015 C 
ATOM     29  C   UNL     1      35.643  -9.228 -25.014  0.00  0.00    +0.117 C 
ATOM     30  C   UNL     1      31.025  -7.381 -23.422  0.00  0.00    +0.000 C 
ATOM     31  C   UNL     1      31.903  -6.810 -24.342  0.00  0.00    +0.001 C 
ENDBRANCH   5  23
TORSDOF 3
ENDMDL
MODEL 9
REMARK VINA RESULT:      -9.2      2.450      6.487
REMARK  Name = 5327686
REMARK  3 active torsions:
REMARK  status: ('A' for Active; 'I' for Inactive)
REMARK    1  A    between atoms: C_4  and  C_10
REMARK    2  A    between atoms: C_5  and  C_23
REMARK    3  A    between atoms: C_17  and  N_21
REMARK                            x       y       z     vdW  Elec       q    Type
REMARK                         _______ _______ _______ _____ _____    ______ ____
ROOT
ATOM      1  O   UNL     1      31.839 -25.363 -13.949  0.00  0.00    -0.270 OA
ATOM      2  O   UNL     1      30.678 -22.391 -17.232  0.00  0.00    -0.270 OA
ATOM      3  N   UNL     1      30.885 -23.884 -15.466  0.00  0.00    -0.248 N 
ATOM      4  C   UNL     1      33.125 -24.268 -15.667  0.00  0.00    +0.059 C 
ATOM      5  C   UNL     1      32.781 -23.404 -16.639  0.00  0.00    +0.059 C 
ATOM      6  C   UNL     1      31.899 -24.595 -14.896  0.00  0.00    +0.252 C 
ATOM      7  C   UNL     1      31.325 -23.141 -16.520  0.00  0.00    +0.252 C 
ATOM      8  H   UNL     1      29.951 -23.907 -15.155  0.00  0.00    +0.158 HD
ENDROOT
BRANCH   4  10
ATOM      9  N   UNL     1      36.180 -26.169 -15.492  0.00  0.00    -0.284 N 
ATOM     10  C   UNL     1      34.400 -24.842 -15.369  0.00  0.00    +0.021 C 
ATOM     11  C   UNL     1      35.315 -24.462 -14.345  0.00  0.00    +0.015 C 
ATOM     12  C   UNL     1      36.422 -25.308 -14.445  0.00  0.00    +0.053 C 
ATOM     13  C   UNL     1      34.963 -25.896 -16.056  0.00  0.00    +0.066 C 
ATOM     14  C   UNL     1      35.307 -23.473 -13.340  0.00  0.00    +0.003 C 
ATOM     15  C   UNL     1      37.524 -25.216 -13.588  0.00  0.00    +0.039 C 
ATOM     16  C   UNL     1      37.072 -27.215 -15.944  0.00  0.00    +0.117 C 
ATOM     17  C   UNL     1      37.493 -24.229 -12.599  0.00  0.00    +0.144 C 
ATOM     18  C   UNL     1      36.403 -23.369 -12.476  0.00  0.00    +0.024 C 
BRANCH  17  21
ATOM     19  O   UNL     1      39.238 -23.028 -11.690  0.00  0.00    -0.126 OA
ATOM     20  O   UNL     1      38.879 -25.065 -10.957  0.00  0.00    -0.126 OA
ATOM     21  N   UNL     1      38.590 -24.101 -11.705  0.00  0.00    +0.058 N 
ENDBRANCH  17  21
ENDBRANCH   4  10
BRANCH   5  23
ATOM     22  N   UNL     1      34.203 -21.829 -19.546  0.00  0.00    -0.284 N 
ATOM     23  C   UNL     1      33.599 -22.780 -17.634  0.00  0.00    +0.021 C 
ATOM     24  C   UNL     1      34.982 -22.461 -17.553  0.00  0.00    +0.015 C 
ATOM     25  C   UNL     1      35.336 -21.864 -18.766  0.00  0.00    +0.052 C 
ATOM     26  C   UNL     1      33.148 -22.381 -18.871  0.00  0.00    +0.066 C 
ATOM     27  C   UNL     1      35.971 -22.621 -16.561  0.00  0.00    +0.001 C 
ATOM     28  C   UNL     1      36.635 -21.419 -19.037  0.00  0.00    +0.015 C 
ATOM     29  C   UNL     1      34.123 -21.294 -20.888  0.00  0.00    +0.117 C 
ATOM     30  C   UNL     1      37.274 -22.180 -16.820  0.00  0.00    +0.000 C 
ATOM     31  C   UNL     1      37.599 -21.588 -18.039  0.00  0.00    +0.001 C 
ENDBRANCH   5  23
TORSDOF 3
ENDMDL
