MODEL 1
REMARK VINA RESULT:     -11.3      0.000      0.000
REMARK  Name = 447653
REMARK  8 active torsions:
REMARK  status: ('A' for Active; 'I' for Inactive)
REMARK    1  A    between atoms: N_2  and  C_20
REMARK    2  A    between atoms: C_4  and  C_11
REMARK    3  A    between atoms: C_19  and  O_25
REMARK    4  A    between atoms: O_25  and  C_26
REMARK    5  A    between atoms: C_26  and  C_27
REMARK    6  A    between atoms: C_27  and  O_28
REMARK    7  A    between atoms: C_27  and  C_30
REMARK    8  A    between atoms: C_30  and  N_31
REMARK                            x       y       z     vdW  Elec       q    Type
REMARK                         _______ _______ _______ _____ _____    ______ ____
ROOT
ATOM      1  N   UNL     1      34.659 -23.132 -17.033  0.00  0.00    -0.340 NA
ATOM      2  N   UNL     1      32.928 -22.431 -18.453  0.00  0.00    -0.247 N 
ATOM      3  N   UNL     1      32.362 -23.671 -16.543  0.00  0.00    -0.170 NA
ATOM      4  C   UNL     1      35.008 -23.790 -15.911  0.00  0.00    +0.148 C 
ATOM      5  C   UNL     1      34.114 -24.406 -15.065  0.00  0.00    +0.052 C 
ATOM      6  C   UNL     1      33.336 -23.111 -17.285  0.00  0.00    +0.148 C 
ATOM      7  C   UNL     1      32.788 -24.313 -15.436  0.00  0.00    +0.114 C 
ATOM      8  H   UNL     1      31.954 -22.441 -18.597  0.00  0.00    +0.165 HD
ENDROOT
BRANCH   4  11
ATOM      9  N   UNL     1      37.054 -24.709 -14.818  0.00  0.00    -0.251 N 
ATOM     10  N   UNL     1      38.651 -23.358 -15.609  0.00  0.00    -0.393 NA
ATOM     11  C   UNL     1      36.428 -23.810 -15.643  0.00  0.00    +0.181 C 
ATOM     12  C   UNL     1      38.409 -24.391 -14.829  0.00  0.00    +0.187 C 
ATOM     13  C   UNL     1      37.428 -22.994 -16.116  0.00  0.00    +0.114 C 
ATOM     14  C   UNL     1      36.514 -25.758 -14.079  0.00  0.00    +0.068 C 
ATOM     15  C   UNL     1      39.270 -25.202 -14.031  0.00  0.00    +0.048 C 
ATOM     16  C   UNL     1      37.324 -21.854 -17.041  0.00  0.00    +0.064 C 
ATOM     17  C   UNL     1      37.331 -26.516 -13.330  0.00  0.00    +0.016 C 
ATOM     18  C   UNL     1      38.755 -26.218 -13.315  0.00  0.00    +0.005 C 
ENDBRANCH   4  11
BRANCH   2  20
ATOM     19  C   UNL     1      35.051 -20.365 -21.431  0.00  0.00    +0.139 C 
ATOM     20  C   UNL     1      33.640 -21.739 -19.451  0.00  0.00    +0.058 C 
ATOM     21  C   UNL     1      35.701 -21.313 -20.640  0.00  0.00    +0.038 C 
ATOM     22  C   UNL     1      33.696 -20.103 -21.231  0.00  0.00    +0.038 C 
ATOM     23  C   UNL     1      34.996 -22.000 -19.651  0.00  0.00    +0.018 C 
ATOM     24  C   UNL     1      32.991 -20.789 -20.242  0.00  0.00    +0.018 C 
BRANCH  19  25
ATOM     25  O   UNL     1      35.740 -19.696 -22.395  0.00  0.00    -0.473 OA
BRANCH  25  26
ATOM     26  C   UNL     1      34.973 -19.056 -23.414  0.00  0.00    +0.232 C 
BRANCH  26  27
ATOM     27  C   UNL     1      35.371 -17.584 -23.480  0.00  0.00    +0.133 C 
BRANCH  27  28
ATOM     28  O   UNL     1      36.768 -17.473 -23.191  0.00  0.00    -0.383 OA
ATOM     29  H   UNL     1      36.941 -17.809 -22.298  0.00  0.00    +0.210 HD
ENDBRANCH  27  28
BRANCH  27  30
ATOM     30  C   UNL     1      35.116 -16.948 -24.848  0.00  0.00    -0.044 C 
BRANCH  30  31
ATOM     31  N   UNL     1      34.213 -15.808 -24.762  0.00  0.00    +0.386 N 
ATOM     32  C   UNL     1      34.789 -14.755 -23.923  0.00  0.00    -0.101 C 
ATOM     33  C   UNL     1      33.913 -15.284 -26.097  0.00  0.00    -0.101 C 
ATOM     34  H   UNL     1      33.344 -16.124 -24.334  0.00  0.00    -0.080 HD
ENDBRANCH  30  31
ENDBRANCH  27  30
ENDBRANCH  26  27
ENDBRANCH  25  26
ENDBRANCH  19  25
ENDBRANCH   2  20
TORSDOF 8
ENDMDL
MODEL 2
REMARK VINA RESULT:     -10.7      1.666      1.876
REMARK  Name = 447653
REMARK  8 active torsions:
REMARK  status: ('A' for Active; 'I' for Inactive)
REMARK    1  A    between atoms: N_2  and  C_20
REMARK    2  A    between atoms: C_4  and  C_11
REMARK    3  A    between atoms: C_19  and  O_25
REMARK    4  A    between atoms: O_25  and  C_26
REMARK    5  A    between atoms: C_26  and  C_27
REMARK    6  A    between atoms: C_27  and  O_28
REMARK    7  A    between atoms: C_27  and  C_30
REMARK    8  A    between atoms: C_30  and  N_31
REMARK                            x       y       z     vdW  Elec       q    Type
REMARK                         _______ _______ _______ _____ _____    ______ ____
ROOT
ATOM      1  N   UNL     1      34.042 -23.184 -16.284  0.00  0.00    -0.340 NA
ATOM      2  N   UNL     1      32.512 -22.837 -18.029  0.00  0.00    -0.247 N 
ATOM      3  N   UNL     1      31.760 -23.936 -16.096  0.00  0.00    -0.170 NA
ATOM      4  C   UNL     1      34.262 -23.680 -15.052  0.00  0.00    +0.148 C 
ATOM      5  C   UNL     1      33.305 -24.308 -14.288  0.00  0.00    +0.052 C 
ATOM      6  C   UNL     1      32.784 -23.344 -16.740  0.00  0.00    +0.148 C 
ATOM      7  C   UNL     1      32.057 -24.409 -14.868  0.00  0.00    +0.114 C 
ATOM      8  H   UNL     1      31.581 -22.976 -18.320  0.00  0.00    +0.165 HD
ENDROOT
BRANCH   4  11
ATOM      9  N   UNL     1      36.021 -23.771 -13.285  0.00  0.00    -0.251 N 
ATOM     10  N   UNL     1      37.827 -23.050 -14.389  0.00  0.00    -0.393 NA
ATOM     11  C   UNL     1      35.612 -23.507 -14.567  0.00  0.00    +0.181 C 
ATOM     12  C   UNL     1      37.380 -23.476 -13.225  0.00  0.00    +0.187 C 
ATOM     13  C   UNL     1      36.738 -23.067 -15.223  0.00  0.00    +0.114 C 
ATOM     14  C   UNL     1      35.286 -24.242 -12.200  0.00  0.00    +0.068 C 
ATOM     15  C   UNL     1      38.031 -23.676 -11.972  0.00  0.00    +0.048 C 
ATOM     16  C   UNL     1      36.878 -22.643 -16.626  0.00  0.00    +0.064 C 
ATOM     17  C   UNL     1      35.906 -24.427 -11.024  0.00  0.00    +0.016 C 
ATOM     18  C   UNL     1      37.326 -24.131 -10.919  0.00  0.00    +0.005 C 
ENDBRANCH   4  11
BRANCH   2  20
ATOM     19  C   UNL     1      34.887 -20.849 -20.865  0.00  0.00    +0.139 C 
ATOM     20  C   UNL     1      33.308 -22.172 -18.979  0.00  0.00    +0.058 C 
ATOM     21  C   UNL     1      35.426 -21.892 -20.111  0.00  0.00    +0.038 C 
ATOM     22  C   UNL     1      33.560 -20.467 -20.676  0.00  0.00    +0.038 C 
ATOM     23  C   UNL     1      34.637 -22.553 -19.170  0.00  0.00    +0.018 C 
ATOM     24  C   UNL     1      32.771 -21.127 -19.734  0.00  0.00    +0.018 C 
BRANCH  19  25
ATOM     25  O   UNL     1      35.658 -20.205 -21.784  0.00  0.00    -0.473 OA
BRANCH  25  26
ATOM     26  C   UNL     1      36.651 -19.311 -21.285  0.00  0.00    +0.232 C 
BRANCH  26  27
ATOM     27  C   UNL     1      37.043 -18.340 -22.395  0.00  0.00    +0.133 C 
BRANCH  27  28
ATOM     28  O   UNL     1      38.460 -18.397 -22.577  0.00  0.00    -0.383 OA
ATOM     29  H   UNL     1      38.891 -18.543 -21.720  0.00  0.00    +0.210 HD
ENDBRANCH  27  28
BRANCH  27  30
ATOM     30  C   UNL     1      36.377 -18.653 -23.737  0.00  0.00    -0.044 C 
BRANCH  30  31
ATOM     31  N   UNL     1      35.108 -17.955 -23.895  0.00  0.00    +0.386 N 
ATOM     32  C   UNL     1      35.331 -16.562 -24.286  0.00  0.00    -0.101 C 
ATOM     33  C   UNL     1      34.267 -18.631 -24.885  0.00  0.00    -0.101 C 
ATOM     34  H   UNL     1      34.627 -17.967 -22.997  0.00  0.00    -0.080 HD
ENDBRANCH  30  31
ENDBRANCH  27  30
ENDBRANCH  26  27
ENDBRANCH  25  26
ENDBRANCH  19  25
ENDBRANCH   2  20
TORSDOF 8
ENDMDL
MODEL 3
REMARK VINA RESULT:     -10.0      1.908      4.030
REMARK  Name = 447653
REMARK  8 active torsions:
REMARK  status: ('A' for Active; 'I' for Inactive)
REMARK    1  A    between atoms: N_2  and  C_20
REMARK    2  A    between atoms: C_4  and  C_11
REMARK    3  A    between atoms: C_19  and  O_25
REMARK    4  A    between atoms: O_25  and  C_26
REMARK    5  A    between atoms: C_26  and  C_27
REMARK    6  A    between atoms: C_27  and  O_28
REMARK    7  A    between atoms: C_27  and  C_30
REMARK    8  A    between atoms: C_30  and  N_31
REMARK                            x       y       z     vdW  Elec       q    Type
REMARK                         _______ _______ _______ _____ _____    ______ ____
ROOT
ATOM      1  N   UNL     1      35.423 -22.177 -17.839  0.00  0.00    -0.340 NA
ATOM      2  N   UNL     1      37.204 -21.177 -18.994  0.00  0.00    -0.247 N 
ATOM      3  N   UNL     1      37.688 -22.390 -17.044  0.00  0.00    -0.170 NA
ATOM      4  C   UNL     1      35.029 -22.920 -16.787  0.00  0.00    +0.148 C 
ATOM      5  C   UNL     1      35.884 -23.427 -15.835  0.00  0.00    +0.052 C 
ATOM      6  C   UNL     1      36.750 -21.953 -17.905  0.00  0.00    +0.148 C 
ATOM      7  C   UNL     1      37.219 -23.126 -16.017  0.00  0.00    +0.114 C 
ATOM      8  H   UNL     1      38.179 -21.040 -19.002  0.00  0.00    +0.165 HD
ENDROOT
BRANCH   4  11
ATOM      9  N   UNL     1      32.976 -23.837 -15.708  0.00  0.00    -0.251 N 
ATOM     10  N   UNL     1      31.379 -23.218 -17.145  0.00  0.00    -0.393 NA
ATOM     11  C   UNL     1      33.606 -23.158 -16.719  0.00  0.00    +0.181 C 
ATOM     12  C   UNL     1      31.618 -23.847 -16.014  0.00  0.00    +0.187 C 
ATOM     13  C   UNL     1      32.605 -22.788 -17.587  0.00  0.00    +0.114 C 
ATOM     14  C   UNL     1      33.514 -24.429 -14.568  0.00  0.00    +0.068 C 
ATOM     15  C   UNL     1      30.752 -24.508 -15.092  0.00  0.00    +0.048 C 
ATOM     16  C   UNL     1      32.713 -22.036 -18.847  0.00  0.00    +0.064 C 
ATOM     17  C   UNL     1      32.692 -25.049 -13.706  0.00  0.00    +0.016 C 
ATOM     18  C   UNL     1      31.266 -25.082 -13.988  0.00  0.00    +0.005 C 
ENDBRANCH   4  11
BRANCH   2  20
ATOM     19  C   UNL     1      35.216 -19.343 -22.207  0.00  0.00    +0.139 C 
ATOM     20  C   UNL     1      36.537 -20.562 -20.070  0.00  0.00    +0.058 C 
ATOM     21  C   UNL     1      34.564 -20.312 -21.445  0.00  0.00    +0.038 C 
ATOM     22  C   UNL     1      36.529 -18.984 -21.902  0.00  0.00    +0.038 C 
ATOM     23  C   UNL     1      35.224 -20.921 -20.377  0.00  0.00    +0.018 C 
ATOM     24  C   UNL     1      37.189 -19.593 -20.835  0.00  0.00    +0.018 C 
BRANCH  19  25
ATOM     25  O   UNL     1      34.572 -18.749 -23.249  0.00  0.00    -0.473 OA
BRANCH  25  26
ATOM     26  C   UNL     1      35.383 -18.114 -24.236  0.00  0.00    +0.232 C 
BRANCH  26  27
ATOM     27  C   UNL     1      35.018 -16.633 -24.296  0.00  0.00    +0.133 C 
BRANCH  27  28
ATOM     28  O   UNL     1      36.153 -15.865 -23.889  0.00  0.00    -0.383 OA
ATOM     29  H   UNL     1      36.965 -16.294 -24.203  0.00  0.00    +0.210 HD
ENDBRANCH  27  28
BRANCH  27  30
ATOM     30  C   UNL     1      34.603 -16.168 -25.694  0.00  0.00    -0.044 C 
BRANCH  30  31
ATOM     31  N   UNL     1      33.498 -15.219 -25.650  0.00  0.00    +0.386 N 
ATOM     32  C   UNL     1      33.599 -14.364 -24.466  0.00  0.00    -0.101 C 
ATOM     33  C   UNL     1      33.471 -14.402 -26.865  0.00  0.00    -0.101 C 
ATOM     34  H   UNL     1      32.629 -15.749 -25.595  0.00  0.00    -0.080 HD
ENDBRANCH  30  31
ENDBRANCH  27  30
ENDBRANCH  26  27
ENDBRANCH  25  26
ENDBRANCH  19  25
ENDBRANCH   2  20
TORSDOF 8
ENDMDL
MODEL 4
REMARK VINA RESULT:      -9.9      3.112     11.783
REMARK  Name = 447653
REMARK  8 active torsions:
REMARK  status: ('A' for Active; 'I' for Inactive)
REMARK    1  A    between atoms: N_2  and  C_20
REMARK    2  A    between atoms: C_4  and  C_11
REMARK    3  A    between atoms: C_19  and  O_25
REMARK    4  A    between atoms: O_25  and  C_26
REMARK    5  A    between atoms: C_26  and  C_27
REMARK    6  A    between atoms: C_27  and  O_28
REMARK    7  A    between atoms: C_27  and  C_30
REMARK    8  A    between atoms: C_30  and  N_31
REMARK                            x       y       z     vdW  Elec       q    Type
REMARK                         _______ _______ _______ _____ _____    ______ ____
ROOT
ATOM      1  N   UNL     1      33.984 -14.846 -23.821  0.00  0.00    -0.340 NA
ATOM      2  N   UNL     1      34.908 -16.742 -24.849  0.00  0.00    -0.247 N 
ATOM      3  N   UNL     1      34.294 -14.931 -26.210  0.00  0.00    -0.170 NA
ATOM      4  C   UNL     1      33.476 -13.609 -23.974  0.00  0.00    +0.148 C 
ATOM      5  C   UNL     1      33.343 -12.971 -25.186  0.00  0.00    +0.052 C 
ATOM      6  C   UNL     1      34.369 -15.443 -24.966  0.00  0.00    +0.148 C 
ATOM      7  C   UNL     1      33.773 -13.689 -26.283  0.00  0.00    +0.114 C 
ATOM      8  H   UNL     1      35.176 -17.138 -25.710  0.00  0.00    +0.165 HD
ENDROOT
BRANCH   4  11
ATOM      9  N   UNL     1      32.754 -11.642 -22.619  0.00  0.00    -0.251 N 
ATOM     10  N   UNL     1      32.489 -12.546 -20.591  0.00  0.00    -0.393 NA
ATOM     11  C   UNL     1      33.064 -12.972 -22.743  0.00  0.00    +0.181 C 
ATOM     12  C   UNL     1      32.410 -11.431 -21.287  0.00  0.00    +0.187 C 
ATOM     13  C   UNL     1      32.894 -13.504 -21.487  0.00  0.00    +0.114 C 
ATOM     14  C   UNL     1      32.757 -10.638 -23.583  0.00  0.00    +0.068 C 
ATOM     15  C   UNL     1      32.045 -10.103 -20.915  0.00  0.00    +0.048 C 
ATOM     16  C   UNL     1      33.089 -14.893 -21.042  0.00  0.00    +0.064 C 
ATOM     17  C   UNL     1      32.412  -9.390 -23.225  0.00  0.00    +0.016 C 
ATOM     18  C   UNL     1      32.046  -9.127 -21.843  0.00  0.00    +0.005 C 
ENDBRANCH   4  11
BRANCH   2  20
ATOM     19  C   UNL     1      35.598 -19.252 -21.553  0.00  0.00    +0.139 C 
ATOM     20  C   UNL     1      35.139 -17.582 -23.744  0.00  0.00    +0.058 C 
ATOM     21  C   UNL     1      35.936 -17.900 -21.484  0.00  0.00    +0.038 C 
ATOM     22  C   UNL     1      35.031 -19.769 -22.717  0.00  0.00    +0.038 C 
ATOM     23  C   UNL     1      35.707 -17.066 -22.578  0.00  0.00    +0.018 C 
ATOM     24  C   UNL     1      34.802 -18.936 -23.812  0.00  0.00    +0.018 C 
BRANCH  19  25
ATOM     25  O   UNL     1      35.822 -20.065 -20.484  0.00  0.00    -0.473 OA
BRANCH  25  26
ATOM     26  C   UNL     1      35.332 -21.402 -20.572  0.00  0.00    +0.232 C 
BRANCH  26  27
ATOM     27  C   UNL     1      34.246 -21.599 -19.518  0.00  0.00    +0.133 C 
BRANCH  27  28
ATOM     28  O   UNL     1      33.076 -20.885 -19.925  0.00  0.00    -0.383 OA
ATOM     29  H   UNL     1      33.157 -20.635 -20.859  0.00  0.00    +0.210 HD
ENDBRANCH  27  28
BRANCH  27  30
ATOM     30  C   UNL     1      33.862 -23.066 -19.310  0.00  0.00    -0.044 C 
BRANCH  30  31
ATOM     31  N   UNL     1      33.832 -23.430 -17.900  0.00  0.00    +0.386 N 
ATOM     32  C   UNL     1      34.939 -22.797 -17.180  0.00  0.00    -0.101 C 
ATOM     33  C   UNL     1      32.553 -23.052 -17.296  0.00  0.00    -0.101 C 
ATOM     34  H   UNL     1      33.939 -24.442 -17.832  0.00  0.00    -0.080 HD
ENDBRANCH  30  31
ENDBRANCH  27  30
ENDBRANCH  26  27
ENDBRANCH  25  26
ENDBRANCH  19  25
ENDBRANCH   2  20
TORSDOF 8
ENDMDL
MODEL 5
REMARK VINA RESULT:      -9.6      6.223     13.385
REMARK  Name = 447653
REMARK  8 active torsions:
REMARK  status: ('A' for Active; 'I' for Inactive)
REMARK    1  A    between atoms: N_2  and  C_20
REMARK    2  A    between atoms: C_4  and  C_11
REMARK    3  A    between atoms: C_19  and  O_25
REMARK    4  A    between atoms: O_25  and  C_26
REMARK    5  A    between atoms: C_26  and  C_27
REMARK    6  A    between atoms: C_27  and  O_28
REMARK    7  A    between atoms: C_27  and  C_30
REMARK    8  A    between atoms: C_30  and  N_31
REMARK                            x       y       z     vdW  Elec       q    Type
REMARK                         _______ _______ _______ _____ _____    ______ ____
ROOT
ATOM      1  N   UNL     1      32.589 -11.149 -21.346  0.00  0.00    -0.340 NA
ATOM      2  N   UNL     1      32.573 -13.304 -20.418  0.00  0.00    -0.247 N 
ATOM      3  N   UNL     1      31.395 -11.608 -19.303  0.00  0.00    -0.170 NA
ATOM      4  C   UNL     1      32.179  -9.870 -21.248  0.00  0.00    +0.148 C 
ATOM      5  C   UNL     1      31.391  -9.386 -20.229  0.00  0.00    +0.052 C 
ATOM      6  C   UNL     1      32.165 -11.954 -20.352  0.00  0.00    +0.148 C 
ATOM      7  C   UNL     1      31.025 -10.311 -19.272  0.00  0.00    +0.114 C 
ATOM      8  H   UNL     1      32.240 -13.855 -19.672  0.00  0.00    +0.165 HD
ENDROOT
BRANCH   4  11
ATOM      9  N   UNL     1      32.426  -7.655 -22.369  0.00  0.00    -0.251 N 
ATOM     10  N   UNL     1      33.571  -8.193 -24.213  0.00  0.00    -0.393 NA
ATOM     11  C   UNL     1      32.635  -9.010 -22.316  0.00  0.00    +0.181 C 
ATOM     12  C   UNL     1      33.016  -7.203 -23.547  0.00  0.00    +0.187 C 
ATOM     13  C   UNL     1      33.339  -9.314 -23.457  0.00  0.00    +0.114 C 
ATOM     14  C   UNL     1      31.767  -6.824 -21.468  0.00  0.00    +0.068 C 
ATOM     15  C   UNL     1      32.924  -5.806 -23.820  0.00  0.00    +0.048 C 
ATOM     16  C   UNL     1      33.829 -10.625 -23.912  0.00  0.00    +0.064 C 
ATOM     17  C   UNL     1      31.685  -5.510 -21.733  0.00  0.00    +0.016 C 
ATOM     18  C   UNL     1      32.288  -4.996 -22.952  0.00  0.00    +0.005 C 
ENDBRANCH   4  11
BRANCH   2  20
ATOM     19  C   UNL     1      34.925 -15.432 -23.171  0.00  0.00    +0.139 C 
ATOM     20  C   UNL     1      33.361 -14.018 -21.340  0.00  0.00    +0.058 C 
ATOM     21  C   UNL     1      35.121 -15.610 -21.802  0.00  0.00    +0.038 C 
ATOM     22  C   UNL     1      33.948 -14.546 -23.626  0.00  0.00    +0.038 C 
ATOM     23  C   UNL     1      34.339 -14.904 -20.887  0.00  0.00    +0.018 C 
ATOM     24  C   UNL     1      33.167 -13.839 -22.712  0.00  0.00    +0.018 C 
BRANCH  19  25
ATOM     25  O   UNL     1      35.687 -16.122 -24.063  0.00  0.00    -0.473 OA
BRANCH  25  26
ATOM     26  C   UNL     1      35.017 -17.069 -24.894  0.00  0.00    +0.232 C 
BRANCH  26  27
ATOM     27  C   UNL     1      34.875 -18.382 -24.129  0.00  0.00    +0.133 C 
BRANCH  27  28
ATOM     28  O   UNL     1      34.507 -19.412 -25.050  0.00  0.00    -0.383 OA
ATOM     29  H   UNL     1      34.163 -20.176 -24.562  0.00  0.00    +0.210 HD
ENDBRANCH  27  28
BRANCH  27  30
ATOM     30  C   UNL     1      36.162 -18.813 -23.421  0.00  0.00    -0.044 C 
BRANCH  30  31
ATOM     31  N   UNL     1      36.026 -18.784 -21.971  0.00  0.00    +0.386 N 
ATOM     32  C   UNL     1      35.073 -19.802 -21.522  0.00  0.00    -0.101 C 
ATOM     33  C   UNL     1      37.325 -18.987 -21.326  0.00  0.00    -0.101 C 
ATOM     34  H   UNL     1      35.670 -17.867 -21.705  0.00  0.00    -0.080 HD
ENDBRANCH  30  31
ENDBRANCH  27  30
ENDBRANCH  26  27
ENDBRANCH  25  26
ENDBRANCH  19  25
ENDBRANCH   2  20
TORSDOF 8
ENDMDL
MODEL 6
REMARK VINA RESULT:      -9.5      3.784     11.283
REMARK  Name = 447653
REMARK  8 active torsions:
REMARK  status: ('A' for Active; 'I' for Inactive)
REMARK    1  A    between atoms: N_2  and  C_20
REMARK    2  A    between atoms: C_4  and  C_11
REMARK    3  A    between atoms: C_19  and  O_25
REMARK    4  A    between atoms: O_25  and  C_26
REMARK    5  A    between atoms: C_26  and  C_27
REMARK    6  A    between atoms: C_27  and  O_28
REMARK    7  A    between atoms: C_27  and  C_30
REMARK    8  A    between atoms: C_30  and  N_31
REMARK                            x       y       z     vdW  Elec       q    Type
REMARK                         _______ _______ _______ _____ _____    ______ ____
ROOT
ATOM      1  N   UNL     1      34.021 -14.561 -24.500  0.00  0.00    -0.340 NA
ATOM      2  N   UNL     1      34.773 -16.623 -25.329  0.00  0.00    -0.247 N 
ATOM      3  N   UNL     1      34.163 -14.963 -26.872  0.00  0.00    -0.170 NA
ATOM      4  C   UNL     1      33.568 -13.324 -24.781  0.00  0.00    +0.148 C 
ATOM      5  C   UNL     1      33.387 -12.837 -26.055  0.00  0.00    +0.052 C 
ATOM      6  C   UNL     1      34.296 -15.318 -25.580  0.00  0.00    +0.148 C 
ATOM      7  C   UNL     1      33.705 -13.711 -27.074  0.00  0.00    +0.114 C 
ATOM      8  H   UNL     1      34.961 -17.140 -26.146  0.00  0.00    +0.165 HD
ENDROOT
BRANCH   4  11
ATOM      9  N   UNL     1      32.991 -13.012 -22.374  0.00  0.00    -0.251 N 
ATOM     10  N   UNL     1      32.899 -10.784 -22.202  0.00  0.00    -0.393 NA
ATOM     11  C   UNL     1      33.274 -12.514 -23.620  0.00  0.00    +0.181 C 
ATOM     12  C   UNL     1      32.769 -11.917 -21.543  0.00  0.00    +0.187 C 
ATOM     13  C   UNL     1      33.212 -11.147 -23.488  0.00  0.00    +0.114 C 
ATOM     14  C   UNL     1      32.919 -14.333 -21.942  0.00  0.00    +0.068 C 
ATOM     15  C   UNL     1      32.452 -12.192 -20.180  0.00  0.00    +0.048 C 
ATOM     16  C   UNL     1      33.431 -10.114 -24.513  0.00  0.00    +0.064 C 
ATOM     17  C   UNL     1      32.620 -14.585 -20.658  0.00  0.00    +0.016 C 
ATOM     18  C   UNL     1      32.381 -13.468 -19.756  0.00  0.00    +0.005 C 
ENDBRANCH   4  11
BRANCH   2  20
ATOM     19  C   UNL     1      35.550 -18.732 -21.781  0.00  0.00    +0.139 C 
ATOM     20  C   UNL     1      35.034 -17.330 -24.140  0.00  0.00    +0.058 C 
ATOM     21  C   UNL     1      35.129 -19.416 -22.921  0.00  0.00    +0.038 C 
ATOM     22  C   UNL     1      35.712 -17.347 -21.819  0.00  0.00    +0.038 C 
ATOM     23  C   UNL     1      34.871 -18.716 -24.100  0.00  0.00    +0.018 C 
ATOM     24  C   UNL     1      35.454 -16.647 -22.997  0.00  0.00    +0.018 C 
BRANCH  19  25
ATOM     25  O   UNL     1      35.801 -19.416 -20.631  0.00  0.00    -0.473 OA
BRANCH  25  26
ATOM     26  C   UNL     1      36.970 -20.234 -20.605  0.00  0.00    +0.232 C 
BRANCH  26  27
ATOM     27  C   UNL     1      36.678 -21.485 -19.780  0.00  0.00    +0.133 C 
BRANCH  27  28
ATOM     28  O   UNL     1      36.633 -21.123 -18.397  0.00  0.00    -0.383 OA
ATOM     29  H   UNL     1      37.532 -21.124 -18.033  0.00  0.00    +0.210 HD
ENDBRANCH  27  28
BRANCH  27  30
ATOM     30  C   UNL     1      35.348 -22.152 -20.142  0.00  0.00    -0.044 C 
BRANCH  30  31
ATOM     31  N   UNL     1      34.265 -21.726 -19.265  0.00  0.00    +0.386 N 
ATOM     32  C   UNL     1      33.176 -21.131 -20.042  0.00  0.00    -0.101 C 
ATOM     33  C   UNL     1      33.767 -22.854 -18.475  0.00  0.00    -0.101 C 
ATOM     34  H   UNL     1      34.633 -21.020 -18.629  0.00  0.00    -0.080 HD
ENDBRANCH  30  31
ENDBRANCH  27  30
ENDBRANCH  26  27
ENDBRANCH  25  26
ENDBRANCH  19  25
ENDBRANCH   2  20
TORSDOF 8
ENDMDL
MODEL 7
REMARK VINA RESULT:      -9.5      1.500      4.284
REMARK  Name = 447653
REMARK  8 active torsions:
REMARK  status: ('A' for Active; 'I' for Inactive)
REMARK    1  A    between atoms: N_2  and  C_20
REMARK    2  A    between atoms: C_4  and  C_11
REMARK    3  A    between atoms: C_19  and  O_25
REMARK    4  A    between atoms: O_25  and  C_26
REMARK    5  A    between atoms: C_26  and  C_27
REMARK    6  A    between atoms: C_27  and  O_28
REMARK    7  A    between atoms: C_27  and  C_30
REMARK    8  A    between atoms: C_30  and  N_31
REMARK                            x       y       z     vdW  Elec       q    Type
REMARK                         _______ _______ _______ _____ _____    ______ ____
ROOT
ATOM      1  N   UNL     1      36.124 -23.071 -16.195  0.00  0.00    -0.340 NA
ATOM      2  N   UNL     1      37.705 -22.329 -17.762  0.00  0.00    -0.247 N 
ATOM      3  N   UNL     1      38.476 -23.489 -15.874  0.00  0.00    -0.170 NA
ATOM      4  C   UNL     1      35.896 -23.714 -15.034  0.00  0.00    +0.148 C 
ATOM      5  C   UNL     1      36.881 -24.264 -14.247  0.00  0.00    +0.052 C 
ATOM      6  C   UNL     1      37.422 -22.996 -16.551  0.00  0.00    +0.148 C 
ATOM      7  C   UNL     1      38.169 -24.119 -14.722  0.00  0.00    +0.114 C 
ATOM      8  H   UNL     1      38.664 -22.299 -17.983  0.00  0.00    +0.165 HD
ENDROOT
BRANCH   4  11
ATOM      9  N   UNL     1      33.451 -23.528 -15.494  0.00  0.00    -0.251 N 
ATOM     10  N   UNL     1      32.562 -24.080 -13.518  0.00  0.00    -0.393 NA
ATOM     11  C   UNL     1      34.503 -23.793 -14.656  0.00  0.00    +0.181 C 
ATOM     12  C   UNL     1      32.287 -23.716 -14.754  0.00  0.00    +0.187 C 
ATOM     13  C   UNL     1      33.932 -24.129 -13.451  0.00  0.00    +0.114 C 
ATOM     14  C   UNL     1      33.459 -23.142 -16.832  0.00  0.00    +0.068 C 
ATOM     15  C   UNL     1      31.049 -23.494 -15.426  0.00  0.00    +0.048 C 
ATOM     16  C   UNL     1      34.595 -24.507 -12.193  0.00  0.00    +0.064 C 
ATOM     17  C   UNL     1      32.289 -22.935 -17.458  0.00  0.00    +0.016 C 
ATOM     18  C   UNL     1      31.050 -23.121 -16.720  0.00  0.00    +0.005 C 
ENDBRANCH   4  11
BRANCH   2  20
ATOM     19  C   UNL     1      35.257 -20.451 -20.612  0.00  0.00    +0.139 C 
ATOM     20  C   UNL     1      36.885 -21.699 -18.718  0.00  0.00    +0.058 C 
ATOM     21  C   UNL     1      36.543 -19.967 -20.370  0.00  0.00    +0.038 C 
ATOM     22  C   UNL     1      34.784 -21.557 -19.908  0.00  0.00    +0.038 C 
ATOM     23  C   UNL     1      37.356 -20.591 -19.424  0.00  0.00    +0.018 C 
ATOM     24  C   UNL     1      35.597 -22.181 -18.961  0.00  0.00    +0.018 C 
BRANCH  19  25
ATOM     25  O   UNL     1      34.464 -19.841 -21.536  0.00  0.00    -0.473 OA
BRANCH  25  26
ATOM     26  C   UNL     1      34.944 -19.802 -22.878  0.00  0.00    +0.232 C 
BRANCH  26  27
ATOM     27  C   UNL     1      35.445 -18.392 -23.182  0.00  0.00    +0.133 C 
BRANCH  27  28
ATOM     28  O   UNL     1      36.871 -18.424 -23.286  0.00  0.00    -0.383 OA
ATOM     29  H   UNL     1      37.130 -19.021 -24.005  0.00  0.00    +0.210 HD
ENDBRANCH  27  28
BRANCH  27  30
ATOM     30  C   UNL     1      34.884 -17.818 -24.485  0.00  0.00    -0.044 C 
BRANCH  30  31
ATOM     31  N   UNL     1      35.290 -16.434 -24.694  0.00  0.00    +0.386 N 
ATOM     32  C   UNL     1      34.510 -15.824 -25.772  0.00  0.00    -0.101 C 
ATOM     33  C   UNL     1      35.140 -15.661 -23.460  0.00  0.00    -0.101 C 
ATOM     34  H   UNL     1      36.273 -16.431 -24.963  0.00  0.00    -0.080 HD
ENDBRANCH  30  31
ENDBRANCH  27  30
ENDBRANCH  26  27
ENDBRANCH  25  26
ENDBRANCH  19  25
ENDBRANCH   2  20
TORSDOF 8
ENDMDL
MODEL 8
REMARK VINA RESULT:      -9.5      1.741      4.534
REMARK  Name = 447653
REMARK  8 active torsions:
REMARK  status: ('A' for Active; 'I' for Inactive)
REMARK    1  A    between atoms: N_2  and  C_20
REMARK    2  A    between atoms: C_4  and  C_11
REMARK    3  A    between atoms: C_19  and  O_25
REMARK    4  A    between atoms: O_25  and  C_26
REMARK    5  A    between atoms: C_26  and  C_27
REMARK    6  A    between atoms: C_27  and  O_28
REMARK    7  A    between atoms: C_27  and  C_30
REMARK    8  A    between atoms: C_30  and  N_31
REMARK                            x       y       z     vdW  Elec       q    Type
REMARK                         _______ _______ _______ _____ _____    ______ ____
ROOT
ATOM      1  N   UNL     1      35.469 -23.009 -16.577  0.00  0.00    -0.340 NA
ATOM      2  N   UNL     1      37.693 -22.349 -16.929  0.00  0.00    -0.247 N 
ATOM      3  N   UNL     1      37.268 -24.002 -15.318  0.00  0.00    -0.170 NA
ATOM      4  C   UNL     1      34.615 -23.799 -15.899  0.00  0.00    +0.148 C 
ATOM      5  C   UNL     1      34.998 -24.701 -14.933  0.00  0.00    +0.052 C 
ATOM      6  C   UNL     1      36.765 -23.160 -16.241  0.00  0.00    +0.148 C 
ATOM      7  C   UNL     1      36.353 -24.760 -14.681  0.00  0.00    +0.114 C 
ATOM      8  H   UNL     1      38.627 -22.494 -16.651  0.00  0.00    +0.165 HD
ENDROOT
BRANCH   4  11
ATOM      9  N   UNL     1      32.166 -24.053 -15.501  0.00  0.00    -0.251 N 
ATOM     10  N   UNL     1      31.297 -23.107 -17.332  0.00  0.00    -0.393 NA
ATOM     11  C   UNL     1      33.227 -23.634 -16.263  0.00  0.00    +0.181 C 
ATOM     12  C   UNL     1      31.009 -23.709 -16.197  0.00  0.00    +0.187 C 
ATOM     13  C   UNL     1      32.667 -23.057 -17.379  0.00  0.00    +0.114 C 
ATOM     14  C   UNL     1      32.161 -24.700 -14.269  0.00  0.00    +0.068 C 
ATOM     15  C   UNL     1      29.764 -24.051 -15.591  0.00  0.00    +0.048 C 
ATOM     16  C   UNL     1      33.344 -22.440 -18.532  0.00  0.00    +0.064 C 
ATOM     17  C   UNL     1      30.984 -25.018 -13.705  0.00  0.00    +0.016 C 
ATOM     18  C   UNL     1      29.752 -24.677 -14.398  0.00  0.00    +0.005 C 
ENDBRANCH   4  11
BRANCH   2  20
ATOM     19  C   UNL     1      37.254 -19.444 -19.930  0.00  0.00    +0.139 C 
ATOM     20  C   UNL     1      37.547 -21.376 -17.934  0.00  0.00    +0.058 C 
ATOM     21  C   UNL     1      37.995 -19.157 -18.783  0.00  0.00    +0.038 C 
ATOM     22  C   UNL     1      36.658 -20.696 -20.078  0.00  0.00    +0.038 C 
ATOM     23  C   UNL     1      38.142 -20.122 -17.787  0.00  0.00    +0.018 C 
ATOM     24  C   UNL     1      36.804 -21.661 -19.082  0.00  0.00    +0.018 C 
BRANCH  19  25
ATOM     25  O   UNL     1      37.112 -18.501 -20.902  0.00  0.00    -0.473 OA
BRANCH  25  26
ATOM     26  C   UNL     1      37.351 -18.915 -22.246  0.00  0.00    +0.232 C 
BRANCH  26  27
ATOM     27  C   UNL     1      36.173 -18.480 -23.113  0.00  0.00    +0.133 C 
BRANCH  27  28
ATOM     28  O   UNL     1      35.111 -19.423 -22.951  0.00  0.00    -0.383 OA
ATOM     29  H   UNL     1      35.373 -20.099 -22.307  0.00  0.00    +0.210 HD
ENDBRANCH  27  28
BRANCH  27  30
ATOM     30  C   UNL     1      35.637 -17.092 -22.754  0.00  0.00    -0.044 C 
BRANCH  30  31
ATOM     31  N   UNL     1      35.654 -16.185 -23.894  0.00  0.00    +0.386 N 
ATOM     32  C   UNL     1      35.100 -16.839 -25.082  0.00  0.00    -0.101 C 
ATOM     33  C   UNL     1      34.906 -14.963 -23.594  0.00  0.00    -0.101 C 
ATOM     34  H   UNL     1      36.624 -15.935 -24.084  0.00  0.00    -0.080 HD
ENDBRANCH  30  31
ENDBRANCH  27  30
ENDBRANCH  26  27
ENDBRANCH  25  26
ENDBRANCH  19  25
ENDBRANCH   2  20
TORSDOF 8
ENDMDL
MODEL 9
REMARK VINA RESULT:      -9.1      1.570      2.664
REMARK  Name = 447653
REMARK  8 active torsions:
REMARK  status: ('A' for Active; 'I' for Inactive)
REMARK    1  A    between atoms: N_2  and  C_20
REMARK    2  A    between atoms: C_4  and  C_11
REMARK    3  A    between atoms: C_19  and  O_25
REMARK    4  A    between atoms: O_25  and  C_26
REMARK    5  A    between atoms: C_26  and  C_27
REMARK    6  A    between atoms: C_27  and  O_28
REMARK    7  A    between atoms: C_27  and  C_30
REMARK    8  A    between atoms: C_30  and  N_31
REMARK                            x       y       z     vdW  Elec       q    Type
REMARK                         _______ _______ _______ _____ _____    ______ ____
ROOT
ATOM      1  N   UNL     1      33.199 -22.983 -16.774  0.00  0.00    -0.340 NA
ATOM      2  N   UNL     1      32.179 -22.153 -18.717  0.00  0.00    -0.247 N 
ATOM      3  N   UNL     1      30.816 -23.157 -17.092  0.00  0.00    -0.170 NA
ATOM      4  C   UNL     1      33.042 -23.600 -15.587  0.00  0.00    +0.148 C 
ATOM      5  C   UNL     1      31.831 -24.020 -15.087  0.00  0.00    +0.052 C 
ATOM      6  C   UNL     1      32.058 -22.796 -17.466  0.00  0.00    +0.148 C 
ATOM      7  C   UNL     1      30.739 -23.769 -15.893  0.00  0.00    +0.114 C 
ATOM      8  H   UNL     1      31.322 -22.036 -19.186  0.00  0.00    +0.165 HD
ENDROOT
BRANCH   4  11
ATOM      9  N   UNL     1      35.517 -23.462 -15.302  0.00  0.00    -0.251 N 
ATOM     10  N   UNL     1      35.801 -24.340 -13.265  0.00  0.00    -0.393 NA
ATOM     11  C   UNL     1      34.268 -23.799 -14.847  0.00  0.00    +0.181 C 
ATOM     12  C   UNL     1      36.419 -23.812 -14.301  0.00  0.00    +0.187 C 
ATOM     13  C   UNL     1      34.469 -24.335 -13.597  0.00  0.00    +0.114 C 
ATOM     14  C   UNL     1      35.893 -22.882 -16.511  0.00  0.00    +0.068 C 
ATOM     15  C   UNL     1      37.798 -23.552 -14.554  0.00  0.00    +0.048 C 
ATOM     16  C   UNL     1      33.472 -24.864 -12.652  0.00  0.00    +0.064 C 
ATOM     17  C   UNL     1      37.194 -22.641 -16.741  0.00  0.00    +0.016 C 
ATOM     18  C   UNL     1      38.169 -22.992 -15.721  0.00  0.00    +0.005 C 
ENDBRANCH   4  11
BRANCH   2  20
ATOM     19  C   UNL     1      35.477 -20.631 -20.826  0.00  0.00    +0.139 C 
ATOM     20  C   UNL     1      33.285 -21.644 -19.424  0.00  0.00    +0.058 C 
ATOM     21  C   UNL     1      35.631 -21.744 -19.999  0.00  0.00    +0.038 C 
ATOM     22  C   UNL     1      34.228 -20.024 -20.952  0.00  0.00    +0.038 C 
ATOM     23  C   UNL     1      34.536 -22.250 -19.299  0.00  0.00    +0.018 C 
ATOM     24  C   UNL     1      33.133 -20.529 -20.251  0.00  0.00    +0.018 C 
BRANCH  19  25
ATOM     25  O   UNL     1      36.546 -20.138 -21.510  0.00  0.00    -0.473 OA
BRANCH  25  26
ATOM     26  C   UNL     1      36.914 -18.784 -21.250  0.00  0.00    +0.232 C 
BRANCH  26  27
ATOM     27  C   UNL     1      37.175 -18.081 -22.580  0.00  0.00    +0.133 C 
BRANCH  27  28
ATOM     28  O   UNL     1      38.364 -18.623 -23.160  0.00  0.00    -0.383 OA
ATOM     29  H   UNL     1      38.127 -19.224 -23.884  0.00  0.00    +0.210 HD
ENDBRANCH  27  28
BRANCH  27  30
ATOM     30  C   UNL     1      36.035 -18.247 -23.587  0.00  0.00    -0.044 C 
BRANCH  30  31
ATOM     31  N   UNL     1      35.732 -17.003 -24.282  0.00  0.00    +0.386 N 
ATOM     32  C   UNL     1      34.703 -17.218 -25.301  0.00  0.00    -0.101 C 
ATOM     33  C   UNL     1      35.298 -15.974 -23.334  0.00  0.00    -0.101 C 
ATOM     34  H   UNL     1      36.583 -16.683 -24.743  0.00  0.00    -0.080 HD
ENDBRANCH  30  31
ENDBRANCH  27  30
ENDBRANCH  26  27
ENDBRANCH  25  26
ENDBRANCH  19  25
ENDBRANCH   2  20
TORSDOF 8
ENDMDL
