MODEL 1
REMARK VINA RESULT:     -12.7      0.000      0.000
REMARK  Name = 24794406
REMARK  5 active torsions:
REMARK  status: ('A' for Active; 'I' for Inactive)
REMARK    1  A    between atoms: C_1  and  S_24
REMARK    2  A    between atoms: C_2  and  N_8
REMARK    3  A    between atoms: C_9  and  C_11
REMARK    4  A    between atoms: C_12  and  N_18
REMARK    5  A    between atoms: S_24  and  N_28
REMARK                            x       y       z     vdW  Elec       q    Type
REMARK                         _______ _______ _______ _____ _____    ______ ____
ROOT
ATOM      1  C   UNL     1      32.878 -24.066 -14.827  0.00  0.00    +0.139 C 
ATOM      2  C   UNL     1      32.095 -23.660 -15.907  0.00  0.00    +0.070 C 
ATOM      3  C   UNL     1      32.295 -24.754 -13.763  0.00  0.00    +0.021 C 
ATOM      4  C   UNL     1      30.728 -23.940 -15.923  0.00  0.00    +0.016 C 
ATOM      5  C   UNL     1      30.928 -25.035 -13.779  0.00  0.00    +0.001 C 
ATOM      6  C   UNL     1      30.146 -24.628 -14.860  0.00  0.00    +0.001 C 
ENDROOT
BRANCH   2   8
ATOM      7  O   UNL     1      33.699 -24.665 -18.232  0.00  0.00    -0.270 OA
ATOM      8  N   UNL     1      32.662 -22.959 -17.000  0.00  0.00    -0.279 N 
ATOM      9  C   UNL     1      33.409 -23.469 -18.071  0.00  0.00    +0.250 C 
ATOM     10  H   UNL     1      32.512 -21.986 -17.008  0.00  0.00    +0.155 HD
BRANCH   9  11
ATOM     11  C   UNL     1      33.885 -22.490 -19.035  0.00  0.00    +0.054 C 
ATOM     12  C   UNL     1      34.796 -20.612 -20.886  0.00  0.00    +0.058 C 
ATOM     13  C   UNL     1      33.003 -21.548 -19.564  0.00  0.00    +0.006 C 
ATOM     14  C   UNL     1      35.222 -22.494 -19.433  0.00  0.00    +0.006 C 
ATOM     15  C   UNL     1      33.459 -20.609 -20.490  0.00  0.00    +0.015 C 
ATOM     16  C   UNL     1      35.678 -21.556 -20.358  0.00  0.00    +0.015 C 
BRANCH  12  18
ATOM     17  O   UNL     1      37.096 -18.895 -20.530  0.00  0.00    -0.269 OA
ATOM     18  N   UNL     1      35.270 -19.636 -21.848  0.00  0.00    -0.233 N 
ATOM     19  C   UNL     1      36.438 -18.880 -21.571  0.00  0.00    +0.257 C 
ATOM     20  C   UNL     1      34.572 -19.416 -23.038  0.00  0.00    +0.072 C 
ATOM     21  C   UNL     1      36.885 -17.928 -22.636  0.00  0.00    +0.059 C 
ATOM     22  C   UNL     1      34.973 -18.535 -23.961  0.00  0.00    +0.017 C 
ATOM     23  C   UNL     1      36.169 -17.775 -23.752  0.00  0.00    +0.006 C 
ENDBRANCH  12  18
ENDBRANCH   9  11
ENDBRANCH   2   8
BRANCH   1  24
ATOM     24  S   UNL     1      34.597 -23.734 -14.769  0.00  0.00    +0.076 S 
ATOM     25  O   UNL     1      35.003 -23.769 -13.370  0.00  0.00    -0.150 OA
ATOM     26  O   UNL     1      34.861 -22.534 -15.551  0.00  0.00    -0.150 OA
BRANCH  24  28
ATOM     27 CL   UNL     1      40.932 -26.277 -14.474  0.00  0.00    -0.081 Cl
ATOM     28  N   UNL     1      35.272 -25.104 -15.561  0.00  0.00    -0.199 N 
ATOM     29  N   UNL     1      37.491 -24.386 -15.148  0.00  0.00    -0.227 NA
ATOM     30  C   UNL     1      36.648 -25.432 -15.297  0.00  0.00    +0.147 C 
ATOM     31  C   UNL     1      37.036 -26.759 -15.210  0.00  0.00    +0.036 C 
ATOM     32  C   UNL     1      38.375 -27.030 -14.951  0.00  0.00    +0.016 C 
ATOM     33  C   UNL     1      38.785 -24.688 -14.898  0.00  0.00    +0.112 C 
ATOM     34  C   UNL     1      39.273 -25.980 -14.791  0.00  0.00    +0.077 C 
ATOM     35  H   UNL     1      34.733 -25.648 -16.179  0.00  0.00    +0.175 HD
ENDBRANCH  24  28
ENDBRANCH   1  24
TORSDOF 5
ENDMDL
MODEL 2
REMARK VINA RESULT:     -10.6      3.368      5.484
REMARK  Name = 24794406
REMARK  5 active torsions:
REMARK  status: ('A' for Active; 'I' for Inactive)
REMARK    1  A    between atoms: C_1  and  S_24
REMARK    2  A    between atoms: C_2  and  N_8
REMARK    3  A    between atoms: C_9  and  C_11
REMARK    4  A    between atoms: C_12  and  N_18
REMARK    5  A    between atoms: S_24  and  N_28
REMARK                            x       y       z     vdW  Elec       q    Type
REMARK                         _______ _______ _______ _____ _____    ______ ____
ROOT
ATOM      1  C   UNL     1      35.029 -24.192 -13.369  0.00  0.00    +0.139 C 
ATOM      2  C   UNL     1      36.098 -23.378 -13.742  0.00  0.00    +0.070 C 
ATOM      3  C   UNL     1      34.995 -24.758 -12.094  0.00  0.00    +0.021 C 
ATOM      4  C   UNL     1      37.134 -23.130 -12.841  0.00  0.00    +0.016 C 
ATOM      5  C   UNL     1      36.031 -24.509 -11.193  0.00  0.00    +0.001 C 
ATOM      6  C   UNL     1      37.100 -23.694 -11.567  0.00  0.00    +0.001 C 
ENDROOT
BRANCH   2   8
ATOM      7  O   UNL     1      38.334 -23.310 -15.738  0.00  0.00    -0.270 OA
ATOM      8  N   UNL     1      36.157 -22.791 -15.030  0.00  0.00    -0.279 N 
ATOM      9  C   UNL     1      37.228 -22.782 -15.936  0.00  0.00    +0.250 C 
ATOM     10  H   UNL     1      35.341 -22.329 -15.328  0.00  0.00    +0.155 HD
BRANCH   9  11
ATOM     11  C   UNL     1      36.998 -22.068 -17.182  0.00  0.00    +0.054 C 
ATOM     12  C   UNL     1      36.555 -20.702 -19.573  0.00  0.00    +0.058 C 
ATOM     13  C   UNL     1      35.997 -22.496 -18.055  0.00  0.00    +0.006 C 
ATOM     14  C   UNL     1      37.776 -20.958 -17.505  0.00  0.00    +0.006 C 
ATOM     15  C   UNL     1      35.776 -21.813 -19.251  0.00  0.00    +0.015 C 
ATOM     16  C   UNL     1      37.556 -20.274 -18.700  0.00  0.00    +0.015 C 
BRANCH  12  18
ATOM     17  O   UNL     1      34.056 -20.644 -21.029  0.00  0.00    -0.269 OA
ATOM     18  N   UNL     1      36.325 -19.991 -20.816  0.00  0.00    -0.233 N 
ATOM     19  C   UNL     1      35.038 -20.008 -21.414  0.00  0.00    +0.257 C 
ATOM     20  C   UNL     1      37.368 -19.307 -21.445  0.00  0.00    +0.072 C 
ATOM     21  C   UNL     1      34.875 -19.212 -22.669  0.00  0.00    +0.059 C 
ATOM     22  C   UNL     1      37.205 -18.628 -22.586  0.00  0.00    +0.017 C 
ATOM     23  C   UNL     1      35.917 -18.576 -23.210  0.00  0.00    +0.006 C 
ENDBRANCH  12  18
ENDBRANCH   9  11
ENDBRANCH   2   8
BRANCH   1  24
ATOM     24  S   UNL     1      33.709 -24.528 -14.470  0.00  0.00    +0.076 S 
ATOM     25  O   UNL     1      32.963 -25.656 -13.930  0.00  0.00    -0.150 OA
ATOM     26  O   UNL     1      34.247 -24.620 -15.820  0.00  0.00    -0.150 OA
BRANCH  24  28
ATOM     27 CL   UNL     1      27.855 -22.928 -17.609  0.00  0.00    -0.081 Cl
ATOM     28  N   UNL     1      32.732 -23.118 -14.329  0.00  0.00    -0.199 N 
ATOM     29  N   UNL     1      31.573 -23.588 -16.340  0.00  0.00    -0.227 NA
ATOM     30  C   UNL     1      31.519 -23.052 -15.100  0.00  0.00    +0.147 C 
ATOM     31  C   UNL     1      30.389 -22.463 -14.557  0.00  0.00    +0.036 C 
ATOM     32  C   UNL     1      29.238 -22.423 -15.337  0.00  0.00    +0.016 C 
ATOM     33  C   UNL     1      30.435 -23.529 -17.068  0.00  0.00    +0.112 C 
ATOM     34  C   UNL     1      29.254 -22.964 -16.618  0.00  0.00    +0.077 C 
ATOM     35  H   UNL     1      32.996 -22.377 -13.738  0.00  0.00    +0.175 HD
ENDBRANCH  24  28
ENDBRANCH   1  24
TORSDOF 5
ENDMDL
MODEL 3
REMARK VINA RESULT:     -10.6      3.524      5.657
REMARK  Name = 24794406
REMARK  5 active torsions:
REMARK  status: ('A' for Active; 'I' for Inactive)
REMARK    1  A    between atoms: C_1  and  S_24
REMARK    2  A    between atoms: C_2  and  N_8
REMARK    3  A    between atoms: C_9  and  C_11
REMARK    4  A    between atoms: C_12  and  N_18
REMARK    5  A    between atoms: S_24  and  N_28
REMARK                            x       y       z     vdW  Elec       q    Type
REMARK                         _______ _______ _______ _____ _____    ______ ____
ROOT
ATOM      1  C   UNL     1      34.775 -23.385 -16.486  0.00  0.00    +0.139 C 
ATOM      2  C   UNL     1      35.785 -22.482 -16.817  0.00  0.00    +0.070 C 
ATOM      3  C   UNL     1      34.882 -24.156 -15.328  0.00  0.00    +0.021 C 
ATOM      4  C   UNL     1      36.902 -22.350 -15.992  0.00  0.00    +0.016 C 
ATOM      5  C   UNL     1      35.999 -24.023 -14.502  0.00  0.00    +0.001 C 
ATOM      6  C   UNL     1      37.008 -23.119 -14.835  0.00  0.00    +0.001 C 
ENDROOT
BRANCH   2   8
ATOM      7  O   UNL     1      37.511 -22.457 -19.269  0.00  0.00    -0.270 OA
ATOM      8  N   UNL     1      35.702 -21.687 -17.988  0.00  0.00    -0.279 N 
ATOM      9  C   UNL     1      36.534 -21.707 -19.117  0.00  0.00    +0.250 C 
ATOM     10  H   UNL     1      34.965 -21.036 -18.011  0.00  0.00    +0.155 HD
BRANCH   9  11
ATOM     11  C   UNL     1      36.212 -20.744 -20.158  0.00  0.00    +0.054 C 
ATOM     12  C   UNL     1      35.593 -18.900 -22.157  0.00  0.00    +0.058 C 
ATOM     13  C   UNL     1      34.907 -20.650 -20.640  0.00  0.00    +0.006 C 
ATOM     14  C   UNL     1      37.207 -19.917 -20.676  0.00  0.00    +0.006 C 
ATOM     15  C   UNL     1      34.597 -19.728 -21.640  0.00  0.00    +0.015 C 
ATOM     16  C   UNL     1      36.899 -18.995 -21.675  0.00  0.00    +0.015 C 
BRANCH  12  18
ATOM     17  O   UNL     1      34.787 -19.564 -24.854  0.00  0.00    -0.269 OA
ATOM     18  N   UNL     1      35.271 -17.940 -23.196  0.00  0.00    -0.233 N 
ATOM     19  C   UNL     1      34.850 -18.394 -24.472  0.00  0.00    +0.257 C 
ATOM     20  C   UNL     1      35.397 -16.569 -22.958  0.00  0.00    +0.072 C 
ATOM     21  C   UNL     1      34.493 -17.339 -25.470  0.00  0.00    +0.059 C 
ATOM     22  C   UNL     1      35.104 -15.645 -23.879  0.00  0.00    +0.017 C 
ATOM     23  C   UNL     1      34.632 -16.046 -25.170  0.00  0.00    +0.006 C 
ENDBRANCH  12  18
ENDBRANCH   9  11
ENDBRANCH   2   8
BRANCH   1  24
ATOM     24  S   UNL     1      33.357 -23.581 -17.496  0.00  0.00    +0.076 S 
ATOM     25  O   UNL     1      33.739 -24.406 -18.633  0.00  0.00    -0.150 OA
ATOM     26  O   UNL     1      32.780 -22.267 -17.739  0.00  0.00    -0.150 OA
BRANCH  24  28
ATOM     27 CL   UNL     1      26.848 -22.430 -15.766  0.00  0.00    -0.081 Cl
ATOM     28  N   UNL     1      32.305 -24.500 -16.492  0.00  0.00    -0.199 N 
ATOM     29  N   UNL     1      30.795 -22.694 -16.233  0.00  0.00    -0.227 NA
ATOM     30  C   UNL     1      30.955 -24.034 -16.314  0.00  0.00    +0.147 C 
ATOM     31  C   UNL     1      29.915 -24.945 -16.237  0.00  0.00    +0.036 C 
ATOM     32  C   UNL     1      28.626 -24.450 -16.067  0.00  0.00    +0.016 C 
ATOM     33  C   UNL     1      29.529 -22.249 -16.067  0.00  0.00    +0.112 C 
ATOM     34  C   UNL     1      28.422 -23.077 -15.979  0.00  0.00    +0.077 C 
ATOM     35  H   UNL     1      32.616 -25.323 -16.050  0.00  0.00    +0.175 HD
ENDBRANCH  24  28
ENDBRANCH   1  24
TORSDOF 5
ENDMDL
MODEL 4
REMARK VINA RESULT:     -10.5      6.499     12.178
REMARK  Name = 24794406
REMARK  5 active torsions:
REMARK  status: ('A' for Active; 'I' for Inactive)
REMARK    1  A    between atoms: C_1  and  S_24
REMARK    2  A    between atoms: C_2  and  N_8
REMARK    3  A    between atoms: C_9  and  C_11
REMARK    4  A    between atoms: C_12  and  N_18
REMARK    5  A    between atoms: S_24  and  N_28
REMARK                            x       y       z     vdW  Elec       q    Type
REMARK                         _______ _______ _______ _____ _____    ______ ____
ROOT
ATOM      1  C   UNL     1      33.811 -13.146 -25.146  0.00  0.00    +0.139 C 
ATOM      2  C   UNL     1      33.944 -14.444 -25.638  0.00  0.00    +0.070 C 
ATOM      3  C   UNL     1      33.554 -12.092 -26.023  0.00  0.00    +0.021 C 
ATOM      4  C   UNL     1      33.823 -14.689 -27.006  0.00  0.00    +0.016 C 
ATOM      5  C   UNL     1      33.432 -12.336 -27.391  0.00  0.00    +0.001 C 
ATOM      6  C   UNL     1      33.566 -13.635 -27.882  0.00  0.00    +0.001 C 
ENDROOT
BRANCH   2   8
ATOM      7  O   UNL     1      35.387 -17.023 -26.144  0.00  0.00    -0.270 OA
ATOM      8  N   UNL     1      34.205 -15.533 -24.769  0.00  0.00    -0.279 N 
ATOM      9  C   UNL     1      34.886 -16.727 -25.047  0.00  0.00    +0.250 C 
ATOM     10  H   UNL     1      33.863 -15.440 -23.851  0.00  0.00    +0.155 HD
BRANCH   9  11
ATOM     11  C   UNL     1      34.972 -17.678 -23.950  0.00  0.00    +0.054 C 
ATOM     12  C   UNL     1      35.135 -19.503 -21.847  0.00  0.00    +0.058 C 
ATOM     13  C   UNL     1      34.640 -19.016 -24.161  0.00  0.00    +0.006 C 
ATOM     14  C   UNL     1      35.385 -17.253 -22.688  0.00  0.00    +0.006 C 
ATOM     15  C   UNL     1      34.721 -19.929 -23.109  0.00  0.00    +0.015 C 
ATOM     16  C   UNL     1      35.466 -18.165 -21.636  0.00  0.00    +0.015 C 
BRANCH  12  18
ATOM     17  O   UNL     1      32.884 -20.825 -20.601  0.00  0.00    -0.269 OA
ATOM     18  N   UNL     1      35.220 -20.452 -20.754  0.00  0.00    -0.233 N 
ATOM     19  C   UNL     1      34.042 -21.063 -20.254  0.00  0.00    +0.257 C 
ATOM     20  C   UNL     1      36.453 -20.752 -20.170  0.00  0.00    +0.072 C 
ATOM     21  C   UNL     1      34.223 -22.064 -19.157  0.00  0.00    +0.059 C 
ATOM     22  C   UNL     1      36.586 -21.626 -19.166  0.00  0.00    +0.017 C 
ATOM     23  C   UNL     1      35.435 -22.305 -18.652  0.00  0.00    +0.006 C 
ENDBRANCH  12  18
ENDBRANCH   9  11
ENDBRANCH   2   8
BRANCH   1  24
ATOM     24  S   UNL     1      33.956 -12.797 -23.436  0.00  0.00    +0.076 S 
ATOM     25  O   UNL     1      34.659 -11.528 -23.305  0.00  0.00    -0.150 OA
ATOM     26  O   UNL     1      34.495 -13.974 -22.770  0.00  0.00    -0.150 OA
BRANCH  24  28
ATOM     27 CL   UNL     1      31.343 -11.479 -17.262  0.00  0.00    -0.081 Cl
ATOM     28  N   UNL     1      32.320 -12.559 -22.959  0.00  0.00    -0.199 N 
ATOM     29  N   UNL     1      32.819 -12.914 -20.672  0.00  0.00    -0.227 NA
ATOM     30  C   UNL     1      32.049 -12.269 -21.576  0.00  0.00    +0.147 C 
ATOM     31  C   UNL     1      31.048 -11.371 -21.243  0.00  0.00    +0.036 C 
ATOM     32  C   UNL     1      30.823 -11.118 -19.894  0.00  0.00    +0.016 C 
ATOM     33  C   UNL     1      32.571 -12.643 -19.371  0.00  0.00    +0.112 C 
ATOM     34  C   UNL     1      31.595 -11.763 -18.934  0.00  0.00    +0.077 C 
ATOM     35  H   UNL     1      31.588 -12.621 -23.614  0.00  0.00    +0.175 HD
ENDBRANCH  24  28
ENDBRANCH   1  24
TORSDOF 5
ENDMDL
MODEL 5
REMARK VINA RESULT:     -10.4      3.432      5.732
REMARK  Name = 24794406
REMARK  5 active torsions:
REMARK  status: ('A' for Active; 'I' for Inactive)
REMARK    1  A    between atoms: C_1  and  S_24
REMARK    2  A    between atoms: C_2  and  N_8
REMARK    3  A    between atoms: C_9  and  C_11
REMARK    4  A    between atoms: C_12  and  N_18
REMARK    5  A    between atoms: S_24  and  N_28
REMARK                            x       y       z     vdW  Elec       q    Type
REMARK                         _______ _______ _______ _____ _____    ______ ____
ROOT
ATOM      1  C   UNL     1      35.327 -23.302 -16.849  0.00  0.00    +0.139 C 
ATOM      2  C   UNL     1      36.321 -22.419 -17.268  0.00  0.00    +0.070 C 
ATOM      3  C   UNL     1      35.574 -24.182 -15.794  0.00  0.00    +0.021 C 
ATOM      4  C   UNL     1      37.563 -22.415 -16.633  0.00  0.00    +0.016 C 
ATOM      5  C   UNL     1      36.816 -24.176 -15.159  0.00  0.00    +0.001 C 
ATOM      6  C   UNL     1      37.810 -23.292 -15.579  0.00  0.00    +0.001 C 
ENDROOT
BRANCH   2   8
ATOM      7  O   UNL     1      36.324 -22.884 -20.230  0.00  0.00    -0.270 OA
ATOM      8  N   UNL     1      36.096 -21.516 -18.336  0.00  0.00    -0.279 N 
ATOM      9  C   UNL     1      36.107 -21.775 -19.715  0.00  0.00    +0.250 C 
ATOM     10  H   UNL     1      35.908 -20.585 -18.078  0.00  0.00    +0.155 HD
BRANCH   9  11
ATOM     11  C   UNL     1      35.867 -20.630 -20.577  0.00  0.00    +0.054 C 
ATOM     12  C   UNL     1      35.408 -18.430 -22.230  0.00  0.00    +0.058 C 
ATOM     13  C   UNL     1      36.919 -19.777 -20.913  0.00  0.00    +0.006 C 
ATOM     14  C   UNL     1      34.586 -20.381 -21.068  0.00  0.00    +0.006 C 
ATOM     15  C   UNL     1      36.689 -18.677 -21.739  0.00  0.00    +0.015 C 
ATOM     16  C   UNL     1      34.356 -19.282 -21.894  0.00  0.00    +0.015 C 
BRANCH  12  18
ATOM     17  O   UNL     1      35.041 -15.707 -21.327  0.00  0.00    -0.269 OA
ATOM     18  N   UNL     1      35.169 -17.287 -23.090  0.00  0.00    -0.233 N 
ATOM     19  C   UNL     1      35.045 -15.991 -22.526  0.00  0.00    +0.257 C 
ATOM     20  C   UNL     1      35.036 -17.454 -24.471  0.00  0.00    +0.072 C 
ATOM     21  C   UNL     1      34.846 -14.862 -23.487  0.00  0.00    +0.059 C 
ATOM     22  C   UNL     1      34.825 -16.431 -25.307  0.00  0.00    +0.017 C 
ATOM     23  C   UNL     1      34.734 -15.096 -24.796  0.00  0.00    +0.006 C 
ENDBRANCH  12  18
ENDBRANCH   9  11
ENDBRANCH   2   8
BRANCH   1  24
ATOM     24  S   UNL     1      33.754 -23.339 -17.619  0.00  0.00    +0.076 S 
ATOM     25  O   UNL     1      33.830 -24.281 -18.728  0.00  0.00    -0.150 OA
ATOM     26  O   UNL     1      33.338 -21.969 -17.884  0.00  0.00    -0.150 OA
BRANCH  24  28
ATOM     27 CL   UNL     1      27.014 -22.763 -16.654  0.00  0.00    -0.081 Cl
ATOM     28  N   UNL     1      32.752 -24.024 -16.398  0.00  0.00    -0.199 N 
ATOM     29  N   UNL     1      30.985 -22.513 -16.846  0.00  0.00    -0.227 NA
ATOM     30  C   UNL     1      31.340 -23.755 -16.447  0.00  0.00    +0.147 C 
ATOM     31  C   UNL     1      30.437 -24.744 -16.096  0.00  0.00    +0.036 C 
ATOM     32  C   UNL     1      29.081 -24.441 -16.160  0.00  0.00    +0.016 C 
ATOM     33  C   UNL     1      29.659 -22.254 -16.896  0.00  0.00    +0.112 C 
ATOM     34  C   UNL     1      28.677 -23.174 -16.567  0.00  0.00    +0.077 C 
ATOM     35  H   UNL     1      33.135 -24.584 -15.685  0.00  0.00    +0.175 HD
ENDBRANCH  24  28
ENDBRANCH   1  24
TORSDOF 5
ENDMDL
