MODEL 1
REMARK VINA RESULT:     -11.3      0.000      0.000
REMARK  Name = 52913524
REMARK  9 active torsions:
REMARK  status: ('A' for Active; 'I' for Inactive)
REMARK    1  A    between atoms: C_1  and  C_10
REMARK    2  A    between atoms: C_4  and  C_24
REMARK    3  A    between atoms: C_5  and  C_22
REMARK    4  A    between atoms: C_8  and  O_13
REMARK    5  A    between atoms: C_9  and  O_15
REMARK    6  A    between atoms: C_11  and  O_17
REMARK    7  A    between atoms: C_12  and  C_19
REMARK    8  A    between atoms: C_19  and  O_20
REMARK    9  A    between atoms: C_24  and  C_27
REMARK                            x       y       z     vdW  Elec       q    Type
REMARK                         _______ _______ _______ _____ _____    ______ ____
ROOT
ATOM      1  C   UNL     1      34.336 -24.115 -15.005  0.00  0.00    +0.007 C 
ATOM      2  C   UNL     1      34.290 -23.991 -16.393  0.00  0.00    -0.006 C 
ATOM      3  C   UNL     1      33.239 -23.734 -14.232  0.00  0.00    -0.002 C 
ATOM      4  C   UNL     1      33.146 -23.483 -17.009  0.00  0.00    -0.022 C 
ATOM      5  C   UNL     1      32.049 -23.101 -16.237  0.00  0.00    -0.026 C 
ATOM      6  C   UNL     1      32.095 -23.227 -14.849  0.00  0.00    -0.005 C 
ENDROOT
BRANCH   1  10
ATOM      7  O   UNL     1      36.247 -23.578 -13.690  0.00  0.00    -0.347 OA
ATOM      8  C   UNL     1      36.512 -25.364 -15.338  0.00  0.00    +0.171 C 
ATOM      9  C   UNL     1      37.830 -25.770 -14.672  0.00  0.00    +0.169 C 
ATOM     10  C   UNL     1      35.580 -24.668 -14.335  0.00  0.00    +0.167 C 
ATOM     11  C   UNL     1      38.432 -24.611 -13.878  0.00  0.00    +0.169 C 
ATOM     12  C   UNL     1      37.391 -23.994 -12.943  0.00  0.00    +0.174 C 
BRANCH   8  13
ATOM     13  O   UNL     1      35.862 -26.533 -15.833  0.00  0.00    -0.379 OA
ATOM     14  H   UNL     1      35.667 -26.421 -16.776  0.00  0.00    +0.211 HD
ENDBRANCH   8  13
BRANCH   9  15
ATOM     15  O   UNL     1      38.771 -26.154 -15.675  0.00  0.00    -0.379 OA
ATOM     16  H   UNL     1      39.584 -26.470 -15.252  0.00  0.00    +0.211 HD
ENDBRANCH   9  15
BRANCH  11  17
ATOM     17  O   UNL     1      39.531 -25.090 -13.107  0.00  0.00    -0.379 OA
ATOM     18  H   UNL     1      40.347 -24.660 -13.407  0.00  0.00    +0.211 HD
ENDBRANCH  11  17
BRANCH  12  19
ATOM     19  C   UNL     1      37.936 -22.765 -12.222  0.00  0.00    +0.169 C 
BRANCH  19  20
ATOM     20  O   UNL     1      37.550 -22.832 -10.862  0.00  0.00    -0.379 OA
ATOM     21  H   UNL     1      38.100 -22.227 -10.339  0.00  0.00    +0.211 HD
ENDBRANCH  19  20
ENDBRANCH  12  19
ENDBRANCH   1  10
BRANCH   5  22
ATOM     22  C   UNL     1      30.814 -22.555 -16.874  0.00  0.00    +0.026 C 
ATOM     23  C   UNL     1      29.552 -22.920 -16.099  0.00  0.00    +0.005 C 
ENDBRANCH   5  22
BRANCH   4  24
ATOM     24  C   UNL     1      33.119 -23.358 -18.497  0.00  0.00    +0.052 C 
BRANCH  24  27
ATOM     25  O   UNL     1      34.430 -19.861 -21.635  0.00  0.00    -0.468 OA
ATOM     26  O   UNL     1      37.081 -19.825 -20.501  0.00  0.00    -0.468 OA
ATOM     27  C   UNL     1      34.167 -22.415 -19.052  0.00  0.00    -0.015 C 
ATOM     28  C   UNL     1      33.839 -21.543 -20.089  0.00  0.00    +0.036 C 
ATOM     29  C   UNL     1      35.461 -22.425 -18.529  0.00  0.00    -0.001 C 
ATOM     30  C   UNL     1      34.808 -20.681 -20.603  0.00  0.00    +0.172 C 
ATOM     31  C   UNL     1      36.095 -20.671 -20.061  0.00  0.00    +0.172 C 
ATOM     32  C   UNL     1      36.426 -21.554 -19.034  0.00  0.00    +0.040 C 
ATOM     33  C   UNL     1      35.559 -19.289 -22.302  0.00  0.00    +0.253 C 
ATOM     34  C   UNL     1      36.552 -18.756 -21.288  0.00  0.00    +0.253 C 
ENDBRANCH  24  27
ENDBRANCH   4  24
TORSDOF 9
ENDMDL
MODEL 2
REMARK VINA RESULT:     -11.2      1.160      2.305
REMARK  Name = 52913524
REMARK  9 active torsions:
REMARK  status: ('A' for Active; 'I' for Inactive)
REMARK    1  A    between atoms: C_1  and  C_10
REMARK    2  A    between atoms: C_4  and  C_24
REMARK    3  A    between atoms: C_5  and  C_22
REMARK    4  A    between atoms: C_8  and  O_13
REMARK    5  A    between atoms: C_9  and  O_15
REMARK    6  A    between atoms: C_11  and  O_17
REMARK    7  A    between atoms: C_12  and  C_19
REMARK    8  A    between atoms: C_19  and  O_20
REMARK    9  A    between atoms: C_24  and  C_27
REMARK                            x       y       z     vdW  Elec       q    Type
REMARK                         _______ _______ _______ _____ _____    ______ ____
ROOT
ATOM      1  C   UNL     1      34.310 -23.637 -14.982  0.00  0.00    +0.007 C 
ATOM      2  C   UNL     1      34.397 -23.678 -16.373  0.00  0.00    -0.006 C 
ATOM      3  C   UNL     1      33.111 -23.273 -14.368  0.00  0.00    -0.002 C 
ATOM      4  C   UNL     1      33.285 -23.354 -17.151  0.00  0.00    -0.022 C 
ATOM      5  C   UNL     1      32.087 -22.989 -16.537  0.00  0.00    -0.026 C 
ATOM      6  C   UNL     1      32.000 -22.948 -15.146  0.00  0.00    -0.005 C 
ENDROOT
BRANCH   1  10
ATOM      7  O   UNL     1      36.258 -24.996 -14.835  0.00  0.00    -0.347 OA
ATOM      8  C   UNL     1      35.116 -24.481 -12.737  0.00  0.00    +0.171 C 
ATOM      9  C   UNL     1      36.337 -24.983 -11.961  0.00  0.00    +0.169 C 
ATOM     10  C   UNL     1      35.518 -23.990 -14.136  0.00  0.00    +0.167 C 
ATOM     11  C   UNL     1      37.174 -25.946 -12.802  0.00  0.00    +0.169 C 
ATOM     12  C   UNL     1      37.476 -25.345 -14.176  0.00  0.00    +0.174 C 
BRANCH   8  13
ATOM     13  O   UNL     1      34.526 -23.396 -12.023  0.00  0.00    -0.379 OA
ATOM     14  H   UNL     1      34.961 -23.300 -11.162  0.00  0.00    +0.211 HD
ENDBRANCH   8  13
BRANCH   9  15
ATOM     15  O   UNL     1      35.903 -25.681 -10.792  0.00  0.00    -0.379 OA
ATOM     16  H   UNL     1      36.363 -25.327 -10.015  0.00  0.00    +0.211 HD
ENDBRANCH   9  15
BRANCH  11  17
ATOM     17  O   UNL     1      38.400 -26.216 -12.128  0.00  0.00    -0.379 OA
ATOM     18  H   UNL     1      38.734 -27.086 -12.401  0.00  0.00    +0.211 HD
ENDBRANCH  11  17
BRANCH  12  19
ATOM     19  C   UNL     1      38.215 -26.333 -15.075  0.00  0.00    +0.169 C 
BRANCH  19  20
ATOM     20  O   UNL     1      37.307 -26.832 -16.038  0.00  0.00    -0.379 OA
ATOM     21  H   UNL     1      37.767 -27.450 -16.627  0.00  0.00    +0.211 HD
ENDBRANCH  19  20
ENDBRANCH  12  19
ENDBRANCH   1  10
BRANCH   5  22
ATOM     22  C   UNL     1      30.884 -22.637 -17.349  0.00  0.00    +0.026 C 
ATOM     23  C   UNL     1      29.581 -22.959 -16.624  0.00  0.00    +0.005 C 
ENDBRANCH   5  22
BRANCH   4  24
ATOM     24  C   UNL     1      33.403 -23.404 -18.639  0.00  0.00    +0.052 C 
BRANCH  24  27
ATOM     25  O   UNL     1      34.352 -19.804 -21.790  0.00  0.00    -0.468 OA
ATOM     26  O   UNL     1      37.018 -19.558 -20.720  0.00  0.00    -0.468 OA
ATOM     27  C   UNL     1      34.358 -22.379 -19.214  0.00  0.00    -0.015 C 
ATOM     28  C   UNL     1      33.935 -21.532 -20.239  0.00  0.00    +0.036 C 
ATOM     29  C   UNL     1      35.661 -22.286 -18.722  0.00  0.00    -0.001 C 
ATOM     30  C   UNL     1      34.819 -20.594 -20.772  0.00  0.00    +0.172 C 
ATOM     31  C   UNL     1      36.114 -20.482 -20.260  0.00  0.00    +0.172 C 
ATOM     32  C   UNL     1      36.540 -21.339 -19.245  0.00  0.00    +0.040 C 
ATOM     33  C   UNL     1      35.415 -19.141 -22.481  0.00  0.00    +0.253 C 
ATOM     34  C   UNL     1      36.386 -18.532 -21.489  0.00  0.00    +0.253 C 
ENDBRANCH  24  27
ENDBRANCH   4  24
TORSDOF 9
ENDMDL
MODEL 3
REMARK VINA RESULT:     -10.4      2.518      5.752
REMARK  Name = 52913524
REMARK  9 active torsions:
REMARK  status: ('A' for Active; 'I' for Inactive)
REMARK    1  A    between atoms: C_1  and  C_10
REMARK    2  A    between atoms: C_4  and  C_24
REMARK    3  A    between atoms: C_5  and  C_22
REMARK    4  A    between atoms: C_8  and  O_13
REMARK    5  A    between atoms: C_9  and  O_15
REMARK    6  A    between atoms: C_11  and  O_17
REMARK    7  A    between atoms: C_12  and  C_19
REMARK    8  A    between atoms: C_19  and  O_20
REMARK    9  A    between atoms: C_24  and  C_27
REMARK                            x       y       z     vdW  Elec       q    Type
REMARK                         _______ _______ _______ _____ _____    ______ ____
ROOT
ATOM      1  C   UNL     1      37.047 -22.798 -16.389  0.00  0.00    +0.007 C 
ATOM      2  C   UNL     1      35.778 -23.101 -16.883  0.00  0.00    -0.006 C 
ATOM      3  C   UNL     1      37.866 -21.901 -17.072  0.00  0.00    -0.002 C 
ATOM      4  C   UNL     1      35.329 -22.505 -18.062  0.00  0.00    -0.022 C 
ATOM      5  C   UNL     1      36.150 -21.608 -18.746  0.00  0.00    -0.026 C 
ATOM      6  C   UNL     1      37.418 -21.305 -18.252  0.00  0.00    -0.005 C 
ENDROOT
BRANCH   1  10
ATOM      7  O   UNL     1      38.524 -24.416 -15.458  0.00  0.00    -0.347 OA
ATOM      8  C   UNL     1      36.386 -24.094 -14.318  0.00  0.00    +0.171 C 
ATOM      9  C   UNL     1      36.921 -24.876 -13.115  0.00  0.00    +0.169 C 
ATOM     10  C   UNL     1      37.534 -23.445 -15.106  0.00  0.00    +0.167 C 
ATOM     11  C   UNL     1      38.073 -25.796 -13.517  0.00  0.00    +0.169 C 
ATOM     12  C   UNL     1      39.127 -25.030 -14.318  0.00  0.00    +0.174 C 
BRANCH   8  13
ATOM     13  O   UNL     1      35.511 -23.068 -13.854  0.00  0.00    -0.379 OA
ATOM     14  H   UNL     1      35.511 -22.331 -14.484  0.00  0.00    +0.211 HD
ENDBRANCH   8  13
BRANCH   9  15
ATOM     15  O   UNL     1      35.877 -25.687 -12.573  0.00  0.00    -0.379 OA
ATOM     16  H   UNL     1      35.671 -25.390 -11.673  0.00  0.00    +0.211 HD
ENDBRANCH   9  15
BRANCH  11  17
ATOM     17  O   UNL     1      38.676 -26.336 -12.344  0.00  0.00    -0.379 OA
ATOM     18  H   UNL     1      39.552 -26.690 -12.565  0.00  0.00    +0.211 HD
ENDBRANCH  11  17
BRANCH  12  19
ATOM     19  C   UNL     1      40.232 -25.951 -14.826  0.00  0.00    +0.169 C 
BRANCH  19  20
ATOM     20  O   UNL     1      40.358 -25.775 -16.225  0.00  0.00    -0.379 OA
ATOM     21  H   UNL     1      41.238 -26.066 -16.509  0.00  0.00    +0.211 HD
ENDBRANCH  19  20
ENDBRANCH  12  19
ENDBRANCH   1  10
BRANCH   5  22
ATOM     22  C   UNL     1      35.691 -20.959 -20.011  0.00  0.00    +0.026 C 
ATOM     23  C   UNL     1      36.774 -20.088 -20.640  0.00  0.00    +0.005 C 
ENDBRANCH   5  22
BRANCH   4  24
ATOM     24  C   UNL     1      33.968 -22.845 -18.573  0.00  0.00    +0.052 C 
BRANCH  24  27
ATOM     25  O   UNL     1      32.794 -24.823 -14.272  0.00  0.00    -0.468 OA
ATOM     26  O   UNL     1      30.124 -23.760 -14.502  0.00  0.00    -0.468 OA
ATOM     27  C   UNL     1      32.951 -23.108 -17.481  0.00  0.00    -0.015 C 
ATOM     28  C   UNL     1      33.318 -23.837 -16.350  0.00  0.00    +0.036 C 
ATOM     29  C   UNL     1      31.648 -22.626 -17.611  0.00  0.00    -0.001 C 
ATOM     30  C   UNL     1      32.379 -24.084 -15.349  0.00  0.00    +0.172 C 
ATOM     31  C   UNL     1      31.082 -23.579 -15.466  0.00  0.00    +0.172 C 
ATOM     32  C   UNL     1      30.712 -22.862 -16.604  0.00  0.00    +0.040 C 
ATOM     33  C   UNL     1      31.691 -25.303 -13.498  0.00  0.00    +0.253 C 
ATOM     34  C   UNL     1      30.691 -24.189 -13.262  0.00  0.00    +0.253 C 
ENDBRANCH  24  27
ENDBRANCH   4  24
TORSDOF 9
ENDMDL
MODEL 4
REMARK VINA RESULT:     -10.4      2.524      6.940
REMARK  Name = 52913524
REMARK  9 active torsions:
REMARK  status: ('A' for Active; 'I' for Inactive)
REMARK    1  A    between atoms: C_1  and  C_10
REMARK    2  A    between atoms: C_4  and  C_24
REMARK    3  A    between atoms: C_5  and  C_22
REMARK    4  A    between atoms: C_8  and  O_13
REMARK    5  A    between atoms: C_9  and  O_15
REMARK    6  A    between atoms: C_11  and  O_17
REMARK    7  A    between atoms: C_12  and  C_19
REMARK    8  A    between atoms: C_19  and  O_20
REMARK    9  A    between atoms: C_24  and  C_27
REMARK                            x       y       z     vdW  Elec       q    Type
REMARK                         _______ _______ _______ _____ _____    ______ ____
ROOT
ATOM      1  C   UNL     1      33.825 -23.115 -17.556  0.00  0.00    +0.007 C 
ATOM      2  C   UNL     1      35.124 -22.900 -17.096  0.00  0.00    -0.006 C 
ATOM      3  C   UNL     1      33.430 -22.609 -18.795  0.00  0.00    -0.002 C 
ATOM      4  C   UNL     1      36.029 -22.180 -17.876  0.00  0.00    -0.022 C 
ATOM      5  C   UNL     1      35.635 -21.674 -19.115  0.00  0.00    -0.026 C 
ATOM      6  C   UNL     1      34.336 -21.889 -19.574  0.00  0.00    -0.005 C 
ENDROOT
BRANCH   1  10
ATOM      7  O   UNL     1      31.655 -23.109 -16.577  0.00  0.00    -0.347 OA
ATOM      8  C   UNL     1      33.421 -24.249 -15.330  0.00  0.00    +0.171 C 
ATOM      9  C   UNL     1      32.359 -24.896 -14.437  0.00  0.00    +0.169 C 
ATOM     10  C   UNL     1      32.841 -23.899 -16.709  0.00  0.00    +0.167 C 
ATOM     11  C   UNL     1      31.062 -24.090 -14.441  0.00  0.00    +0.169 C 
ATOM     12  C   UNL     1      30.614 -23.787 -15.872  0.00  0.00    +0.174 C 
BRANCH   8  13
ATOM     13  O   UNL     1      34.501 -25.164 -15.507  0.00  0.00    -0.379 OA
ATOM     14  H   UNL     1      34.963 -25.288 -14.663  0.00  0.00    +0.211 HD
ENDBRANCH   8  13
BRANCH   9  15
ATOM     15  O   UNL     1      32.840 -24.953 -13.093  0.00  0.00    -0.379 OA
ATOM     16  H   UNL     1      32.267 -24.418 -12.522  0.00  0.00    +0.211 HD
ENDBRANCH   9  15
BRANCH  11  17
ATOM     17  O   UNL     1      30.043 -24.833 -13.778  0.00  0.00    -0.379 OA
ATOM     18  H   UNL     1      29.617 -24.274 -13.109  0.00  0.00    +0.211 HD
ENDBRANCH  11  17
BRANCH  12  19
ATOM     19  C   UNL     1      29.382 -22.888 -15.902  0.00  0.00    +0.169 C 
BRANCH  19  20
ATOM     20  O   UNL     1      29.175 -22.451 -17.232  0.00  0.00    -0.379 OA
ATOM     21  H   UNL     1      28.894 -23.202 -17.779  0.00  0.00    +0.211 HD
ENDBRANCH  19  20
ENDBRANCH  12  19
ENDBRANCH   1  10
BRANCH   5  22
ATOM     22  C   UNL     1      36.586 -20.899 -19.966  0.00  0.00    +0.026 C 
ATOM     23  C   UNL     1      35.874 -20.120 -21.068  0.00  0.00    +0.005 C 
ENDBRANCH   5  22
BRANCH   4  24
ATOM     24  C   UNL     1      37.415 -21.962 -17.363  0.00  0.00    +0.052 C 
BRANCH  24  27
ATOM     25  O   UNL     1      36.623 -23.284 -12.735  0.00  0.00    -0.468 OA
ATOM     26  O   UNL     1      38.752 -25.220 -12.915  0.00  0.00    -0.468 OA
ATOM     27  C   UNL     1      37.765 -22.816 -16.162  0.00  0.00    -0.015 C 
ATOM     28  C   UNL     1      37.035 -22.688 -14.980  0.00  0.00    +0.036 C 
ATOM     29  C   UNL     1      38.821 -23.726 -16.236  0.00  0.00    -0.001 C 
ATOM     30  C   UNL     1      37.364 -23.470 -13.873  0.00  0.00    +0.172 C 
ATOM     31  C   UNL     1      38.402 -24.400 -13.957  0.00  0.00    +0.172 C 
ATOM     32  C   UNL     1      39.141 -24.517 -15.134  0.00  0.00    +0.040 C 
ATOM     33  C   UNL     1      37.251 -23.864 -11.589  0.00  0.00    +0.253 C 
ATOM     34  C   UNL     1      37.737 -25.264 -11.909  0.00  0.00    +0.253 C 
ENDBRANCH  24  27
ENDBRANCH   4  24
TORSDOF 9
ENDMDL
MODEL 5
REMARK VINA RESULT:     -10.2      2.388      5.481
REMARK  Name = 52913524
REMARK  9 active torsions:
REMARK  status: ('A' for Active; 'I' for Inactive)
REMARK    1  A    between atoms: C_1  and  C_10
REMARK    2  A    between atoms: C_4  and  C_24
REMARK    3  A    between atoms: C_5  and  C_22
REMARK    4  A    between atoms: C_8  and  O_13
REMARK    5  A    between atoms: C_9  and  O_15
REMARK    6  A    between atoms: C_11  and  O_17
REMARK    7  A    between atoms: C_12  and  C_19
REMARK    8  A    between atoms: C_19  and  O_20
REMARK    9  A    between atoms: C_24  and  C_27
REMARK                            x       y       z     vdW  Elec       q    Type
REMARK                         _______ _______ _______ _____ _____    ______ ____
ROOT
ATOM      1  C   UNL     1      37.153 -22.755 -16.288  0.00  0.00    +0.007 C 
ATOM      2  C   UNL     1      35.919 -23.104 -16.839  0.00  0.00    -0.006 C 
ATOM      3  C   UNL     1      37.951 -21.798 -16.914  0.00  0.00    -0.002 C 
ATOM      4  C   UNL     1      35.485 -22.496 -18.017  0.00  0.00    -0.022 C 
ATOM      5  C   UNL     1      36.285 -21.540 -18.644  0.00  0.00    -0.026 C 
ATOM      6  C   UNL     1      37.517 -21.191 -18.093  0.00  0.00    -0.005 C 
ENDROOT
BRANCH   1  10
ATOM      7  O   UNL     1      38.611 -24.389 -15.357  0.00  0.00    -0.347 OA
ATOM      8  C   UNL     1      36.465 -24.064 -14.235  0.00  0.00    +0.171 C 
ATOM      9  C   UNL     1      36.984 -24.859 -13.033  0.00  0.00    +0.169 C 
ATOM     10  C   UNL     1      37.624 -23.415 -15.007  0.00  0.00    +0.167 C 
ATOM     11  C   UNL     1      38.133 -25.783 -13.432  0.00  0.00    +0.169 C 
ATOM     12  C   UNL     1      39.200 -25.017 -14.217  0.00  0.00    +0.174 C 
BRANCH   8  13
ATOM     13  O   UNL     1      35.592 -23.036 -13.770  0.00  0.00    -0.379 OA
ATOM     14  H   UNL     1      34.881 -23.429 -13.240  0.00  0.00    +0.211 HD
ENDBRANCH   8  13
BRANCH   9  15
ATOM     15  O   UNL     1      35.930 -25.667 -12.507  0.00  0.00    -0.379 OA
ATOM     16  H   UNL     1      35.860 -25.525 -11.550  0.00  0.00    +0.211 HD
ENDBRANCH   9  15
BRANCH  11  17
ATOM     17  O   UNL     1      38.722 -26.336 -12.258  0.00  0.00    -0.379 OA
ATOM     18  H   UNL     1      39.429 -26.951 -12.510  0.00  0.00    +0.211 HD
ENDBRANCH  11  17
BRANCH  12  19
ATOM     19  C   UNL     1      40.304 -25.941 -14.722  0.00  0.00    +0.169 C 
BRANCH  19  20
ATOM     20  O   UNL     1      40.435 -25.763 -16.120  0.00  0.00    -0.379 OA
ATOM     21  H   UNL     1      41.125 -26.355 -16.458  0.00  0.00    +0.211 HD
ENDBRANCH  19  20
ENDBRANCH  12  19
ENDBRANCH   1  10
BRANCH   5  22
ATOM     22  C   UNL     1      35.842 -20.876 -19.907  0.00  0.00    +0.026 C 
ATOM     23  C   UNL     1      36.947 -20.037 -20.538  0.00  0.00    +0.005 C 
ENDBRANCH   5  22
BRANCH   4  24
ATOM     24  C   UNL     1      34.162 -22.886 -18.589  0.00  0.00    +0.052 C 
BRANCH  24  27
ATOM     25  O   UNL     1      29.540 -22.513 -17.077  0.00  0.00    -0.468 OA
ATOM     26  O   UNL     1      30.209 -23.929 -14.656  0.00  0.00    -0.468 OA
ATOM     27  C   UNL     1      33.096 -23.147 -17.545  0.00  0.00    -0.015 C 
ATOM     28  C   UNL     1      31.784 -22.730 -17.771  0.00  0.00    +0.036 C 
ATOM     29  C   UNL     1      33.428 -23.798 -16.356  0.00  0.00    -0.001 C 
ATOM     30  C   UNL     1      30.806 -22.965 -16.806  0.00  0.00    +0.172 C 
ATOM     31  C   UNL     1      31.132 -23.640 -15.628  0.00  0.00    +0.172 C 
ATOM     32  C   UNL     1      32.447 -24.044 -15.396  0.00  0.00    +0.040 C 
ATOM     33  C   UNL     1      28.719 -22.492 -15.906  0.00  0.00    +0.253 C 
ATOM     34  C   UNL     1      28.869 -23.789 -15.136  0.00  0.00    +0.253 C 
ENDBRANCH  24  27
ENDBRANCH   4  24
TORSDOF 9
ENDMDL
MODEL 6
REMARK VINA RESULT:     -10.2      3.273      7.535
REMARK  Name = 52913524
REMARK  9 active torsions:
REMARK  status: ('A' for Active; 'I' for Inactive)
REMARK    1  A    between atoms: C_1  and  C_10
REMARK    2  A    between atoms: C_4  and  C_24
REMARK    3  A    between atoms: C_5  and  C_22
REMARK    4  A    between atoms: C_8  and  O_13
REMARK    5  A    between atoms: C_9  and  O_15
REMARK    6  A    between atoms: C_11  and  O_17
REMARK    7  A    between atoms: C_12  and  C_19
REMARK    8  A    between atoms: C_19  and  O_20
REMARK    9  A    between atoms: C_24  and  C_27
REMARK                            x       y       z     vdW  Elec       q    Type
REMARK                         _______ _______ _______ _____ _____    ______ ____
ROOT
ATOM      1  C   UNL     1      35.675 -22.400 -17.904  0.00  0.00    +0.007 C 
ATOM      2  C   UNL     1      34.712 -23.149 -17.227  0.00  0.00    -0.006 C 
ATOM      3  C   UNL     1      36.876 -22.075 -17.274  0.00  0.00    -0.002 C 
ATOM      4  C   UNL     1      34.951 -23.571 -15.919  0.00  0.00    -0.022 C 
ATOM      5  C   UNL     1      36.153 -23.245 -15.289  0.00  0.00    -0.026 C 
ATOM      6  C   UNL     1      37.115 -22.497 -15.967  0.00  0.00    -0.005 C 
ENDROOT
BRANCH   1  10
ATOM      7  O   UNL     1      36.258 -20.813 -19.579  0.00  0.00    -0.347 OA
ATOM      8  C   UNL     1      33.939 -21.584 -19.555  0.00  0.00    +0.171 C 
ATOM      9  C   UNL     1      33.732 -20.973 -20.944  0.00  0.00    +0.169 C 
ATOM     10  C   UNL     1      35.416 -21.942 -19.326  0.00  0.00    +0.167 C 
ATOM     11  C   UNL     1      34.748 -19.866 -21.222  0.00  0.00    +0.169 C 
ATOM     12  C   UNL     1      36.170 -20.347 -20.926  0.00  0.00    +0.174 C 
BRANCH   8  13
ATOM     13  O   UNL     1      33.159 -22.773 -19.449  0.00  0.00    -0.379 OA
ATOM     14  H   UNL     1      33.680 -23.532 -19.754  0.00  0.00    +0.211 HD
ENDBRANCH   8  13
BRANCH   9  15
ATOM     15  O   UNL     1      32.425 -20.402 -21.021  0.00  0.00    -0.379 OA
ATOM     16  H   UNL     1      32.433 -19.520 -20.619  0.00  0.00    +0.211 HD
ENDBRANCH   9  15
BRANCH  11  17
ATOM     17  O   UNL     1      34.659 -19.479 -22.591  0.00  0.00    -0.379 OA
ATOM     18  H   UNL     1      35.432 -18.940 -22.825  0.00  0.00    +0.211 HD
ENDBRANCH  11  17
BRANCH  12  19
ATOM     19  C   UNL     1      37.191 -19.225 -21.090  0.00  0.00    +0.169 C 
BRANCH  19  20
ATOM     20  O   UNL     1      36.504 -17.988 -21.104  0.00  0.00    -0.379 OA
ATOM     21  H   UNL     1      36.998 -17.338 -20.581  0.00  0.00    +0.211 HD
ENDBRANCH  19  20
ENDBRANCH  12  19
ENDBRANCH   1  10
BRANCH   5  22
ATOM     22  C   UNL     1      36.430 -23.686 -13.890  0.00  0.00    +0.026 C 
ATOM     23  C   UNL     1      37.688 -24.543 -13.791  0.00  0.00    +0.005 C 
ENDBRANCH   5  22
BRANCH   4  24
ATOM     24  C   UNL     1      33.906 -24.371 -15.214  0.00  0.00    +0.052 C 
BRANCH  24  27
ATOM     25  O   UNL     1      29.399 -24.292 -17.078  0.00  0.00    -0.468 OA
ATOM     26  O   UNL     1      28.725 -22.066 -15.374  0.00  0.00    -0.468 OA
ATOM     27  C   UNL     1      32.520 -23.761 -15.278  0.00  0.00    -0.015 C 
ATOM     28  C   UNL     1      31.563 -24.299 -16.137  0.00  0.00    +0.036 C 
ATOM     29  C   UNL     1      32.206 -22.659 -14.481  0.00  0.00    -0.001 C 
ATOM     30  C   UNL     1      30.290 -23.732 -16.199  0.00  0.00    +0.172 C 
ATOM     31  C   UNL     1      29.967 -22.646 -15.383  0.00  0.00    +0.172 C 
ATOM     32  C   UNL     1      30.930 -22.100 -14.534  0.00  0.00    +0.040 C 
ATOM     33  C   UNL     1      28.274 -23.440 -17.312  0.00  0.00    +0.253 C 
ATOM     34  C   UNL     1      27.744 -22.897 -16.000  0.00  0.00    +0.253 C 
ENDBRANCH  24  27
ENDBRANCH   4  24
TORSDOF 9
ENDMDL
MODEL 7
REMARK VINA RESULT:     -10.2      5.484     10.001
REMARK  Name = 52913524
REMARK  9 active torsions:
REMARK  status: ('A' for Active; 'I' for Inactive)
REMARK    1  A    between atoms: C_1  and  C_10
REMARK    2  A    between atoms: C_4  and  C_24
REMARK    3  A    between atoms: C_5  and  C_22
REMARK    4  A    between atoms: C_8  and  O_13
REMARK    5  A    between atoms: C_9  and  O_15
REMARK    6  A    between atoms: C_11  and  O_17
REMARK    7  A    between atoms: C_12  and  C_19
REMARK    8  A    between atoms: C_19  and  O_20
REMARK    9  A    between atoms: C_24  and  C_27
REMARK                            x       y       z     vdW  Elec       q    Type
REMARK                         _______ _______ _______ _____ _____    ______ ____
ROOT
ATOM      1  C   UNL     1      35.172 -18.170 -23.752  0.00  0.00    +0.007 C 
ATOM      2  C   UNL     1      35.394 -16.832 -23.424  0.00  0.00    -0.006 C 
ATOM      3  C   UNL     1      34.595 -18.502 -24.977  0.00  0.00    -0.002 C 
ATOM      4  C   UNL     1      35.036 -15.826 -24.322  0.00  0.00    -0.022 C 
ATOM      5  C   UNL     1      34.457 -16.159 -25.548  0.00  0.00    -0.026 C 
ATOM      6  C   UNL     1      34.237 -17.496 -25.875  0.00  0.00    -0.005 C 
ENDROOT
BRANCH   1  10
ATOM      7  O   UNL     1      34.400 -19.598 -22.012  0.00  0.00    -0.347 OA
ATOM      8  C   UNL     1      36.715 -18.829 -21.857  0.00  0.00    +0.171 C 
ATOM      9  C   UNL     1      36.982 -19.883 -20.779  0.00  0.00    +0.169 C 
ATOM     10  C   UNL     1      35.562 -19.263 -22.776  0.00  0.00    +0.167 C 
ATOM     11  C   UNL     1      35.689 -20.313 -20.087  0.00  0.00    +0.169 C 
ATOM     12  C   UNL     1      34.621 -20.688 -21.116  0.00  0.00    +0.174 C 
BRANCH   8  13
ATOM     13  O   UNL     1      37.891 -18.662 -22.646  0.00  0.00    -0.379 OA
ATOM     14  H   UNL     1      38.554 -19.321 -22.384  0.00  0.00    +0.211 HD
ENDBRANCH   8  13
BRANCH   9  15
ATOM     15  O   UNL     1      37.853 -19.337 -19.787  0.00  0.00    -0.379 OA
ATOM     16  H   UNL     1      37.917 -19.952 -19.039  0.00  0.00    +0.211 HD
ENDBRANCH   9  15
BRANCH  11  17
ATOM     17  O   UNL     1      35.953 -21.437 -19.252  0.00  0.00    -0.379 OA
ATOM     18  H   UNL     1      36.189 -21.130 -18.363  0.00  0.00    +0.211 HD
ENDBRANCH  11  17
BRANCH  12  19
ATOM     19  C   UNL     1      33.286 -21.014 -20.453  0.00  0.00    +0.169 C 
BRANCH  19  20
ATOM     20  O   UNL     1      33.301 -22.371 -20.052  0.00  0.00    -0.379 OA
ATOM     21  H   UNL     1      32.574 -22.844 -20.486  0.00  0.00    +0.211 HD
ENDBRANCH  19  20
ENDBRANCH  12  19
ENDBRANCH   1  10
BRANCH   5  22
ATOM     22  C   UNL     1      34.066 -15.099 -26.525  0.00  0.00    +0.026 C 
ATOM     23  C   UNL     1      32.716 -14.473 -26.189  0.00  0.00    +0.005 C 
ENDBRANCH   5  22
BRANCH   4  24
ATOM     24  C   UNL     1      35.281 -14.401 -23.950  0.00  0.00    +0.052 C 
BRANCH  24  27
ATOM     25  O   UNL     1      32.113 -10.948 -22.597  0.00  0.00    -0.468 OA
ATOM     26  O   UNL     1      31.539 -12.410 -20.180  0.00  0.00    -0.468 OA
ATOM     27  C   UNL     1      34.287 -13.849 -22.949  0.00  0.00    -0.015 C 
ATOM     28  C   UNL     1      33.626 -12.650 -23.215  0.00  0.00    +0.036 C 
ATOM     29  C   UNL     1      34.037 -14.537 -21.761  0.00  0.00    -0.001 C 
ATOM     30  C   UNL     1      32.716 -12.140 -22.289  0.00  0.00    +0.172 C 
ATOM     31  C   UNL     1      32.446 -12.842 -21.113  0.00  0.00    +0.172 C 
ATOM     32  C   UNL     1      33.118 -14.034 -20.841  0.00  0.00    +0.040 C 
ATOM     33  C   UNL     1      31.485 -10.357 -21.456  0.00  0.00    +0.253 C 
ATOM     34  C   UNL     1      30.678 -11.396 -20.705  0.00  0.00    +0.253 C 
ENDBRANCH  24  27
ENDBRANCH   4  24
TORSDOF 9
ENDMDL
MODEL 8
REMARK VINA RESULT:      -9.8     10.204     13.896
REMARK  Name = 52913524
REMARK  9 active torsions:
REMARK  status: ('A' for Active; 'I' for Inactive)
REMARK    1  A    between atoms: C_1  and  C_10
REMARK    2  A    between atoms: C_4  and  C_24
REMARK    3  A    between atoms: C_5  and  C_22
REMARK    4  A    between atoms: C_8  and  O_13
REMARK    5  A    between atoms: C_9  and  O_15
REMARK    6  A    between atoms: C_11  and  O_17
REMARK    7  A    between atoms: C_12  and  C_19
REMARK    8  A    between atoms: C_19  and  O_20
REMARK    9  A    between atoms: C_24  and  C_27
REMARK                            x       y       z     vdW  Elec       q    Type
REMARK                         _______ _______ _______ _____ _____    ______ ____
ROOT
ATOM      1  C   UNL     1      33.375 -13.506 -22.164  0.00  0.00    +0.007 C 
ATOM      2  C   UNL     1      32.534 -12.450 -22.515  0.00  0.00    -0.006 C 
ATOM      3  C   UNL     1      33.472 -13.907 -20.831  0.00  0.00    -0.002 C 
ATOM      4  C   UNL     1      31.790 -11.795 -21.533  0.00  0.00    -0.022 C 
ATOM      5  C   UNL     1      31.887 -12.197 -20.201  0.00  0.00    -0.026 C 
ATOM      6  C   UNL     1      32.727 -13.253 -19.850  0.00  0.00    -0.005 C 
ENDROOT
BRANCH   1  10
ATOM      7  O   UNL     1      33.452 -14.135 -24.458  0.00  0.00    -0.347 OA
ATOM      8  C   UNL     1      34.463 -15.682 -22.859  0.00  0.00    +0.171 C 
ATOM      9  C   UNL     1      35.137 -16.423 -24.017  0.00  0.00    +0.169 C 
ATOM     10  C   UNL     1      34.183 -14.218 -23.231  0.00  0.00    +0.167 C 
ATOM     11  C   UNL     1      34.398 -16.188 -25.333  0.00  0.00    +0.169 C 
ATOM     12  C   UNL     1      34.161 -14.694 -25.564  0.00  0.00    +0.174 C 
BRANCH   8  13
ATOM     13  O   UNL     1      35.327 -15.709 -21.724  0.00  0.00    -0.379 OA
ATOM     14  H   UNL     1      35.640 -14.811 -21.533  0.00  0.00    +0.211 HD
ENDBRANCH   8  13
BRANCH   9  15
ATOM     15  O   UNL     1      35.130 -17.827 -23.751  0.00  0.00    -0.379 OA
ATOM     16  H   UNL     1      35.714 -18.278 -24.381  0.00  0.00    +0.211 HD
ENDBRANCH   9  15
BRANCH  11  17
ATOM     17  O   UNL     1      35.173 -16.712 -26.409  0.00  0.00    -0.379 OA
ATOM     18  H   UNL     1      35.469 -17.609 -26.186  0.00  0.00    +0.211 HD
ENDBRANCH  11  17
BRANCH  12  19
ATOM     19  C   UNL     1      33.326 -14.441 -26.817  0.00  0.00    +0.169 C 
BRANCH  19  20
ATOM     20  O   UNL     1      34.197 -14.079 -27.872  0.00  0.00    -0.379 OA
ATOM     21  H   UNL     1      33.742 -14.194 -28.721  0.00  0.00    +0.211 HD
ENDBRANCH  19  20
ENDBRANCH  12  19
ENDBRANCH   1  10
BRANCH   5  22
ATOM     22  C   UNL     1      31.101 -11.510 -19.133  0.00  0.00    +0.026 C 
ATOM     23  C   UNL     1      31.995 -10.790 -18.128  0.00  0.00    +0.005 C 
ENDBRANCH   5  22
BRANCH   4  24
ATOM     24  C   UNL     1      30.897 -10.667 -21.933  0.00  0.00    +0.052 C 
BRANCH  24  27
ATOM     25  O   UNL     1      31.787  -6.914 -24.918  0.00  0.00    -0.468 OA
ATOM     26  O   UNL     1      33.666  -5.835 -23.016  0.00  0.00    -0.468 OA
ATOM     27  C   UNL     1      31.635  -9.381 -22.243  0.00  0.00    -0.015 C 
ATOM     28  C   UNL     1      31.380  -8.703 -23.435  0.00  0.00    +0.036 C 
ATOM     29  C   UNL     1      32.573  -8.879 -21.340  0.00  0.00    -0.001 C 
ATOM     30  C   UNL     1      32.066  -7.523 -23.722  0.00  0.00    +0.172 C 
ATOM     31  C   UNL     1      32.985  -7.006 -22.806  0.00  0.00    +0.172 C 
ATOM     32  C   UNL     1      33.250  -7.693 -21.621  0.00  0.00    +0.040 C 
ATOM     33  C   UNL     1      32.772  -5.934 -25.260  0.00  0.00    +0.253 C 
ATOM     34  C   UNL     1      33.079  -5.058 -24.062  0.00  0.00    +0.253 C 
ENDBRANCH  24  27
ENDBRANCH   4  24
TORSDOF 9
ENDMDL
MODEL 9
REMARK VINA RESULT:      -9.7     11.629     17.200
REMARK  Name = 52913524
REMARK  9 active torsions:
REMARK  status: ('A' for Active; 'I' for Inactive)
REMARK    1  A    between atoms: C_1  and  C_10
REMARK    2  A    between atoms: C_4  and  C_24
REMARK    3  A    between atoms: C_5  and  C_22
REMARK    4  A    between atoms: C_8  and  O_13
REMARK    5  A    between atoms: C_9  and  O_15
REMARK    6  A    between atoms: C_11  and  O_17
REMARK    7  A    between atoms: C_12  and  C_19
REMARK    8  A    between atoms: C_19  and  O_20
REMARK    9  A    between atoms: C_24  and  C_27
REMARK                            x       y       z     vdW  Elec       q    Type
REMARK                         _______ _______ _______ _____ _____    ______ ____
ROOT
ATOM      1  C   UNL     1      32.017  -7.360 -22.452  0.00  0.00    +0.007 C 
ATOM      2  C   UNL     1      31.567  -8.655 -22.709  0.00  0.00    -0.006 C 
ATOM      3  C   UNL     1      32.659  -7.070 -21.249  0.00  0.00    -0.002 C 
ATOM      4  C   UNL     1      31.757  -9.660 -21.760  0.00  0.00    -0.022 C 
ATOM      5  C   UNL     1      32.399  -9.370 -20.555  0.00  0.00    -0.026 C 
ATOM      6  C   UNL     1      32.850  -8.075 -20.300  0.00  0.00    -0.005 C 
ENDROOT
BRANCH   1  10
ATOM      7  O   UNL     1      33.013  -6.165 -24.254  0.00  0.00    -0.347 OA
ATOM      8  C   UNL     1      31.462  -4.921 -22.833  0.00  0.00    +0.171 C 
ATOM      9  C   UNL     1      31.417  -3.803 -23.878  0.00  0.00    +0.169 C 
ATOM     10  C   UNL     1      31.811  -6.268 -23.484  0.00  0.00    +0.167 C 
ATOM     11  C   UNL     1      32.659  -3.823 -24.768  0.00  0.00    +0.169 C 
ATOM     12  C   UNL     1      32.906  -5.226 -25.325  0.00  0.00    +0.174 C 
BRANCH   8  13
ATOM     13  O   UNL     1      30.181  -5.031 -22.214  0.00  0.00    -0.379 OA
ATOM     14  H   UNL     1      29.745  -5.844 -22.512  0.00  0.00    +0.211 HD
ENDBRANCH   8  13
BRANCH   9  15
ATOM     15  O   UNL     1      31.368  -2.537 -23.217  0.00  0.00    -0.379 OA
ATOM     16  H   UNL     1      30.814  -1.927 -23.729  0.00  0.00    +0.211 HD
ENDBRANCH   9  15
BRANCH  11  17
ATOM     17  O   UNL     1      32.477  -2.914 -25.851  0.00  0.00    -0.379 OA
ATOM     18  H   UNL     1      32.222  -2.045 -25.503  0.00  0.00    +0.211 HD
ENDBRANCH  11  17
BRANCH  12  19
ATOM     19  C   UNL     1      34.202  -5.297 -26.126  0.00  0.00    +0.169 C 
BRANCH  19  20
ATOM     20  O   UNL     1      33.947  -4.830 -27.438  0.00  0.00    -0.379 OA
ATOM     21  H   UNL     1      34.175  -5.523 -28.077  0.00  0.00    +0.211 HD
ENDBRANCH  19  20
ENDBRANCH  12  19
ENDBRANCH   1  10
BRANCH   5  22
ATOM     22  C   UNL     1      32.614 -10.429 -19.525  0.00  0.00    +0.026 C 
ATOM     23  C   UNL     1      31.319 -10.823 -18.822  0.00  0.00    +0.005 C 
ENDBRANCH   5  22
BRANCH   4  24
ATOM     24  C   UNL     1      31.266 -11.039 -22.056  0.00  0.00    +0.052 C 
BRANCH  24  27
ATOM     25  O   UNL     1      33.774 -15.147 -21.267  0.00  0.00    -0.468 OA
ATOM     26  O   UNL     1      35.352 -14.646 -23.627  0.00  0.00    -0.468 OA
ATOM     27  C   UNL     1      32.360 -12.008 -22.455  0.00  0.00    -0.015 C 
ATOM     28  C   UNL     1      32.580 -13.158 -21.697  0.00  0.00    +0.036 C 
ATOM     29  C   UNL     1      33.149 -11.746 -23.575  0.00  0.00    -0.001 C 
ATOM     30  C   UNL     1      33.593 -14.045 -22.062  0.00  0.00    +0.172 C 
ATOM     31  C   UNL     1      34.365 -13.797 -23.199  0.00  0.00    +0.172 C 
ATOM     32  C   UNL     1      34.153 -12.639 -23.948  0.00  0.00    +0.040 C 
ATOM     33  C   UNL     1      35.029 -15.786 -21.519  0.00  0.00    +0.253 C 
ATOM     34  C   UNL     1      35.252 -15.933 -23.011  0.00  0.00    +0.253 C 
ENDBRANCH  24  27
ENDBRANCH   4  24
TORSDOF 9
ENDMDL
