MODEL 1
REMARK VINA RESULT:     -11.5      0.000      0.000
REMARK  Name = 15984937
REMARK  6 active torsions:
REMARK  status: ('A' for Active; 'I' for Inactive)
REMARK    1  A    between atoms: C_1  and  C_9
REMARK    2  A    between atoms: C_1  and  C_20
REMARK    3  A    between atoms: C_4  and  N_10
REMARK    4  A    between atoms: N_10  and  C_13
REMARK    5  A    between atoms: C_19  and  C_25
REMARK    6  A    between atoms: C_25  and  N_26
REMARK                            x       y       z     vdW  Elec       q    Type
REMARK                         _______ _______ _______ _____ _____    ______ ____
ROOT
ATOM      1  C   UNL     1      31.228 -11.863 -21.260  0.00  0.00    +0.112 C 
ENDROOT
BRANCH   1   9
ATOM      2  O   UNL     1      31.787 -10.754 -19.242  0.00  0.00    -0.275 OA
ATOM      3  N   UNL     1      32.282  -9.629 -21.214  0.00  0.00    -0.279 N 
ATOM      4  C   UNL     1      32.111  -7.009 -22.467  0.00  0.00    +0.072 C 
ATOM      5  C   UNL     1      31.580  -8.274 -23.149  0.00  0.00    +0.041 C 
ATOM      6  C   UNL     1      32.177  -7.180 -20.945  0.00  0.00    +0.041 C 
ATOM      7  C   UNL     1      32.297  -9.540 -22.678  0.00  0.00    +0.095 C 
ATOM      8  C   UNL     1      32.866  -8.478 -20.525  0.00  0.00    +0.095 C 
ATOM      9  C   UNL     1      31.789 -10.705 -20.475  0.00  0.00    +0.230 C 
BRANCH   4  10
ATOM     10  N   UNL     1      33.419  -6.674 -22.995  0.00  0.00    -0.334 N 
ATOM     11  H   UNL     1      34.213  -7.030 -22.533  0.00  0.00    +0.147 HD
BRANCH  10  13
ATOM     12  F   UNL     1      35.999  -5.459 -26.853  0.00  0.00    -0.204 F 
ATOM     13  C   UNL     1      33.613  -5.880 -24.110  0.00  0.00    +0.047 C 
ATOM     14  C   UNL     1      34.732  -6.066 -24.946  0.00  0.00    +0.044 C 
ATOM     15  C   UNL     1      32.699  -4.862 -24.444  0.00  0.00    +0.014 C 
ATOM     16  C   UNL     1      34.928  -5.264 -26.070  0.00  0.00    +0.141 C 
ATOM     17  C   UNL     1      32.895  -4.060 -25.568  0.00  0.00    +0.004 C 
ATOM     18  C   UNL     1      34.011  -4.262 -26.381  0.00  0.00    +0.030 C 
ENDBRANCH  10  13
ENDBRANCH   4  10
ENDBRANCH   1   9
BRANCH   1  20
ATOM     19  C   UNL     1      34.341 -14.586 -22.365  0.00  0.00    -0.043 C 
ATOM     20  C   UNL     1      32.316 -12.814 -21.646  0.00  0.00    -0.013 C 
ATOM     21  C   UNL     1      33.940 -14.488 -21.033  0.00  0.00    -0.007 C 
ATOM     22  C   UNL     1      33.727 -13.796 -23.337  0.00  0.00    -0.007 C 
ATOM     23  C   UNL     1      32.926 -13.601 -20.672  0.00  0.00    -0.004 C 
ATOM     24  C   UNL     1      32.713 -12.908 -22.977  0.00  0.00    -0.004 C 
BRANCH  19  25
ATOM     25  C   UNL     1      35.425 -15.533 -22.750  0.00  0.00    -0.050 C 
BRANCH  25  26
ATOM     26  N   UNL     1      34.945 -16.909 -22.876  0.00  0.00    +0.387 N 
ATOM     27  N   UNL     1      35.305 -19.729 -23.382  0.00  0.00    +0.382 N 
ATOM     28  C   UNL     1      35.088 -19.227 -22.021  0.00  0.00    -0.083 C 
ATOM     29  C   UNL     1      35.597 -17.781 -21.890  0.00  0.00    -0.099 C 
ATOM     30  C   UNL     1      35.167 -17.415 -24.235  0.00  0.00    -0.101 C 
ATOM     31  C   UNL     1      34.669 -18.855 -24.367  0.00  0.00    -0.105 C 
ATOM     32  C   UNL     1      35.808 -20.142 -21.032  0.00  0.00    -0.026 C 
ATOM     33  H   UNL     1      33.941 -16.910 -22.693  0.00  0.00    -0.079 HD
ATOM     34  H   UNL     1      34.909 -20.666 -23.461  0.00  0.00    -0.085 HD
ATOM     35  H   UNL     1      36.308 -19.751 -23.567  0.00  0.00    -0.085 HD
ENDBRANCH  25  26
ENDBRANCH  19  25
ENDBRANCH   1  20
TORSDOF 6
ENDMDL
MODEL 2
REMARK VINA RESULT:     -11.3      4.572      8.435
REMARK  Name = 15984937
REMARK  6 active torsions:
REMARK  status: ('A' for Active; 'I' for Inactive)
REMARK    1  A    between atoms: C_1  and  C_9
REMARK    2  A    between atoms: C_1  and  C_20
REMARK    3  A    between atoms: C_4  and  N_10
REMARK    4  A    between atoms: N_10  and  C_13
REMARK    5  A    between atoms: C_19  and  C_25
REMARK    6  A    between atoms: C_25  and  N_26
REMARK                            x       y       z     vdW  Elec       q    Type
REMARK                         _______ _______ _______ _____ _____    ______ ____
ROOT
ATOM      1  C   UNL     1      36.765 -18.642 -21.495  0.00  0.00    +0.112 C 
ENDROOT
BRANCH   1   9
ATOM      2  O   UNL     1      36.400 -18.867 -23.825  0.00  0.00    -0.275 OA
ATOM      3  N   UNL     1      35.313 -17.104 -22.772  0.00  0.00    -0.279 N 
ATOM      4  C   UNL     1      34.705 -14.275 -23.070  0.00  0.00    +0.072 C 
ATOM      5  C   UNL     1      35.336 -14.842 -21.794  0.00  0.00    +0.041 C 
ATOM      6  C   UNL     1      34.973 -15.180 -24.277  0.00  0.00    +0.041 C 
ATOM      7  C   UNL     1      34.994 -16.317 -21.576  0.00  0.00    +0.095 C 
ATOM      8  C   UNL     1      34.655 -16.649 -23.997  0.00  0.00    +0.095 C 
ATOM      9  C   UNL     1      36.146 -18.222 -22.804  0.00  0.00    +0.230 C 
BRANCH   4  10
ATOM     10  N   UNL     1      33.279 -14.096 -22.879  0.00  0.00    -0.334 N 
ATOM     11  H   UNL     1      32.665 -14.668 -23.395  0.00  0.00    +0.147 HD
BRANCH  10  13
ATOM     12  F   UNL     1      31.525  -9.710 -22.040  0.00  0.00    -0.204 F 
ATOM     13  C   UNL     1      32.734 -13.164 -22.015  0.00  0.00    +0.047 C 
ATOM     14  C   UNL     1      32.392 -11.873 -22.464  0.00  0.00    +0.044 C 
ATOM     15  C   UNL     1      32.505 -13.477 -20.661  0.00  0.00    +0.014 C 
ATOM     16  C   UNL     1      31.844 -10.932 -21.592  0.00  0.00    +0.141 C 
ATOM     17  C   UNL     1      31.957 -12.537 -19.789  0.00  0.00    +0.004 C 
ATOM     18  C   UNL     1      31.626 -11.264 -20.255  0.00  0.00    +0.030 C 
ENDBRANCH  10  13
ENDBRANCH   4  10
ENDBRANCH   1   9
BRANCH   1  20
ATOM     19  C   UNL     1      34.546 -21.858 -19.745  0.00  0.00    -0.043 C 
ATOM     20  C   UNL     1      35.990 -19.766 -20.883  0.00  0.00    -0.013 C 
ATOM     21  C   UNL     1      33.884 -20.866 -20.468  0.00  0.00    -0.007 C 
ATOM     22  C   UNL     1      35.931 -21.801 -19.592  0.00  0.00    -0.007 C 
ATOM     23  C   UNL     1      34.606 -19.818 -21.039  0.00  0.00    -0.004 C 
ATOM     24  C   UNL     1      36.655 -20.753 -20.162  0.00  0.00    -0.004 C 
BRANCH  19  25
ATOM     25  C   UNL     1      33.774 -22.977 -19.135  0.00  0.00    -0.050 C 
BRANCH  25  26
ATOM     26  N   UNL     1      33.558 -22.788 -17.701  0.00  0.00    +0.387 N 
ATOM     27  N   UNL     1      32.829 -23.705 -15.060  0.00  0.00    +0.382 N 
ATOM     28  C   UNL     1      34.230 -23.448 -15.412  0.00  0.00    -0.083 C 
ATOM     29  C   UNL     1      34.456 -23.650 -16.920  0.00  0.00    -0.099 C 
ATOM     30  C   UNL     1      32.158 -23.051 -17.346  0.00  0.00    -0.101 C 
ATOM     31  C   UNL     1      31.932 -22.859 -15.846  0.00  0.00    -0.105 C 
ATOM     32  C   UNL     1      35.126 -24.384 -14.604  0.00  0.00    -0.026 C 
ATOM     33  H   UNL     1      33.769 -21.816 -17.475  0.00  0.00    -0.079 HD
ATOM     34  H   UNL     1      32.691 -23.509 -14.069  0.00  0.00    -0.085 HD
ATOM     35  H   UNL     1      32.615 -24.682 -15.263  0.00  0.00    -0.085 HD
ENDBRANCH  25  26
ENDBRANCH  19  25
ENDBRANCH   1  20
TORSDOF 6
ENDMDL
MODEL 3
REMARK VINA RESULT:     -10.9      6.180     11.039
REMARK  Name = 15984937
REMARK  6 active torsions:
REMARK  status: ('A' for Active; 'I' for Inactive)
REMARK    1  A    between atoms: C_1  and  C_9
REMARK    2  A    between atoms: C_1  and  C_20
REMARK    3  A    between atoms: C_4  and  N_10
REMARK    4  A    between atoms: N_10  and  C_13
REMARK    5  A    between atoms: C_19  and  C_25
REMARK    6  A    between atoms: C_25  and  N_26
REMARK                            x       y       z     vdW  Elec       q    Type
REMARK                         _______ _______ _______ _____ _____    ______ ____
ROOT
ATOM      1  C   UNL     1      36.592 -21.464 -19.762  0.00  0.00    +0.112 C 
ENDROOT
BRANCH   1   9
ATOM      2  O   UNL     1      34.314 -21.533 -20.410  0.00  0.00    -0.275 OA
ATOM      3  N   UNL     1      35.575 -19.767 -21.242  0.00  0.00    -0.279 N 
ATOM      4  C   UNL     1      36.101 -18.269 -23.679  0.00  0.00    +0.072 C 
ATOM      5  C   UNL     1      37.229 -18.869 -22.834  0.00  0.00    +0.041 C 
ATOM      6  C   UNL     1      34.775 -19.001 -23.445  0.00  0.00    +0.041 C 
ATOM      7  C   UNL     1      36.838 -19.030 -21.364  0.00  0.00    +0.095 C 
ATOM      8  C   UNL     1      34.448 -19.172 -21.962  0.00  0.00    +0.095 C 
ATOM      9  C   UNL     1      35.388 -20.931 -20.496  0.00  0.00    +0.230 C 
BRANCH   4  10
ATOM     10  N   UNL     1      35.958 -16.857 -23.382  0.00  0.00    -0.334 N 
ATOM     11  H   UNL     1      36.457 -16.489 -22.617  0.00  0.00    +0.147 HD
BRANCH  10  13
ATOM     12  F   UNL     1      33.534 -12.736 -23.781  0.00  0.00    -0.204 F 
ATOM     13  C   UNL     1      35.156 -16.000 -24.113  0.00  0.00    +0.047 C 
ATOM     14  C   UNL     1      34.733 -14.768 -23.575  0.00  0.00    +0.044 C 
ATOM     15  C   UNL     1      34.737 -16.331 -25.417  0.00  0.00    +0.014 C 
ATOM     16  C   UNL     1      33.924 -13.903 -24.312  0.00  0.00    +0.141 C 
ATOM     17  C   UNL     1      33.928 -15.467 -26.153  0.00  0.00    +0.004 C 
ATOM     18  C   UNL     1      33.521 -14.253 -25.600  0.00  0.00    +0.030 C 
ENDBRANCH  10  13
ENDBRANCH   4  10
ENDBRANCH   1   9
BRANCH   1  20
ATOM     19  C   UNL     1      35.466 -22.986 -15.923  0.00  0.00    -0.043 C 
ATOM     20  C   UNL     1      36.199 -21.995 -18.420  0.00  0.00    -0.013 C 
ATOM     21  C   UNL     1      34.592 -23.104 -17.003  0.00  0.00    -0.007 C 
ATOM     22  C   UNL     1      36.707 -22.373 -16.094  0.00  0.00    -0.007 C 
ATOM     23  C   UNL     1      34.958 -22.608 -18.255  0.00  0.00    -0.004 C 
ATOM     24  C   UNL     1      37.074 -21.876 -17.344  0.00  0.00    -0.004 C 
BRANCH  19  25
ATOM     25  C   UNL     1      35.074 -23.515 -14.586  0.00  0.00    -0.050 C 
BRANCH  25  26
ATOM     26  N   UNL     1      36.197 -23.555 -13.651  0.00  0.00    +0.387 N 
ATOM     27  N   UNL     1      37.876 -24.852 -11.691  0.00  0.00    +0.382 N 
ATOM     28  C   UNL     1      38.350 -24.624 -13.060  0.00  0.00    -0.083 C 
ATOM     29  C   UNL     1      37.167 -24.586 -14.043  0.00  0.00    -0.099 C 
ATOM     30  C   UNL     1      35.726 -23.789 -12.280  0.00  0.00    -0.101 C 
ATOM     31  C   UNL     1      36.900 -23.835 -11.302  0.00  0.00    -0.105 C 
ATOM     32  C   UNL     1      39.329 -25.734 -13.440  0.00  0.00    -0.026 C 
ATOM     33  H   UNL     1      36.663 -22.648 -13.679  0.00  0.00    -0.079 HD
ATOM     34  H   UNL     1      38.670 -24.816 -11.052  0.00  0.00    -0.085 HD
ATOM     35  H   UNL     1      37.427 -25.767 -11.648  0.00  0.00    -0.085 HD
ENDBRANCH  25  26
ENDBRANCH  19  25
ENDBRANCH   1  20
TORSDOF 6
ENDMDL
MODEL 4
REMARK VINA RESULT:     -10.8      6.216     11.046
REMARK  Name = 15984937
REMARK  6 active torsions:
REMARK  status: ('A' for Active; 'I' for Inactive)
REMARK    1  A    between atoms: C_1  and  C_9
REMARK    2  A    between atoms: C_1  and  C_20
REMARK    3  A    between atoms: C_4  and  N_10
REMARK    4  A    between atoms: N_10  and  C_13
REMARK    5  A    between atoms: C_19  and  C_25
REMARK    6  A    between atoms: C_25  and  N_26
REMARK                            x       y       z     vdW  Elec       q    Type
REMARK                         _______ _______ _______ _____ _____    ______ ____
ROOT
ATOM      1  C   UNL     1      36.557 -21.549 -19.784  0.00  0.00    +0.112 C 
ENDROOT
BRANCH   1   9
ATOM      2  O   UNL     1      34.261 -21.445 -20.359  0.00  0.00    -0.275 OA
ATOM      3  N   UNL     1      35.615 -19.752 -21.195  0.00  0.00    -0.279 N 
ATOM      4  C   UNL     1      36.168 -18.240 -23.617  0.00  0.00    +0.072 C 
ATOM      5  C   UNL     1      37.277 -18.935 -22.821  0.00  0.00    +0.041 C 
ATOM      6  C   UNL     1      34.802 -18.883 -23.355  0.00  0.00    +0.041 C 
ATOM      7  C   UNL     1      36.922 -19.102 -21.342  0.00  0.00    +0.095 C 
ATOM      8  C   UNL     1      34.511 -19.066 -21.865  0.00  0.00    +0.095 C 
ATOM      9  C   UNL     1      35.371 -20.917 -20.467  0.00  0.00    +0.230 C 
BRANCH   4  10
ATOM     10  N   UNL     1      36.133 -16.828 -23.286  0.00  0.00    -0.334 N 
ATOM     11  H   UNL     1      36.783 -16.487 -22.629  0.00  0.00    +0.147 HD
BRANCH  10  13
ATOM     12  F   UNL     1      33.677 -15.193 -27.069  0.00  0.00    -0.204 F 
ATOM     13  C   UNL     1      35.236 -15.935 -23.842  0.00  0.00    +0.047 C 
ATOM     14  C   UNL     1      34.894 -16.007 -25.208  0.00  0.00    +0.044 C 
ATOM     15  C   UNL     1      34.639 -14.926 -23.062  0.00  0.00    +0.014 C 
ATOM     16  C   UNL     1      33.990 -15.105 -25.769  0.00  0.00    +0.141 C 
ATOM     17  C   UNL     1      33.735 -14.024 -23.624  0.00  0.00    +0.004 C 
ATOM     18  C   UNL     1      33.411 -14.114 -24.978  0.00  0.00    +0.030 C 
ENDBRANCH  10  13
ENDBRANCH   4  10
ENDBRANCH   1   9
BRANCH   1  20
ATOM     19  C   UNL     1      35.474 -22.973 -15.895  0.00  0.00    -0.043 C 
ATOM     20  C   UNL     1      36.179 -22.047 -18.425  0.00  0.00    -0.013 C 
ATOM     21  C   UNL     1      36.701 -22.337 -16.088  0.00  0.00    -0.007 C 
ATOM     22  C   UNL     1      34.601 -23.144 -16.968  0.00  0.00    -0.007 C 
ATOM     23  C   UNL     1      37.054 -21.873 -17.355  0.00  0.00    -0.004 C 
ATOM     24  C   UNL     1      34.954 -22.682 -18.236  0.00  0.00    -0.004 C 
BRANCH  19  25
ATOM     25  C   UNL     1      35.098 -23.469 -14.540  0.00  0.00    -0.050 C 
BRANCH  25  26
ATOM     26  N   UNL     1      36.240 -23.522 -13.629  0.00  0.00    +0.387 N 
ATOM     27  N   UNL     1      37.940 -24.837 -11.699  0.00  0.00    +0.382 N 
ATOM     28  C   UNL     1      38.388 -24.622 -13.079  0.00  0.00    -0.083 C 
ATOM     29  C   UNL     1      37.185 -24.570 -14.037  0.00  0.00    -0.099 C 
ATOM     30  C   UNL     1      35.794 -23.743 -12.248  0.00  0.00    -0.101 C 
ATOM     31  C   UNL     1      36.988 -23.803 -11.294  0.00  0.00    -0.105 C 
ATOM     32  C   UNL     1      39.342 -25.748 -13.474  0.00  0.00    -0.026 C 
ATOM     33  H   UNL     1      36.719 -22.622 -13.671  0.00  0.00    -0.079 HD
ATOM     34  H   UNL     1      38.747 -24.810 -11.077  0.00  0.00    -0.085 HD
ATOM     35  H   UNL     1      37.478 -25.745 -11.643  0.00  0.00    -0.085 HD
ENDBRANCH  25  26
ENDBRANCH  19  25
ENDBRANCH   1  20
TORSDOF 6
ENDMDL
MODEL 5
REMARK VINA RESULT:     -10.5      7.384     14.717
REMARK  Name = 15984937
REMARK  6 active torsions:
REMARK  status: ('A' for Active; 'I' for Inactive)
REMARK    1  A    between atoms: C_1  and  C_9
REMARK    2  A    between atoms: C_1  and  C_20
REMARK    3  A    between atoms: C_4  and  N_10
REMARK    4  A    between atoms: N_10  and  C_13
REMARK    5  A    between atoms: C_19  and  C_25
REMARK    6  A    between atoms: C_25  and  N_26
REMARK                            x       y       z     vdW  Elec       q    Type
REMARK                         _______ _______ _______ _____ _____    ______ ____
ROOT
ATOM      1  C   UNL     1      36.252 -20.965 -19.551  0.00  0.00    +0.112 C 
ENDROOT
BRANCH   1   9
ATOM      2  O   UNL     1      34.054 -21.688 -20.059  0.00  0.00    -0.275 OA
ATOM      3  N   UNL     1      35.037 -22.612 -18.168  0.00  0.00    -0.279 N 
ATOM      4  C   UNL     1      34.489 -23.283 -15.391  0.00  0.00    +0.072 C 
ATOM      5  C   UNL     1      35.712 -22.456 -15.802  0.00  0.00    +0.041 C 
ATOM      6  C   UNL     1      33.377 -23.199 -16.441  0.00  0.00    +0.041 C 
ATOM      7  C   UNL     1      36.161 -22.746 -17.235  0.00  0.00    +0.095 C 
ATOM      8  C   UNL     1      33.883 -23.457 -17.861  0.00  0.00    +0.095 C 
ATOM      9  C   UNL     1      35.014 -21.784 -19.290  0.00  0.00    +0.230 C 
BRANCH   4  10
ATOM     10  N   UNL     1      34.877 -24.663 -15.174  0.00  0.00    -0.334 N 
ATOM     11  H   UNL     1      34.340 -25.370 -15.602  0.00  0.00    +0.147 HD
BRANCH  10  13
ATOM     12  F   UNL     1      39.249 -26.597 -14.770  0.00  0.00    -0.204 F 
ATOM     13  C   UNL     1      35.957 -25.042 -14.398  0.00  0.00    +0.047 C 
ATOM     14  C   UNL     1      37.091 -25.644 -14.980  0.00  0.00    +0.044 C 
ATOM     15  C   UNL     1      35.956 -24.838 -13.005  0.00  0.00    +0.014 C 
ATOM     16  C   UNL     1      38.180 -26.027 -14.197  0.00  0.00    +0.141 C 
ATOM     17  C   UNL     1      37.045 -25.221 -12.222  0.00  0.00    +0.004 C 
ATOM     18  C   UNL     1      38.157 -25.816 -12.819  0.00  0.00    +0.030 C 
ENDBRANCH  10  13
ENDBRANCH   4  10
ENDBRANCH   1   9
BRANCH   1  20
ATOM     19  C   UNL     1      35.827 -18.701 -23.160  0.00  0.00    -0.043 C 
ATOM     20  C   UNL     1      36.104 -20.174 -20.813  0.00  0.00    -0.013 C 
ATOM     21  C   UNL     1      34.754 -19.449 -22.675  0.00  0.00    -0.007 C 
ATOM     22  C   UNL     1      37.038 -18.691 -22.469  0.00  0.00    -0.007 C 
ATOM     23  C   UNL     1      34.892 -20.187 -21.500  0.00  0.00    -0.004 C 
ATOM     24  C   UNL     1      37.178 -19.429 -21.293  0.00  0.00    -0.004 C 
BRANCH  19  25
ATOM     25  C   UNL     1      35.680 -17.914 -24.417  0.00  0.00    -0.050 C 
BRANCH  25  26
ATOM     26  N   UNL     1      34.780 -16.772 -24.257  0.00  0.00    +0.387 N 
ATOM     27  N   UNL     1      34.139 -13.958 -24.376  0.00  0.00    +0.382 N 
ATOM     28  C   UNL     1      33.612 -14.897 -25.372  0.00  0.00    -0.083 C 
ATOM     29  C   UNL     1      34.561 -16.096 -25.542  0.00  0.00    -0.099 C 
ATOM     30  C   UNL     1      35.309 -15.828 -23.264  0.00  0.00    -0.101 C 
ATOM     31  C   UNL     1      34.372 -14.632 -23.099  0.00  0.00    -0.105 C 
ATOM     32  C   UNL     1      33.429 -14.163 -26.700  0.00  0.00    -0.026 C 
ATOM     33  H   UNL     1      33.883 -17.122 -23.920  0.00  0.00    -0.079 HD
ATOM     34  H   UNL     1      33.468 -13.203 -24.238  0.00  0.00    -0.085 HD
ATOM     35  H   UNL     1      35.027 -13.587 -24.714  0.00  0.00    -0.085 HD
ENDBRANCH  25  26
ENDBRANCH  19  25
ENDBRANCH   1  20
TORSDOF 6
ENDMDL
MODEL 6
REMARK VINA RESULT:     -10.5      6.884     14.206
REMARK  Name = 15984937
REMARK  6 active torsions:
REMARK  status: ('A' for Active; 'I' for Inactive)
REMARK    1  A    between atoms: C_1  and  C_9
REMARK    2  A    between atoms: C_1  and  C_20
REMARK    3  A    between atoms: C_4  and  N_10
REMARK    4  A    between atoms: N_10  and  C_13
REMARK    5  A    between atoms: C_19  and  C_25
REMARK    6  A    between atoms: C_25  and  N_26
REMARK                            x       y       z     vdW  Elec       q    Type
REMARK                         _______ _______ _______ _____ _____    ______ ____
ROOT
ATOM      1  C   UNL     1      35.747 -22.069 -19.704  0.00  0.00    +0.112 C 
ENDROOT
BRANCH   1   9
ATOM      2  O   UNL     1      37.392 -21.321 -18.171  0.00  0.00    -0.275 OA
ATOM      3  N   UNL     1      35.514 -22.341 -17.259  0.00  0.00    -0.279 N 
ATOM      4  C   UNL     1      34.704 -24.290 -15.256  0.00  0.00    +0.072 C 
ATOM      5  C   UNL     1      34.222 -24.367 -16.709  0.00  0.00    +0.041 C 
ATOM      6  C   UNL     1      36.015 -23.503 -15.142  0.00  0.00    +0.041 C 
ATOM      7  C   UNL     1      34.211 -23.001 -17.397  0.00  0.00    +0.095 C 
ATOM      8  C   UNL     1      35.967 -22.165 -15.879  0.00  0.00    +0.095 C 
ATOM      9  C   UNL     1      36.297 -21.873 -18.314  0.00  0.00    +0.230 C 
BRANCH   4  10
ATOM     10  N   UNL     1      33.679 -23.686 -14.427  0.00  0.00    -0.334 N 
ATOM     11  H   UNL     1      33.961 -23.061 -13.720  0.00  0.00    +0.147 HD
BRANCH  10  13
ATOM     12  F   UNL     1      29.244 -22.207 -15.504  0.00  0.00    -0.204 F 
ATOM     13  C   UNL     1      32.328 -23.943 -14.572  0.00  0.00    +0.047 C 
ATOM     14  C   UNL     1      31.437 -22.928 -14.974  0.00  0.00    +0.044 C 
ATOM     15  C   UNL     1      31.802 -25.226 -14.323  0.00  0.00    +0.014 C 
ATOM     16  C   UNL     1      30.074 -23.186 -15.119  0.00  0.00    +0.141 C 
ATOM     17  C   UNL     1      30.439 -25.484 -14.468  0.00  0.00    +0.004 C 
ATOM     18  C   UNL     1      29.576 -24.463 -14.867  0.00  0.00    +0.030 C 
ENDBRANCH  10  13
ENDBRANCH   4  10
ENDBRANCH   1   9
BRANCH   1  20
ATOM     19  C   UNL     1      36.019 -18.441 -21.959  0.00  0.00    -0.043 C 
ATOM     20  C   UNL     1      35.842 -20.802 -20.492  0.00  0.00    -0.013 C 
ATOM     21  C   UNL     1      34.790 -19.088 -21.824  0.00  0.00    -0.007 C 
ATOM     22  C   UNL     1      37.158 -18.977 -21.360  0.00  0.00    -0.007 C 
ATOM     23  C   UNL     1      34.701 -20.270 -21.089  0.00  0.00    -0.004 C 
ATOM     24  C   UNL     1      37.070 -20.160 -20.625  0.00  0.00    -0.004 C 
BRANCH  19  25
ATOM     25  C   UNL     1      36.114 -17.178 -22.745  0.00  0.00    -0.050 C 
BRANCH  25  26
ATOM     26  N   UNL     1      34.994 -16.275 -22.485  0.00  0.00    +0.387 N 
ATOM     27  N   UNL     1      33.857 -13.710 -21.798  0.00  0.00    +0.382 N 
ATOM     28  C   UNL     1      33.805 -14.216 -23.174  0.00  0.00    -0.083 C 
ATOM     29  C   UNL     1      34.985 -15.164 -23.447  0.00  0.00    -0.099 C 
ATOM     30  C   UNL     1      35.048 -15.762 -21.110  0.00  0.00    -0.101 C 
ATOM     31  C   UNL     1      33.880 -14.813 -20.838  0.00  0.00    -0.105 C 
ATOM     32  C   UNL     1      33.830 -13.034 -24.141  0.00  0.00    -0.026 C 
ATOM     33  H   UNL     1      34.129 -16.804 -22.597  0.00  0.00    -0.079 HD
ATOM     34  H   UNL     1      33.036 -13.132 -21.623  0.00  0.00    -0.085 HD
ATOM     35  H   UNL     1      34.709 -13.161 -21.683  0.00  0.00    -0.085 HD
ENDBRANCH  25  26
ENDBRANCH  19  25
ENDBRANCH   1  20
TORSDOF 6
ENDMDL
MODEL 7
REMARK VINA RESULT:     -10.5      7.400     14.752
REMARK  Name = 15984937
REMARK  6 active torsions:
REMARK  status: ('A' for Active; 'I' for Inactive)
REMARK    1  A    between atoms: C_1  and  C_9
REMARK    2  A    between atoms: C_1  and  C_20
REMARK    3  A    between atoms: C_4  and  N_10
REMARK    4  A    between atoms: N_10  and  C_13
REMARK    5  A    between atoms: C_19  and  C_25
REMARK    6  A    between atoms: C_25  and  N_26
REMARK                            x       y       z     vdW  Elec       q    Type
REMARK                         _______ _______ _______ _____ _____    ______ ____
ROOT
ATOM      1  C   UNL     1      36.187 -20.977 -19.602  0.00  0.00    +0.112 C 
ENDROOT
BRANCH   1   9
ATOM      2  O   UNL     1      34.013 -21.724 -20.175  0.00  0.00    -0.275 OA
ATOM      3  N   UNL     1      34.932 -22.605 -18.231  0.00  0.00    -0.279 N 
ATOM      4  C   UNL     1      34.287 -23.226 -15.464  0.00  0.00    +0.072 C 
ATOM      5  C   UNL     1      35.519 -22.399 -15.847  0.00  0.00    +0.041 C 
ATOM      6  C   UNL     1      33.213 -23.170 -16.555  0.00  0.00    +0.041 C 
ATOM      7  C   UNL     1      36.022 -22.714 -17.256  0.00  0.00    +0.095 C 
ATOM      8  C   UNL     1      33.772 -23.452 -17.950  0.00  0.00    +0.095 C 
ATOM      9  C   UNL     1      34.945 -21.799 -19.370  0.00  0.00    +0.230 C 
BRANCH   4  10
ATOM     10  N   UNL     1      34.674 -24.599 -15.207  0.00  0.00    -0.334 N 
ATOM     11  H   UNL     1      34.255 -25.310 -15.745  0.00  0.00    +0.147 HD
BRANCH  10  13
ATOM     12  F   UNL     1      36.197 -24.569 -10.657  0.00  0.00    -0.204 F 
ATOM     13  C   UNL     1      35.599 -24.966 -14.246  0.00  0.00    +0.047 C 
ATOM     14  C   UNL     1      35.437 -24.579 -12.900  0.00  0.00    +0.044 C 
ATOM     15  C   UNL     1      36.729 -25.736 -14.582  0.00  0.00    +0.014 C 
ATOM     16  C   UNL     1      36.370 -24.947 -11.931  0.00  0.00    +0.141 C 
ATOM     17  C   UNL     1      37.662 -26.105 -13.613  0.00  0.00    +0.004 C 
ATOM     18  C   UNL     1      37.482 -25.710 -12.287  0.00  0.00    +0.030 C 
ENDBRANCH  10  13
ENDBRANCH   4  10
ENDBRANCH   1   9
BRANCH   1  20
ATOM     19  C   UNL     1      35.808 -18.649 -23.175  0.00  0.00    -0.043 C 
ATOM     20  C   UNL     1      36.054 -20.163 -20.851  0.00  0.00    -0.013 C 
ATOM     21  C   UNL     1      37.010 -18.650 -22.467  0.00  0.00    -0.007 C 
ATOM     22  C   UNL     1      34.730 -19.407 -22.718  0.00  0.00    -0.007 C 
ATOM     23  C   UNL     1      37.134 -19.409 -21.303  0.00  0.00    -0.004 C 
ATOM     24  C   UNL     1      34.853 -20.165 -21.554  0.00  0.00    -0.004 C 
BRANCH  19  25
ATOM     25  C   UNL     1      35.676 -17.838 -24.418  0.00  0.00    -0.050 C 
BRANCH  25  26
ATOM     26  N   UNL     1      34.767 -16.705 -24.250  0.00  0.00    +0.387 N 
ATOM     27  N   UNL     1      34.106 -13.894 -24.344  0.00  0.00    +0.382 N 
ATOM     28  C   UNL     1      33.589 -14.827 -25.352  0.00  0.00    -0.083 C 
ATOM     29  C   UNL     1      34.547 -16.017 -25.530  0.00  0.00    -0.099 C 
ATOM     30  C   UNL     1      35.286 -15.767 -23.247  0.00  0.00    -0.101 C 
ATOM     31  C   UNL     1      34.339 -14.579 -23.073  0.00  0.00    -0.105 C 
ATOM     32  C   UNL     1      33.405 -14.082 -26.673  0.00  0.00    -0.026 C 
ATOM     33  H   UNL     1      33.872 -17.064 -23.920  0.00  0.00    -0.079 HD
ATOM     34  H   UNL     1      33.428 -13.146 -24.202  0.00  0.00    -0.085 HD
ATOM     35  H   UNL     1      34.992 -13.513 -24.676  0.00  0.00    -0.085 HD
ENDBRANCH  25  26
ENDBRANCH  19  25
ENDBRANCH   1  20
TORSDOF 6
ENDMDL
MODEL 8
REMARK VINA RESULT:     -10.2      6.213     10.748
REMARK  Name = 15984937
REMARK  6 active torsions:
REMARK  status: ('A' for Active; 'I' for Inactive)
REMARK    1  A    between atoms: C_1  and  C_9
REMARK    2  A    between atoms: C_1  and  C_20
REMARK    3  A    between atoms: C_4  and  N_10
REMARK    4  A    between atoms: N_10  and  C_13
REMARK    5  A    between atoms: C_19  and  C_25
REMARK    6  A    between atoms: C_25  and  N_26
REMARK                            x       y       z     vdW  Elec       q    Type
REMARK                         _______ _______ _______ _____ _____    ______ ____
ROOT
ATOM      1  C   UNL     1      36.478 -21.476 -19.798  0.00  0.00    +0.112 C 
ENDROOT
BRANCH   1   9
ATOM      2  O   UNL     1      34.222 -21.434 -20.523  0.00  0.00    -0.275 OA
ATOM      3  N   UNL     1      35.580 -19.699 -21.263  0.00  0.00    -0.279 N 
ATOM      4  C   UNL     1      36.248 -18.160 -23.638  0.00  0.00    +0.072 C 
ATOM      5  C   UNL     1      37.322 -18.827 -22.773  0.00  0.00    +0.041 C 
ATOM      6  C   UNL     1      34.887 -18.843 -23.469  0.00  0.00    +0.041 C 
ATOM      7  C   UNL     1      36.875 -19.012 -21.322  0.00  0.00    +0.095 C 
ATOM      8  C   UNL     1      34.503 -19.041 -22.003  0.00  0.00    +0.095 C 
ATOM      9  C   UNL     1      35.322 -20.874 -20.556  0.00  0.00    +0.230 C 
BRANCH   4  10
ATOM     10  N   UNL     1      36.151 -16.752 -23.307  0.00  0.00    -0.334 N 
ATOM     11  H   UNL     1      36.765 -16.390 -22.626  0.00  0.00    +0.147 HD
BRANCH  10  13
ATOM     12  F   UNL     1      33.625 -15.317 -27.125  0.00  0.00    -0.204 F 
ATOM     13  C   UNL     1      35.242 -15.890 -23.892  0.00  0.00    +0.047 C 
ATOM     14  C   UNL     1      34.876 -16.033 -25.246  0.00  0.00    +0.044 C 
ATOM     15  C   UNL     1      34.656 -14.842 -23.154  0.00  0.00    +0.014 C 
ATOM     16  C   UNL     1      33.960 -15.162 -25.836  0.00  0.00    +0.141 C 
ATOM     17  C   UNL     1      33.741 -13.972 -23.745  0.00  0.00    +0.004 C 
ATOM     18  C   UNL     1      33.393 -14.132 -25.087  0.00  0.00    +0.030 C 
ENDBRANCH  10  13
ENDBRANCH   4  10
ENDBRANCH   1   9
BRANCH   1  20
ATOM     19  C   UNL     1      35.150 -23.103 -16.068  0.00  0.00    -0.043 C 
ATOM     20  C   UNL     1      36.014 -22.045 -18.495  0.00  0.00    -0.013 C 
ATOM     21  C   UNL     1      36.416 -22.524 -16.165  0.00  0.00    -0.007 C 
ATOM     22  C   UNL     1      34.318 -23.152 -17.186  0.00  0.00    -0.007 C 
ATOM     23  C   UNL     1      36.848 -21.993 -17.381  0.00  0.00    -0.004 C 
ATOM     24  C   UNL     1      34.750 -22.622 -18.402  0.00  0.00    -0.004 C 
BRANCH  19  25
ATOM     25  C   UNL     1      34.688 -23.670 -14.769  0.00  0.00    -0.050 C 
BRANCH  25  26
ATOM     26  N   UNL     1      33.322 -24.185 -14.841  0.00  0.00    +0.387 N 
ATOM     27  N   UNL     1      30.583 -24.363 -13.941  0.00  0.00    +0.382 N 
ATOM     28  C   UNL     1      30.930 -23.641 -15.170  0.00  0.00    -0.083 C 
ATOM     29  C   UNL     1      32.367 -23.098 -15.092  0.00  0.00    -0.099 C 
ATOM     30  C   UNL     1      32.970 -24.902 -13.609  0.00  0.00    -0.101 C 
ATOM     31  C   UNL     1      31.540 -25.438 -13.681  0.00  0.00    -0.105 C 
ATOM     32  C   UNL     1      29.934 -22.502 -15.377  0.00  0.00    -0.026 C 
ATOM     33  H   UNL     1      33.273 -24.843 -15.620  0.00  0.00    -0.079 HD
ATOM     34  H   UNL     1      29.650 -24.763 -14.040  0.00  0.00    -0.085 HD
ATOM     35  H   UNL     1      30.608 -23.708 -13.159  0.00  0.00    -0.085 HD
ENDBRANCH  25  26
ENDBRANCH  19  25
ENDBRANCH   1  20
TORSDOF 6
ENDMDL
MODEL 9
REMARK VINA RESULT:     -10.2      1.357      2.180
REMARK  Name = 15984937
REMARK  6 active torsions:
REMARK  status: ('A' for Active; 'I' for Inactive)
REMARK    1  A    between atoms: C_1  and  C_9
REMARK    2  A    between atoms: C_1  and  C_20
REMARK    3  A    between atoms: C_4  and  N_10
REMARK    4  A    between atoms: N_10  and  C_13
REMARK    5  A    between atoms: C_19  and  C_25
REMARK    6  A    between atoms: C_25  and  N_26
REMARK                            x       y       z     vdW  Elec       q    Type
REMARK                         _______ _______ _______ _____ _____    ______ ____
ROOT
ATOM      1  C   UNL     1      31.278 -11.251 -21.795  0.00  0.00    +0.112 C 
ENDROOT
BRANCH   1   9
ATOM      2  O   UNL     1      31.619 -10.086 -19.761  0.00  0.00    -0.275 OA
ATOM      3  N   UNL     1      32.255  -8.983 -21.705  0.00  0.00    -0.279 N 
ATOM      4  C   UNL     1      32.117  -6.396 -23.026  0.00  0.00    +0.072 C 
ATOM      5  C   UNL     1      31.689  -7.690 -23.725  0.00  0.00    +0.041 C 
ATOM      6  C   UNL     1      32.051  -6.534 -21.501  0.00  0.00    +0.041 C 
ATOM      7  C   UNL     1      32.399  -8.923 -23.163  0.00  0.00    +0.095 C 
ATOM      8  C   UNL     1      32.740  -7.801 -20.992  0.00  0.00    +0.095 C 
ATOM      9  C   UNL     1      31.731 -10.060 -20.989  0.00  0.00    +0.230 C 
BRANCH   4  10
ATOM     10  N   UNL     1      33.457  -6.029 -23.442  0.00  0.00    -0.334 N 
ATOM     11  H   UNL     1      34.201  -6.199 -22.820  0.00  0.00    +0.147 HD
BRANCH  10  13
ATOM     12  F   UNL     1      32.295  -3.070 -27.036  0.00  0.00    -0.204 F 
ATOM     13  C   UNL     1      33.746  -5.450 -24.664  0.00  0.00    +0.047 C 
ATOM     14  C   UNL     1      32.860  -4.528 -25.257  0.00  0.00    +0.044 C 
ATOM     15  C   UNL     1      34.933  -5.764 -25.354  0.00  0.00    +0.014 C 
ATOM     16  C   UNL     1      33.150  -3.945 -26.491  0.00  0.00    +0.141 C 
ATOM     17  C   UNL     1      35.224  -5.182 -26.587  0.00  0.00    +0.004 C 
ATOM     18  C   UNL     1      34.332  -4.272 -27.155  0.00  0.00    +0.030 C 
ENDBRANCH  10  13
ENDBRANCH   4  10
ENDBRANCH   1   9
BRANCH   1  20
ATOM     19  C   UNL     1      34.084 -14.465 -21.444  0.00  0.00    -0.043 C 
ATOM     20  C   UNL     1      32.259 -12.374 -21.672  0.00  0.00    -0.013 C 
ATOM     21  C   UNL     1      33.028 -14.359 -20.539  0.00  0.00    -0.007 C 
ATOM     22  C   UNL     1      34.226 -13.523 -22.463  0.00  0.00    -0.007 C 
ATOM     23  C   UNL     1      32.113 -13.312 -20.653  0.00  0.00    -0.004 C 
ATOM     24  C   UNL     1      33.312 -12.475 -22.577  0.00  0.00    -0.004 C 
BRANCH  19  25
ATOM     25  C   UNL     1      35.062 -15.583 -21.321  0.00  0.00    -0.050 C 
BRANCH  25  26
ATOM     26  N   UNL     1      35.401 -16.171 -22.617  0.00  0.00    +0.387 N 
ATOM     27  N   UNL     1      34.806 -17.729 -24.976  0.00  0.00    +0.382 N 
ATOM     28  C   UNL     1      34.883 -16.265 -25.035  0.00  0.00    -0.083 C 
ATOM     29  C   UNL     1      34.524 -15.648 -23.673  0.00  0.00    -0.099 C 
ATOM     30  C   UNL     1      35.318 -17.636 -22.561  0.00  0.00    -0.101 C 
ATOM     31  C   UNL     1      35.668 -18.252 -23.916  0.00  0.00    -0.105 C 
ATOM     32  C   UNL     1      33.935 -15.760 -26.121  0.00  0.00    -0.026 C 
ATOM     33  H   UNL     1      36.362 -15.912 -22.839  0.00  0.00    -0.079 HD
ATOM     34  H   UNL     1      35.104 -18.116 -25.871  0.00  0.00    -0.085 HD
ATOM     35  H   UNL     1      33.843 -17.998 -24.775  0.00  0.00    -0.085 HD
ENDBRANCH  25  26
ENDBRANCH  19  25
ENDBRANCH   1  20
TORSDOF 6
ENDMDL
