MODEL 1
REMARK VINA RESULT:     -11.6      0.000      0.000
REMARK  Name = 448841
REMARK  3 active torsions:
REMARK  status: ('A' for Active; 'I' for Inactive)
REMARK    1  A    between atoms: C_1  and  C_17
REMARK    2  A    between atoms: C_9  and  C_13
REMARK    3  A    between atoms: C_18  and  C_20
REMARK                            x       y       z     vdW  Elec       q    Type
REMARK                         _______ _______ _______ _____ _____    ______ ____
ROOT
ATOM      1  C   UNL     1      35.589 -20.916 -20.399  0.00  0.00    -0.022 C 
ATOM      2  C   UNL     1      36.493 -21.230 -19.384  0.00  0.00    -0.004 C 
ATOM      3  C   UNL     1      34.267 -21.343 -20.313  0.00  0.00    -0.004 C 
ATOM      4  C   UNL     1      36.085 -21.977 -18.267  0.00  0.00    -0.000 C 
ATOM      5  C   UNL     1      33.845 -22.087 -19.210  0.00  0.00    -0.000 C 
ATOM      6  C   UNL     1      34.740 -22.412 -18.178  0.00  0.00    +0.000 C 
ATOM      7  C   UNL     1      36.981 -22.303 -17.236  0.00  0.00    +0.000 C 
ATOM      8  C   UNL     1      34.332 -23.159 -17.063  0.00  0.00    +0.003 C 
ATOM      9  C   UNL     1      35.236 -23.474 -16.046  0.00  0.00    +0.031 C 
ATOM     10  C   UNL     1      36.557 -23.046 -16.134  0.00  0.00    +0.003 C 
ENDROOT
BRANCH   9  13
ATOM     11  N   UNL     1      33.817 -23.766 -14.029  0.00  0.00    -0.343 N 
ATOM     12  N   UNL     1      35.333 -25.431 -14.656  0.00  0.00    -0.285 NA
ATOM     13  C   UNL     1      34.797 -24.247 -14.897  0.00  0.00    +0.117 C 
ATOM     14  H   UNL     1      33.535 -24.307 -13.257  0.00  0.00    +0.144 HD
ATOM     15  H   UNL     1      33.408 -22.886 -14.190  0.00  0.00    +0.144 HD
ATOM     16  H   UNL     1      35.037 -25.956 -13.878  0.00  0.00    +0.188 HD
ENDBRANCH   9  13
BRANCH   1  17
ATOM     17  C   UNL     1      36.039 -20.123 -21.577  0.00  0.00    +0.027 C 
ATOM     18  C   UNL     1      35.695 -18.668 -21.655  0.00  0.00    +0.027 C 
ATOM     19  C   UNL     1      37.111 -19.093 -21.398  0.00  0.00    +0.009 C 
BRANCH  18  20
ATOM     20  C   UNL     1      35.340 -18.075 -22.969  0.00  0.00    -0.022 C 
ATOM     21  C   UNL     1      34.824 -18.881 -23.988  0.00  0.00    -0.004 C 
ATOM     22  C   UNL     1      35.522 -16.708 -23.196  0.00  0.00    -0.004 C 
ATOM     23  C   UNL     1      34.492 -18.325 -25.224  0.00  0.00    -0.000 C 
ATOM     24  C   UNL     1      35.191 -16.151 -24.432  0.00  0.00    -0.000 C 
ATOM     25  C   UNL     1      34.676 -16.960 -25.445  0.00  0.00    -0.000 C 
ENDBRANCH  18  20
ENDBRANCH   1  17
TORSDOF 3
ENDMDL
MODEL 2
REMARK VINA RESULT:     -11.6      0.011      1.030
REMARK  Name = 448841
REMARK  3 active torsions:
REMARK  status: ('A' for Active; 'I' for Inactive)
REMARK    1  A    between atoms: C_1  and  C_17
REMARK    2  A    between atoms: C_9  and  C_13
REMARK    3  A    between atoms: C_18  and  C_20
REMARK                            x       y       z     vdW  Elec       q    Type
REMARK                         _______ _______ _______ _____ _____    ______ ____
ROOT
ATOM      1  C   UNL     1      35.593 -20.917 -20.397  0.00  0.00    -0.022 C 
ATOM      2  C   UNL     1      36.493 -21.231 -19.380  0.00  0.00    -0.004 C 
ATOM      3  C   UNL     1      34.271 -21.347 -20.316  0.00  0.00    -0.004 C 
ATOM      4  C   UNL     1      36.083 -21.981 -18.265  0.00  0.00    -0.000 C 
ATOM      5  C   UNL     1      33.846 -22.093 -19.215  0.00  0.00    -0.000 C 
ATOM      6  C   UNL     1      34.739 -22.418 -18.182  0.00  0.00    +0.000 C 
ATOM      7  C   UNL     1      36.976 -22.307 -17.232  0.00  0.00    +0.000 C 
ATOM      8  C   UNL     1      34.328 -23.167 -17.068  0.00  0.00    +0.003 C 
ATOM      9  C   UNL     1      35.228 -23.482 -16.049  0.00  0.00    +0.031 C 
ATOM     10  C   UNL     1      36.550 -23.052 -16.131  0.00  0.00    +0.003 C 
ENDROOT
BRANCH   9  13
ATOM     11  N   UNL     1      33.805 -23.779 -14.037  0.00  0.00    -0.343 N 
ATOM     12  N   UNL     1      35.324 -25.441 -14.662  0.00  0.00    -0.285 NA
ATOM     13  C   UNL     1      34.787 -24.258 -14.902  0.00  0.00    +0.117 C 
ATOM     14  H   UNL     1      33.521 -24.321 -13.266  0.00  0.00    +0.144 HD
ATOM     15  H   UNL     1      33.395 -22.898 -14.197  0.00  0.00    +0.144 HD
ATOM     16  H   UNL     1      35.025 -25.968 -13.885  0.00  0.00    +0.188 HD
ENDBRANCH   9  13
BRANCH   1  17
ATOM     17  C   UNL     1      36.046 -20.122 -21.573  0.00  0.00    +0.027 C 
ATOM     18  C   UNL     1      35.699 -18.667 -21.650  0.00  0.00    +0.027 C 
ATOM     19  C   UNL     1      37.116 -19.090 -21.389  0.00  0.00    +0.009 C 
BRANCH  18  20
ATOM     20  C   UNL     1      35.348 -18.073 -22.964  0.00  0.00    -0.022 C 
ATOM     21  C   UNL     1      35.525 -16.705 -23.187  0.00  0.00    -0.004 C 
ATOM     22  C   UNL     1      34.837 -18.878 -23.986  0.00  0.00    -0.004 C 
ATOM     23  C   UNL     1      35.193 -16.145 -24.421  0.00  0.00    -0.000 C 
ATOM     24  C   UNL     1      34.505 -18.319 -25.220  0.00  0.00    -0.000 C 
ATOM     25  C   UNL     1      34.683 -16.953 -25.437  0.00  0.00    -0.000 C 
ENDBRANCH  18  20
ENDBRANCH   1  17
TORSDOF 3
ENDMDL
MODEL 3
REMARK VINA RESULT:     -11.2      0.832      2.040
REMARK  Name = 448841
REMARK  3 active torsions:
REMARK  status: ('A' for Active; 'I' for Inactive)
REMARK    1  A    between atoms: C_1  and  C_17
REMARK    2  A    between atoms: C_9  and  C_13
REMARK    3  A    between atoms: C_18  and  C_20
REMARK                            x       y       z     vdW  Elec       q    Type
REMARK                         _______ _______ _______ _____ _____    ______ ____
ROOT
ATOM      1  C   UNL     1      36.044 -20.990 -20.102  0.00  0.00    -0.022 C 
ATOM      2  C   UNL     1      34.750 -21.464 -19.884  0.00  0.00    -0.004 C 
ATOM      3  C   UNL     1      37.036 -21.209 -19.150  0.00  0.00    -0.004 C 
ATOM      4  C   UNL     1      34.432 -22.165 -18.709  0.00  0.00    -0.000 C 
ATOM      5  C   UNL     1      36.737 -21.904 -17.977  0.00  0.00    -0.000 C 
ATOM      6  C   UNL     1      35.440 -22.388 -17.741  0.00  0.00    +0.000 C 
ATOM      7  C   UNL     1      33.135 -22.648 -18.472  0.00  0.00    +0.000 C 
ATOM      8  C   UNL     1      35.123 -23.088 -16.566  0.00  0.00    +0.003 C 
ATOM      9  C   UNL     1      33.828 -23.562 -16.348  0.00  0.00    +0.031 C 
ATOM     10  C   UNL     1      32.837 -23.342 -17.300  0.00  0.00    +0.003 C 
ENDROOT
BRANCH   9  13
ATOM     11  N   UNL     1      32.245 -24.229 -14.555  0.00  0.00    -0.343 N 
ATOM     12  N   UNL     1      34.447 -25.012 -14.534  0.00  0.00    -0.285 NA
ATOM     13  C   UNL     1      33.515 -24.286 -15.127  0.00  0.00    +0.117 C 
ATOM     14  H   UNL     1      32.055 -24.727 -13.727  0.00  0.00    +0.144 HD
ATOM     15  H   UNL     1      31.538 -23.691 -14.979  0.00  0.00    +0.144 HD
ATOM     16  H   UNL     1      34.236 -25.503 -13.707  0.00  0.00    +0.188 HD
ENDBRANCH   9  13
BRANCH   1  17
ATOM     17  C   UNL     1      36.364 -20.249 -21.353  0.00  0.00    +0.027 C 
ATOM     18  C   UNL     1      35.861 -18.849 -21.524  0.00  0.00    +0.027 C 
ATOM     19  C   UNL     1      37.323 -19.100 -21.297  0.00  0.00    +0.009 C 
BRANCH  18  20
ATOM     20  C   UNL     1      35.399 -18.402 -22.862  0.00  0.00    -0.022 C 
ATOM     21  C   UNL     1      35.549 -17.067 -23.248  0.00  0.00    -0.004 C 
ATOM     22  C   UNL     1      34.810 -19.312 -23.744  0.00  0.00    -0.004 C 
ATOM     23  C   UNL     1      35.113 -16.645 -24.504  0.00  0.00    -0.000 C 
ATOM     24  C   UNL     1      34.374 -18.891 -25.000  0.00  0.00    -0.000 C 
ATOM     25  C   UNL     1      34.525 -17.558 -25.380  0.00  0.00    -0.000 C 
ENDBRANCH  18  20
ENDBRANCH   1  17
TORSDOF 3
ENDMDL
MODEL 4
REMARK VINA RESULT:     -11.1      1.060      2.298
REMARK  Name = 448841
REMARK  3 active torsions:
REMARK  status: ('A' for Active; 'I' for Inactive)
REMARK    1  A    between atoms: C_1  and  C_17
REMARK    2  A    between atoms: C_9  and  C_13
REMARK    3  A    between atoms: C_18  and  C_20
REMARK                            x       y       z     vdW  Elec       q    Type
REMARK                         _______ _______ _______ _____ _____    ______ ____
ROOT
ATOM      1  C   UNL     1      35.006 -20.095 -21.515  0.00  0.00    -0.022 C 
ATOM      2  C   UNL     1      34.041 -20.816 -20.813  0.00  0.00    -0.004 C 
ATOM      3  C   UNL     1      36.323 -20.069 -21.064  0.00  0.00    -0.004 C 
ATOM      4  C   UNL     1      34.380 -21.522 -19.648  0.00  0.00    -0.000 C 
ATOM      5  C   UNL     1      36.677 -20.766 -19.907  0.00  0.00    -0.000 C 
ATOM      6  C   UNL     1      35.719 -21.497 -19.188  0.00  0.00    +0.000 C 
ATOM      7  C   UNL     1      33.421 -22.253 -18.928  0.00  0.00    +0.000 C 
ATOM      8  C   UNL     1      36.058 -22.203 -18.023  0.00  0.00    +0.003 C 
ATOM      9  C   UNL     1      35.093 -22.925 -17.320  0.00  0.00    +0.031 C 
ATOM     10  C   UNL     1      33.777 -22.950 -17.773  0.00  0.00    +0.003 C 
ENDROOT
BRANCH   9  13
ATOM     11  N   UNL     1      34.558 -23.822 -15.068  0.00  0.00    -0.343 N 
ATOM     12  N   UNL     1      36.674 -24.161 -15.999  0.00  0.00    -0.285 NA
ATOM     13  C   UNL     1      35.461 -23.651 -16.116  0.00  0.00    +0.117 C 
ATOM     14  H   UNL     1      34.828 -24.317 -14.261  0.00  0.00    +0.144 HD
ATOM     15  H   UNL     1      33.650 -23.447 -15.134  0.00  0.00    +0.144 HD
ATOM     16  H   UNL     1      36.925 -24.653 -15.184  0.00  0.00    +0.188 HD
ENDBRANCH   9  13
BRANCH   1  17
ATOM     17  C   UNL     1      34.629 -19.350 -22.749  0.00  0.00    +0.027 C 
ATOM     18  C   UNL     1      35.617 -18.413 -23.370  0.00  0.00    +0.027 C 
ATOM     19  C   UNL     1      35.283 -19.710 -24.048  0.00  0.00    +0.009 C 
BRANCH  18  20
ATOM     20  C   UNL     1      35.138 -17.139 -23.961  0.00  0.00    -0.022 C 
ATOM     21  C   UNL     1      34.669 -17.106 -25.278  0.00  0.00    -0.004 C 
ATOM     22  C   UNL     1      35.152 -15.963 -23.205  0.00  0.00    -0.004 C 
ATOM     23  C   UNL     1      34.221 -15.907 -25.834  0.00  0.00    -0.000 C 
ATOM     24  C   UNL     1      34.704 -14.765 -23.760  0.00  0.00    -0.000 C 
ATOM     25  C   UNL     1      34.238 -14.737 -25.075  0.00  0.00    -0.000 C 
ENDBRANCH  18  20
ENDBRANCH   1  17
TORSDOF 3
ENDMDL
MODEL 5
REMARK VINA RESULT:     -11.1      5.654      9.450
REMARK  Name = 448841
REMARK  3 active torsions:
REMARK  status: ('A' for Active; 'I' for Inactive)
REMARK    1  A    between atoms: C_1  and  C_17
REMARK    2  A    between atoms: C_9  and  C_13
REMARK    3  A    between atoms: C_18  and  C_20
REMARK                            x       y       z     vdW  Elec       q    Type
REMARK                         _______ _______ _______ _____ _____    ______ ____
ROOT
ATOM      1  C   UNL     1      35.234 -16.524 -22.132  0.00  0.00    -0.022 C 
ATOM      2  C   UNL     1      34.479 -15.788 -21.219  0.00  0.00    -0.004 C 
ATOM      3  C   UNL     1      35.445 -16.034 -23.418  0.00  0.00    -0.004 C 
ATOM      4  C   UNL     1      33.923 -14.550 -21.581  0.00  0.00    -0.000 C 
ATOM      5  C   UNL     1      34.899 -14.805 -23.795  0.00  0.00    -0.000 C 
ATOM      6  C   UNL     1      34.137 -14.051 -22.889  0.00  0.00    +0.000 C 
ATOM      7  C   UNL     1      33.159 -13.797 -20.676  0.00  0.00    +0.000 C 
ATOM      8  C   UNL     1      33.581 -12.814 -23.251  0.00  0.00    +0.003 C 
ATOM      9  C   UNL     1      32.825 -12.077 -22.338  0.00  0.00    +0.031 C 
ATOM     10  C   UNL     1      32.615 -12.569 -21.052  0.00  0.00    +0.003 C 
ENDROOT
BRANCH   9  13
ATOM     11  N   UNL     1      32.921  -9.949 -23.612  0.00  0.00    -0.343 N 
ATOM     12  N   UNL     1      31.090 -10.418 -22.239  0.00  0.00    -0.285 NA
ATOM     13  C   UNL     1      32.257 -10.798 -22.728  0.00  0.00    +0.117 C 
ATOM     14  H   UNL     1      32.518  -9.086 -23.863  0.00  0.00    +0.144 HD
ATOM     15  H   UNL     1      33.793 -10.212 -23.986  0.00  0.00    +0.144 HD
ATOM     16  H   UNL     1      30.704  -9.552 -22.503  0.00  0.00    +0.188 HD
ENDBRANCH   9  13
BRANCH   1  17
ATOM     17  C   UNL     1      35.816 -17.835 -21.732  0.00  0.00    +0.027 C 
ATOM     18  C   UNL     1      35.040 -19.089 -21.989  0.00  0.00    +0.027 C 
ATOM     19  C   UNL     1      36.270 -18.788 -22.794  0.00  0.00    +0.009 C 
BRANCH  18  20
ATOM     20  C   UNL     1      35.077 -20.184 -20.987  0.00  0.00    -0.022 C 
ATOM     21  C   UNL     1      33.890 -20.785 -20.558  0.00  0.00    -0.004 C 
ATOM     22  C   UNL     1      36.298 -20.620 -20.465  0.00  0.00    -0.004 C 
ATOM     23  C   UNL     1      33.924 -21.813 -19.615  0.00  0.00    -0.000 C 
ATOM     24  C   UNL     1      36.333 -21.647 -19.521  0.00  0.00    -0.000 C 
ATOM     25  C   UNL     1      35.145 -22.243 -19.097  0.00  0.00    -0.000 C 
ENDBRANCH  18  20
ENDBRANCH   1  17
TORSDOF 3
ENDMDL
MODEL 6
REMARK VINA RESULT:     -10.7      3.786      8.654
REMARK  Name = 448841
REMARK  3 active torsions:
REMARK  status: ('A' for Active; 'I' for Inactive)
REMARK    1  A    between atoms: C_1  and  C_17
REMARK    2  A    between atoms: C_9  and  C_13
REMARK    3  A    between atoms: C_18  and  C_20
REMARK                            x       y       z     vdW  Elec       q    Type
REMARK                         _______ _______ _______ _____ _____    ______ ____
ROOT
ATOM      1  C   UNL     1      34.689 -22.654 -18.083  0.00  0.00    -0.022 C 
ATOM      2  C   UNL     1      35.827 -22.022 -18.583  0.00  0.00    -0.004 C 
ATOM      3  C   UNL     1      33.453 -22.447 -18.690  0.00  0.00    -0.004 C 
ATOM      4  C   UNL     1      35.745 -21.174 -19.699  0.00  0.00    -0.000 C 
ATOM      5  C   UNL     1      33.353 -21.607 -19.801  0.00  0.00    -0.000 C 
ATOM      6  C   UNL     1      34.489 -20.963 -20.318  0.00  0.00    +0.000 C 
ATOM      7  C   UNL     1      36.880 -20.529 -20.216  0.00  0.00    +0.000 C 
ATOM      8  C   UNL     1      34.405 -20.116 -21.433  0.00  0.00    +0.003 C 
ATOM      9  C   UNL     1      35.544 -19.483 -21.934  0.00  0.00    +0.031 C 
ATOM     10  C   UNL     1      36.779 -19.690 -21.326  0.00  0.00    +0.003 C 
ENDROOT
BRANCH   9  13
ATOM     11  N   UNL     1      36.159 -17.416 -23.164  0.00  0.00    -0.343 N 
ATOM     12  N   UNL     1      34.651 -18.938 -24.098  0.00  0.00    -0.285 NA
ATOM     13  C   UNL     1      35.441 -18.609 -23.091  0.00  0.00    +0.117 C 
ATOM     14  H   UNL     1      36.074 -16.839 -23.957  0.00  0.00    +0.144 HD
ATOM     15  H   UNL     1      36.751 -17.151 -22.423  0.00  0.00    +0.144 HD
ATOM     16  H   UNL     1      34.581 -18.347 -24.882  0.00  0.00    +0.188 HD
ENDBRANCH   9  13
BRANCH   1  17
ATOM     17  C   UNL     1      34.795 -23.550 -16.898  0.00  0.00    +0.027 C 
ATOM     18  C   UNL     1      35.623 -23.121 -15.727  0.00  0.00    +0.027 C 
ATOM     19  C   UNL     1      34.127 -23.150 -15.618  0.00  0.00    +0.009 C 
BRANCH  18  20
ATOM     20  C   UNL     1      36.426 -24.132 -14.996  0.00  0.00    -0.022 C 
ATOM     21  C   UNL     1      36.358 -25.481 -15.359  0.00  0.00    -0.004 C 
ATOM     22  C   UNL     1      37.254 -23.744 -13.938  0.00  0.00    -0.004 C 
ATOM     23  C   UNL     1      37.111 -26.433 -14.670  0.00  0.00    -0.000 C 
ATOM     24  C   UNL     1      38.006 -24.695 -13.249  0.00  0.00    -0.000 C 
ATOM     25  C   UNL     1      37.934 -26.039 -13.616  0.00  0.00    -0.000 C 
ENDBRANCH  18  20
ENDBRANCH   1  17
TORSDOF 3
ENDMDL
MODEL 7
REMARK VINA RESULT:     -10.6      1.078      1.774
REMARK  Name = 448841
REMARK  3 active torsions:
REMARK  status: ('A' for Active; 'I' for Inactive)
REMARK    1  A    between atoms: C_1  and  C_17
REMARK    2  A    between atoms: C_9  and  C_13
REMARK    3  A    between atoms: C_18  and  C_20
REMARK                            x       y       z     vdW  Elec       q    Type
REMARK                         _______ _______ _______ _____ _____    ______ ____
ROOT
ATOM      1  C   UNL     1      34.733 -21.470 -19.885  0.00  0.00    -0.022 C 
ATOM      2  C   UNL     1      35.523 -21.930 -18.833  0.00  0.00    -0.004 C 
ATOM      3  C   UNL     1      33.347 -21.583 -19.817  0.00  0.00    -0.004 C 
ATOM      4  C   UNL     1      34.938 -22.511 -17.696  0.00  0.00    -0.000 C 
ATOM      5  C   UNL     1      32.748 -22.157 -18.694  0.00  0.00    -0.000 C 
ATOM      6  C   UNL     1      33.528 -22.626 -17.625  0.00  0.00    +0.000 C 
ATOM      7  C   UNL     1      35.718 -22.980 -16.627  0.00  0.00    +0.000 C 
ATOM      8  C   UNL     1      32.942 -23.206 -16.490  0.00  0.00    +0.003 C 
ATOM      9  C   UNL     1      33.733 -23.666 -15.436  0.00  0.00    +0.031 C 
ATOM     10  C   UNL     1      35.119 -23.553 -15.506  0.00  0.00    +0.003 C 
ENDROOT
BRANCH   9  13
ATOM     11  N   UNL     1      32.676 -25.589 -14.273  0.00  0.00    -0.343 N 
ATOM     12  N   UNL     1      32.944 -23.546 -13.170  0.00  0.00    -0.285 NA
ATOM     13  C   UNL     1      33.111 -24.264 -14.266  0.00  0.00    +0.117 C 
ATOM     14  H   UNL     1      32.257 -25.973 -13.470  0.00  0.00    +0.144 HD
ATOM     15  H   UNL     1      32.788 -26.139 -15.081  0.00  0.00    +0.144 HD
ATOM     16  H   UNL     1      32.523 -23.950 -12.376  0.00  0.00    +0.188 HD
ENDBRANCH   9  13
BRANCH   1  17
ATOM     17  C   UNL     1      35.371 -20.858 -21.084  0.00  0.00    +0.027 C 
ATOM     18  C   UNL     1      35.438 -19.366 -21.196  0.00  0.00    +0.027 C 
ATOM     19  C   UNL     1      36.686 -20.158 -20.934  0.00  0.00    +0.009 C 
BRANCH  18  20
ATOM     20  C   UNL     1      35.246 -18.729 -22.522  0.00  0.00    -0.022 C 
ATOM     21  C   UNL     1      35.550 -17.376 -22.703  0.00  0.00    -0.004 C 
ATOM     22  C   UNL     1      34.759 -19.475 -23.599  0.00  0.00    -0.004 C 
ATOM     23  C   UNL     1      35.367 -16.775 -23.949  0.00  0.00    -0.000 C 
ATOM     24  C   UNL     1      34.576 -18.876 -24.845  0.00  0.00    -0.000 C 
ATOM     25  C   UNL     1      34.881 -17.525 -25.019  0.00  0.00    -0.000 C 
ENDBRANCH  18  20
ENDBRANCH   1  17
TORSDOF 3
ENDMDL
MODEL 8
REMARK VINA RESULT:     -10.5      5.422      9.686
REMARK  Name = 448841
REMARK  3 active torsions:
REMARK  status: ('A' for Active; 'I' for Inactive)
REMARK    1  A    between atoms: C_1  and  C_17
REMARK    2  A    between atoms: C_9  and  C_13
REMARK    3  A    between atoms: C_18  and  C_20
REMARK                            x       y       z     vdW  Elec       q    Type
REMARK                         _______ _______ _______ _____ _____    ______ ____
ROOT
ATOM      1  C   UNL     1      35.385 -17.799 -22.646  0.00  0.00    -0.022 C 
ATOM      2  C   UNL     1      35.178 -16.421 -22.599  0.00  0.00    -0.004 C 
ATOM      3  C   UNL     1      35.190 -18.494 -23.837  0.00  0.00    -0.004 C 
ATOM      4  C   UNL     1      34.773 -15.717 -23.745  0.00  0.00    -0.000 C 
ATOM      5  C   UNL     1      34.788 -17.810 -24.985  0.00  0.00    -0.000 C 
ATOM      6  C   UNL     1      34.575 -16.422 -24.957  0.00  0.00    +0.000 C 
ATOM      7  C   UNL     1      34.559 -14.330 -23.716  0.00  0.00    +0.000 C 
ATOM      8  C   UNL     1      34.170 -15.720 -26.102  0.00  0.00    +0.003 C 
ATOM      9  C   UNL     1      33.963 -14.340 -26.056  0.00  0.00    +0.031 C 
ATOM     10  C   UNL     1      34.157 -13.647 -24.864  0.00  0.00    +0.003 C 
ENDROOT
BRANCH   9  13
ATOM     11  N   UNL     1      32.209 -13.285 -27.461  0.00  0.00    -0.343 N 
ATOM     12  N   UNL     1      34.437 -13.294 -28.166  0.00  0.00    -0.285 NA
ATOM     13  C   UNL     1      33.544 -13.627 -27.251  0.00  0.00    +0.117 C 
ATOM     14  H   UNL     1      31.948 -12.802 -28.278  0.00  0.00    +0.144 HD
ATOM     15  H   UNL     1      31.528 -13.527 -26.793  0.00  0.00    +0.144 HD
ATOM     16  H   UNL     1      34.155 -12.810 -28.976  0.00  0.00    +0.188 HD
ENDBRANCH   9  13
BRANCH   1  17
ATOM     17  C   UNL     1      35.814 -18.530 -21.421  0.00  0.00    +0.027 C 
ATOM     18  C   UNL     1      36.057 -20.005 -21.496  0.00  0.00    +0.027 C 
ATOM     19  C   UNL     1      37.212 -19.060 -21.338  0.00  0.00    +0.009 C 
BRANCH  18  20
ATOM     20  C   UNL     1      35.660 -20.866 -20.353  0.00  0.00    -0.022 C 
ATOM     21  C   UNL     1      36.614 -21.277 -19.417  0.00  0.00    -0.004 C 
ATOM     22  C   UNL     1      34.330 -21.272 -20.206  0.00  0.00    -0.004 C 
ATOM     23  C   UNL     1      36.241 -22.088 -18.344  0.00  0.00    -0.000 C 
ATOM     24  C   UNL     1      33.958 -22.082 -19.134  0.00  0.00    -0.000 C 
ATOM     25  C   UNL     1      34.914 -22.490 -18.204  0.00  0.00    -0.000 C 
ENDBRANCH  18  20
ENDBRANCH   1  17
TORSDOF 3
ENDMDL
MODEL 9
REMARK VINA RESULT:     -10.4      3.928      8.552
REMARK  Name = 448841
REMARK  3 active torsions:
REMARK  status: ('A' for Active; 'I' for Inactive)
REMARK    1  A    between atoms: C_1  and  C_17
REMARK    2  A    between atoms: C_9  and  C_13
REMARK    3  A    between atoms: C_18  and  C_20
REMARK                            x       y       z     vdW  Elec       q    Type
REMARK                         _______ _______ _______ _____ _____    ______ ____
ROOT
ATOM      1  C   UNL     1      34.751 -22.069 -19.180  0.00  0.00    -0.022 C 
ATOM      2  C   UNL     1      35.895 -21.430 -19.659  0.00  0.00    -0.004 C 
ATOM      3  C   UNL     1      33.500 -21.734 -19.691  0.00  0.00    -0.004 C 
ATOM      4  C   UNL     1      35.803 -20.446 -20.657  0.00  0.00    -0.000 C 
ATOM      5  C   UNL     1      33.390 -20.758 -20.683  0.00  0.00    -0.000 C 
ATOM      6  C   UNL     1      34.531 -20.105 -21.177  0.00  0.00    +0.000 C 
ATOM      7  C   UNL     1      36.943 -19.793 -21.150  0.00  0.00    +0.000 C 
ATOM      8  C   UNL     1      34.438 -19.122 -22.174  0.00  0.00    +0.003 C 
ATOM      9  C   UNL     1      35.582 -18.483 -22.654  0.00  0.00    +0.031 C 
ATOM     10  C   UNL     1      36.832 -18.819 -22.142  0.00  0.00    +0.003 C 
ENDROOT
BRANCH   9  13
ATOM     11  N   UNL     1      34.845 -17.737 -24.904  0.00  0.00    -0.343 N 
ATOM     12  N   UNL     1      35.968 -16.261 -23.483  0.00  0.00    -0.285 NA
ATOM     13  C   UNL     1      35.469 -17.467 -23.687  0.00  0.00    +0.117 C 
ATOM     14  H   UNL     1      34.779 -17.034 -25.590  0.00  0.00    +0.144 HD
ATOM     15  H   UNL     1      34.469 -18.630 -25.077  0.00  0.00    +0.144 HD
ATOM     16  H   UNL     1      35.891 -15.571 -24.182  0.00  0.00    +0.188 HD
ENDBRANCH   9  13
BRANCH   1  17
ATOM     17  C   UNL     1      34.867 -23.110 -18.121  0.00  0.00    +0.027 C 
ATOM     18  C   UNL     1      34.715 -22.713 -16.685  0.00  0.00    +0.027 C 
ATOM     19  C   UNL     1      33.644 -23.519 -17.361  0.00  0.00    +0.009 C 
BRANCH  18  20
ATOM     20  C   UNL     1      35.571 -23.358 -15.659  0.00  0.00    -0.022 C 
ATOM     21  C   UNL     1      35.007 -23.846 -14.476  0.00  0.00    -0.004 C 
ATOM     22  C   UNL     1      36.948 -23.482 -15.867  0.00  0.00    -0.004 C 
ATOM     23  C   UNL     1      35.812 -24.450 -13.510  0.00  0.00    -0.000 C 
ATOM     24  C   UNL     1      37.754 -24.085 -14.902  0.00  0.00    -0.000 C 
ATOM     25  C   UNL     1      37.185 -24.569 -13.723  0.00  0.00    -0.000 C 
ENDBRANCH  18  20
ENDBRANCH   1  17
TORSDOF 3
ENDMDL
