MODEL 1
REMARK VINA RESULT:     -12.8      0.000      0.000
REMARK  Name = 447767
REMARK  2 active torsions:
REMARK  status: ('A' for Active; 'I' for Inactive)
REMARK    1  A    between atoms: N_2  and  C_10
REMARK    2  A    between atoms: C_8  and  C_24
REMARK                            x       y       z     vdW  Elec       q    Type
REMARK                         _______ _______ _______ _____ _____    ______ ____
ROOT
ATOM      1  O   UNL     1      34.361 -14.969 -26.792  0.00  0.00    -0.270 OA
ATOM      2  N   UNL     1      33.272 -11.590 -23.293  0.00  0.00    +0.396 N 
ATOM      3  N   UNL     1      34.327 -13.811 -24.761  0.00  0.00    -0.280 N 
ATOM      4  C   UNL     1      33.287 -12.934 -22.697  0.00  0.00    -0.054 C 
ATOM      5  C   UNL     1      33.090 -11.676 -24.749  0.00  0.00    -0.054 C 
ATOM      6  C   UNL     1      34.405 -13.790 -23.295  0.00  0.00    +0.071 C 
ATOM      7  C   UNL     1      34.211 -12.495 -25.384  0.00  0.00    +0.071 C 
ATOM      8  C   UNL     1      34.426 -14.951 -25.564  0.00  0.00    +0.249 C 
ATOM      9  H   UNL     1      34.171 -11.145 -23.106  0.00  0.00    -0.079 HD
ENDROOT
BRANCH   2  10
ATOM     10  C   UNL     1      32.220 -10.772 -22.691  0.00  0.00    -0.011 C 
ATOM     11  C   UNL     1      32.569  -9.290 -22.696  0.00  0.00    -0.038 C 
ATOM     12  C   UNL     1      32.065 -11.040 -21.200  0.00  0.00    -0.038 C 
ATOM     13  C   UNL     1      32.605  -8.786 -21.376  0.00  0.00    -0.006 C 
ATOM     14  C   UNL     1      32.296  -9.861 -20.458  0.00  0.00    -0.006 C 
ATOM     15  C   UNL     1      32.811  -8.469 -23.785  0.00  0.00    -0.006 C 
ATOM     16  C   UNL     1      31.728 -12.229 -20.573  0.00  0.00    -0.006 C 
ATOM     17  C   UNL     1      32.897  -7.453 -21.138  0.00  0.00    -0.000 C 
ATOM     18  C   UNL     1      32.202  -9.867 -19.076  0.00  0.00    -0.000 C 
ATOM     19  C   UNL     1      33.105  -7.126 -23.545  0.00  0.00    -0.000 C 
ATOM     20  C   UNL     1      31.634 -12.235 -19.180  0.00  0.00    -0.000 C 
ATOM     21  C   UNL     1      33.149  -6.622 -22.235  0.00  0.00    -0.000 C 
ATOM     22  C   UNL     1      31.870 -11.066 -18.439  0.00  0.00    -0.000 C 
ENDBRANCH   2  10
BRANCH   8  24
ATOM     23  N   UNL     1      35.320 -19.757 -22.865  0.00  0.00    -0.312 N 
ATOM     24  C   UNL     1      34.634 -16.248 -24.905  0.00  0.00    +0.054 C 
ATOM     25  C   UNL     1      35.258 -16.289 -23.655  0.00  0.00    +0.006 C 
ATOM     26  C   UNL     1      34.206 -17.412 -25.534  0.00  0.00    +0.006 C 
ATOM     27  C   UNL     1      35.452 -17.536 -23.029  0.00  0.00    +0.015 C 
ATOM     28  C   UNL     1      35.014 -18.691 -23.680  0.00  0.00    +0.048 C 
ATOM     29  C   UNL     1      34.388 -18.661 -24.931  0.00  0.00    +0.015 C 
ATOM     30  C   UNL     1      36.031 -17.946 -21.796  0.00  0.00    +0.017 C 
ATOM     31  C   UNL     1      35.936 -19.316 -21.724  0.00  0.00    +0.062 C 
ATOM     32  H   UNL     1      35.125 -20.699 -23.072  0.00  0.00    +0.152 HD
ENDBRANCH   8  24
TORSDOF 2
ENDMDL
MODEL 2
REMARK VINA RESULT:     -12.7      1.514      2.360
REMARK  Name = 447767
REMARK  2 active torsions:
REMARK  status: ('A' for Active; 'I' for Inactive)
REMARK    1  A    between atoms: N_2  and  C_10
REMARK    2  A    between atoms: C_8  and  C_24
REMARK                            x       y       z     vdW  Elec       q    Type
REMARK                         _______ _______ _______ _____ _____    ______ ____
ROOT
ATOM      1  O   UNL     1      35.335 -17.101 -24.965  0.00  0.00    -0.270 OA
ATOM      2  N   UNL     1      33.579 -13.123 -22.529  0.00  0.00    +0.396 N 
ATOM      3  N   UNL     1      34.998 -15.484 -23.310  0.00  0.00    -0.280 N 
ATOM      4  C   UNL     1      33.695 -14.260 -21.603  0.00  0.00    -0.054 C 
ATOM      5  C   UNL     1      33.531 -13.595 -23.919  0.00  0.00    -0.054 C 
ATOM      6  C   UNL     1      34.949 -15.085 -21.899  0.00  0.00    +0.071 C 
ATOM      7  C   UNL     1      34.788 -14.394 -24.260  0.00  0.00    +0.071 C 
ATOM      8  C   UNL     1      35.293 -16.766 -23.782  0.00  0.00    +0.249 C 
ATOM      9  H   UNL     1      34.402 -12.531 -22.417  0.00  0.00    -0.079 HD
ENDROOT
BRANCH   2  10
ATOM     10  C   UNL     1      32.394 -12.325 -22.217  0.00  0.00    -0.011 C 
ATOM     11  C   UNL     1      32.555 -10.868 -22.628  0.00  0.00    -0.038 C 
ATOM     12  C   UNL     1      32.169 -12.191 -20.716  0.00  0.00    -0.038 C 
ATOM     13  C   UNL     1      32.436 -10.020 -21.504  0.00  0.00    -0.006 C 
ATOM     14  C   UNL     1      32.199 -10.833 -20.330  0.00  0.00    -0.006 C 
ATOM     15  C   UNL     1      32.770 -10.353 -23.896  0.00  0.00    -0.006 C 
ATOM     16  C   UNL     1      31.938 -13.196 -19.791  0.00  0.00    -0.006 C 
ATOM     17  C   UNL     1      32.543  -8.646 -21.642  0.00  0.00    -0.000 C 
ATOM     18  C   UNL     1      32.010 -10.471 -19.006  0.00  0.00    -0.000 C 
ATOM     19  C   UNL     1      32.878  -8.969 -24.036  0.00  0.00    -0.000 C 
ATOM     20  C   UNL     1      31.748 -12.832 -18.457  0.00  0.00    -0.000 C 
ATOM     21  C   UNL     1      32.767  -8.123 -22.920  0.00  0.00    -0.000 C 
ATOM     22  C   UNL     1      31.785 -11.483 -18.068  0.00  0.00    -0.000 C 
ENDBRANCH   2  10
BRANCH   8  24
ATOM     23  N   UNL     1      36.178 -20.825 -20.052  0.00  0.00    -0.312 N 
ATOM     24  C   UNL     1      35.590 -17.816 -22.799  0.00  0.00    +0.054 C 
ATOM     25  C   UNL     1      34.555 -18.630 -22.331  0.00  0.00    +0.006 C 
ATOM     26  C   UNL     1      36.896 -17.987 -22.351  0.00  0.00    +0.006 C 
ATOM     27  C   UNL     1      34.847 -19.636 -21.391  0.00  0.00    +0.015 C 
ATOM     28  C   UNL     1      36.166 -19.788 -20.956  0.00  0.00    +0.048 C 
ATOM     29  C   UNL     1      37.210 -18.979 -21.418  0.00  0.00    +0.015 C 
ATOM     30  C   UNL     1      34.070 -20.619 -20.716  0.00  0.00    +0.017 C 
ATOM     31  C   UNL     1      34.916 -21.334 -19.900  0.00  0.00    +0.062 C 
ATOM     32  H   UNL     1      36.978 -21.155 -19.583  0.00  0.00    +0.152 HD
ENDBRANCH   8  24
TORSDOF 2
ENDMDL
MODEL 3
REMARK VINA RESULT:     -12.6      2.519      5.355
REMARK  Name = 447767
REMARK  2 active torsions:
REMARK  status: ('A' for Active; 'I' for Inactive)
REMARK    1  A    between atoms: N_2  and  C_10
REMARK    2  A    between atoms: C_8  and  C_24
REMARK                            x       y       z     vdW  Elec       q    Type
REMARK                         _______ _______ _______ _____ _____    ______ ____
ROOT
ATOM      1  O   UNL     1      31.524 -12.644 -21.175  0.00  0.00    -0.270 OA
ATOM      2  N   UNL     1      32.743  -8.292 -23.278  0.00  0.00    +0.396 N 
ATOM      3  N   UNL     1      32.276 -11.063 -22.724  0.00  0.00    -0.280 N 
ATOM      4  C   UNL     1      33.779  -9.293 -23.572  0.00  0.00    -0.054 C 
ATOM      5  C   UNL     1      31.959  -8.696 -22.102  0.00  0.00    -0.054 C 
ATOM      6  C   UNL     1      33.160 -10.669 -23.828  0.00  0.00    +0.071 C 
ATOM      7  C   UNL     1      31.296 -10.052 -22.338  0.00  0.00    +0.071 C 
ATOM      8  C   UNL     1      32.265 -12.313 -22.100  0.00  0.00    +0.249 C 
ATOM      9  H   UNL     1      32.115  -8.232 -24.079  0.00  0.00    -0.079 HD
ENDROOT
BRANCH   2  10
ATOM     10  C   UNL     1      33.345  -6.976 -23.066  0.00  0.00    -0.011 C 
ATOM     11  C   UNL     1      32.301  -5.905 -22.780  0.00  0.00    -0.038 C 
ATOM     12  C   UNL     1      33.997  -6.431 -24.329  0.00  0.00    -0.038 C 
ATOM     13  C   UNL     1      32.358  -4.886 -23.757  0.00  0.00    -0.006 C 
ATOM     14  C   UNL     1      33.399  -5.209 -24.708  0.00  0.00    -0.006 C 
ATOM     15  C   UNL     1      31.400  -5.843 -21.729  0.00  0.00    -0.006 C 
ATOM     16  C   UNL     1      35.043  -6.975 -25.057  0.00  0.00    -0.006 C 
ATOM     17  C   UNL     1      31.500  -3.800 -23.694  0.00  0.00    -0.000 C 
ATOM     18  C   UNL     1      33.839  -4.526 -25.831  0.00  0.00    -0.000 C 
ATOM     19  C   UNL     1      30.536  -4.750 -21.666  0.00  0.00    -0.000 C 
ATOM     20  C   UNL     1      35.486  -6.287 -26.188  0.00  0.00    -0.000 C 
ATOM     21  C   UNL     1      30.584  -3.738 -22.639  0.00  0.00    -0.000 C 
ATOM     22  C   UNL     1      34.889  -5.075 -26.571  0.00  0.00    -0.000 C 
ENDBRANCH   2  10
BRANCH   8  24
ATOM     23  N   UNL     1      35.722 -16.192 -24.143  0.00  0.00    -0.312 N 
ATOM     24  C   UNL     1      33.204 -13.336 -22.578  0.00  0.00    +0.054 C 
ATOM     25  C   UNL     1      33.101 -13.801 -23.892  0.00  0.00    +0.006 C 
ATOM     26  C   UNL     1      34.181 -13.826 -21.717  0.00  0.00    +0.006 C 
ATOM     27  C   UNL     1      34.006 -14.780 -24.343  0.00  0.00    +0.015 C 
ATOM     28  C   UNL     1      34.979 -15.256 -23.461  0.00  0.00    +0.048 C 
ATOM     29  C   UNL     1      35.090 -14.798 -22.143  0.00  0.00    +0.015 C 
ATOM     30  C   UNL     1      34.194 -15.463 -25.578  0.00  0.00    +0.017 C 
ATOM     31  C   UNL     1      35.255 -16.324 -25.423  0.00  0.00    +0.062 C 
ATOM     32  H   UNL     1      36.480 -16.694 -23.765  0.00  0.00    +0.152 HD
ENDBRANCH   8  24
TORSDOF 2
ENDMDL
MODEL 4
REMARK VINA RESULT:     -11.0      3.864      9.297
REMARK  Name = 447767
REMARK  2 active torsions:
REMARK  status: ('A' for Active; 'I' for Inactive)
REMARK    1  A    between atoms: N_2  and  C_10
REMARK    2  A    between atoms: C_8  and  C_24
REMARK                            x       y       z     vdW  Elec       q    Type
REMARK                         _______ _______ _______ _____ _____    ______ ____
ROOT
ATOM      1  O   UNL     1      32.366  -4.522 -23.355  0.00  0.00    -0.270 OA
ATOM      2  N   UNL     1      32.820  -9.410 -22.492  0.00  0.00    +0.396 N 
ATOM      3  N   UNL     1      33.238  -6.690 -23.284  0.00  0.00    -0.280 N 
ATOM      4  C   UNL     1      33.313  -9.097 -23.842  0.00  0.00    -0.054 C 
ATOM      5  C   UNL     1      31.925  -8.348 -22.013  0.00  0.00    -0.054 C 
ATOM      6  C   UNL     1      34.060  -7.762 -23.860  0.00  0.00    +0.071 C 
ATOM      7  C   UNL     1      32.650  -7.004 -21.984  0.00  0.00    +0.071 C 
ATOM      8  C   UNL     1      33.054  -5.421 -23.838  0.00  0.00    +0.249 C 
ATOM      9  H   UNL     1      33.620  -9.466 -21.862  0.00  0.00    -0.079 HD
ENDROOT
BRANCH   2  10
ATOM     10  C   UNL     1      32.136 -10.703 -22.482  0.00  0.00    -0.011 C 
ATOM     11  C   UNL     1      31.904 -11.220 -21.069  0.00  0.00    -0.038 C 
ATOM     12  C   UNL     1      32.995 -11.813 -23.072  0.00  0.00    -0.038 C 
ATOM     13  C   UNL     1      32.549 -12.464 -20.885  0.00  0.00    -0.006 C 
ATOM     14  C   UNL     1      33.218 -12.828 -22.116  0.00  0.00    -0.006 C 
ATOM     15  C   UNL     1      31.166 -10.637 -20.052  0.00  0.00    -0.006 C 
ATOM     16  C   UNL     1      33.509 -11.909 -24.355  0.00  0.00    -0.006 C 
ATOM     17  C   UNL     1      32.468 -13.129 -19.672  0.00  0.00    -0.000 C 
ATOM     18  C   UNL     1      33.972 -13.946 -22.435  0.00  0.00    -0.000 C 
ATOM     19  C   UNL     1      31.085 -11.306 -18.830  0.00  0.00    -0.000 C 
ATOM     20  C   UNL     1      34.268 -13.036 -24.678  0.00  0.00    -0.000 C 
ATOM     21  C   UNL     1      31.730 -12.539 -18.641  0.00  0.00    -0.000 C 
ATOM     22  C   UNL     1      34.498 -14.043 -23.726  0.00  0.00    -0.000 C 
ENDBRANCH   2  10
BRANCH   8  24
ATOM     23  N   UNL     1      35.446  -4.102 -28.708  0.00  0.00    -0.312 N 
ATOM     24  C   UNL     1      33.736  -5.109 -25.101  0.00  0.00    +0.054 C 
ATOM     25  C   UNL     1      33.078  -4.339 -26.064  0.00  0.00    +0.006 C 
ATOM     26  C   UNL     1      35.026  -5.582 -25.318  0.00  0.00    +0.006 C 
ATOM     27  C   UNL     1      33.740  -4.043 -27.271  0.00  0.00    +0.015 C 
ATOM     28  C   UNL     1      35.035  -4.528 -27.466  0.00  0.00    +0.048 C 
ATOM     29  C   UNL     1      35.703  -5.300 -26.508  0.00  0.00    +0.015 C 
ATOM     30  C   UNL     1      33.390  -3.310 -28.440  0.00  0.00    +0.017 C 
ATOM     31  C   UNL     1      34.458  -3.365 -29.304  0.00  0.00    +0.062 C 
ATOM     32  H   UNL     1      36.323  -4.298 -29.110  0.00  0.00    +0.152 HD
ENDBRANCH   8  24
TORSDOF 2
ENDMDL
MODEL 5
REMARK VINA RESULT:     -10.9      3.748      9.044
REMARK  Name = 447767
REMARK  2 active torsions:
REMARK  status: ('A' for Active; 'I' for Inactive)
REMARK    1  A    between atoms: N_2  and  C_10
REMARK    2  A    between atoms: C_8  and  C_24
REMARK                            x       y       z     vdW  Elec       q    Type
REMARK                         _______ _______ _______ _____ _____    ______ ____
ROOT
ATOM      1  O   UNL     1      32.700  -4.644 -22.907  0.00  0.00    -0.270 OA
ATOM      2  N   UNL     1      33.004  -9.602 -22.496  0.00  0.00    +0.396 N 
ATOM      3  N   UNL     1      33.433  -6.850 -23.160  0.00  0.00    -0.280 N 
ATOM      4  C   UNL     1      33.249  -9.204 -23.890  0.00  0.00    -0.054 C 
ATOM      5  C   UNL     1      32.284  -8.541 -21.778  0.00  0.00    -0.054 C 
ATOM      6  C   UNL     1      34.061  -7.909 -23.959  0.00  0.00    +0.071 C 
ATOM      7  C   UNL     1      33.084  -7.240 -21.796  0.00  0.00    +0.071 C 
ATOM      8  C   UNL     1      33.225  -5.532 -23.577  0.00  0.00    +0.249 C 
ATOM      9  H   UNL     1      33.905  -9.747 -22.039  0.00  0.00    -0.079 HD
ENDROOT
BRANCH   2  10
ATOM     10  C   UNL     1      32.255 -10.857 -22.444  0.00  0.00    -0.011 C 
ATOM     11  C   UNL     1      31.964 -11.295 -21.015  0.00  0.00    -0.038 C 
ATOM     12  C   UNL     1      33.070 -12.036 -22.960  0.00  0.00    -0.038 C 
ATOM     13  C   UNL     1      32.541 -12.560 -20.758  0.00  0.00    -0.006 C 
ATOM     14  C   UNL     1      33.219 -13.014 -21.953  0.00  0.00    -0.006 C 
ATOM     15  C   UNL     1      31.234 -10.629 -20.045  0.00  0.00    -0.006 C 
ATOM     16  C   UNL     1      33.608 -12.218 -24.224  0.00  0.00    -0.006 C 
ATOM     17  C   UNL     1      32.398 -13.162 -19.518  0.00  0.00    -0.000 C 
ATOM     18  C   UNL     1      33.922 -14.182 -22.202  0.00  0.00    -0.000 C 
ATOM     19  C   UNL     1      31.090 -11.235 -18.796  0.00  0.00    -0.000 C 
ATOM     20  C   UNL     1      34.316 -13.394 -24.475  0.00  0.00    -0.000 C 
ATOM     21  C   UNL     1      31.667 -12.488 -18.534  0.00  0.00    -0.000 C 
ATOM     22  C   UNL     1      34.473 -14.366 -23.473  0.00  0.00    -0.000 C 
ENDBRANCH   2  10
BRANCH   8  24
ATOM     23  N   UNL     1      35.153  -4.183 -28.640  0.00  0.00    -0.312 N 
ATOM     24  C   UNL     1      33.673  -5.152 -24.923  0.00  0.00    +0.054 C 
ATOM     25  C   UNL     1      34.992  -5.410 -25.306  0.00  0.00    +0.006 C 
ATOM     26  C   UNL     1      32.778  -4.542 -25.796  0.00  0.00    +0.006 C 
ATOM     27  C   UNL     1      35.413  -5.044 -26.599  0.00  0.00    +0.015 C 
ATOM     28  C   UNL     1      34.496  -4.434 -27.458  0.00  0.00    +0.048 C 
ATOM     29  C   UNL     1      33.173  -4.170 -27.085  0.00  0.00    +0.015 C 
ATOM     30  C   UNL     1      36.642  -5.151 -27.309  0.00  0.00    +0.017 C 
ATOM     31  C   UNL     1      36.451  -4.613 -28.560  0.00  0.00    +0.062 C 
ATOM     32  H   UNL     1      34.749  -3.757 -29.430  0.00  0.00    +0.152 HD
ENDBRANCH   8  24
TORSDOF 2
ENDMDL
MODEL 6
REMARK VINA RESULT:     -10.8      2.318      3.946
REMARK  Name = 447767
REMARK  2 active torsions:
REMARK  status: ('A' for Active; 'I' for Inactive)
REMARK    1  A    between atoms: N_2  and  C_10
REMARK    2  A    between atoms: C_8  and  C_24
REMARK                            x       y       z     vdW  Elec       q    Type
REMARK                         _______ _______ _______ _____ _____    ______ ____
ROOT
ATOM      1  O   UNL     1      36.197 -19.062 -23.843  0.00  0.00    -0.270 OA
ATOM      2  N   UNL     1      34.254 -14.639 -22.616  0.00  0.00    +0.396 N 
ATOM      3  N   UNL     1      35.496 -17.220 -22.587  0.00  0.00    -0.280 N 
ATOM      4  C   UNL     1      33.836 -15.654 -21.637  0.00  0.00    -0.054 C 
ATOM      5  C   UNL     1      34.674 -15.279 -23.870  0.00  0.00    -0.054 C 
ATOM      6  C   UNL     1      34.969 -16.639 -21.345  0.00  0.00    +0.071 C 
ATOM      7  C   UNL     1      35.831 -16.245 -23.622  0.00  0.00    +0.071 C 
ATOM      8  C   UNL     1      35.755 -18.576 -22.803  0.00  0.00    +0.249 C 
ATOM      9  H   UNL     1      35.049 -14.130 -22.232  0.00  0.00    -0.079 HD
ENDROOT
BRANCH   2  10
ATOM     10  C   UNL     1      33.173 -13.686 -22.862  0.00  0.00    -0.011 C 
ATOM     11  C   UNL     1      33.628 -12.505 -23.709  0.00  0.00    -0.038 C 
ATOM     12  C   UNL     1      32.721 -12.987 -21.587  0.00  0.00    -0.038 C 
ATOM     13  C   UNL     1      33.454 -11.294 -23.002  0.00  0.00    -0.006 C 
ATOM     14  C   UNL     1      32.897 -11.590 -21.699  0.00  0.00    -0.006 C 
ATOM     15  C   UNL     1      34.131 -12.518 -24.999  0.00  0.00    -0.006 C 
ATOM     16  C   UNL     1      32.183 -13.553 -20.443  0.00  0.00    -0.006 C 
ATOM     17  C   UNL     1      33.797 -10.083 -23.582  0.00  0.00    -0.000 C 
ATOM     18  C   UNL     1      32.546 -10.747 -20.657  0.00  0.00    -0.000 C 
ATOM     19  C   UNL     1      34.477 -11.299 -25.584  0.00  0.00    -0.000 C 
ATOM     20  C   UNL     1      31.829 -12.705 -19.392  0.00  0.00    -0.000 C 
ATOM     21  C   UNL     1      34.312 -10.093 -24.882  0.00  0.00    -0.000 C 
ATOM     22  C   UNL     1      32.010 -11.316 -19.498  0.00  0.00    -0.000 C 
ENDBRANCH   2  10
BRANCH   8  24
ATOM     23  N   UNL     1      35.001 -22.138 -18.570  0.00  0.00    -0.312 N 
ATOM     24  C   UNL     1      35.493 -19.517 -21.706  0.00  0.00    +0.054 C 
ATOM     25  C   UNL     1      36.549 -19.931 -20.890  0.00  0.00    +0.006 C 
ATOM     26  C   UNL     1      34.198 -19.979 -21.494  0.00  0.00    +0.006 C 
ATOM     27  C   UNL     1      36.289 -20.831 -19.839  0.00  0.00    +0.015 C 
ATOM     28  C   UNL     1      34.981 -21.281 -19.647  0.00  0.00    +0.048 C 
ATOM     29  C   UNL     1      33.916 -20.872 -20.457  0.00  0.00    +0.015 C 
ATOM     30  C   UNL     1      37.094 -21.448 -18.841  0.00  0.00    +0.017 C 
ATOM     31  C   UNL     1      36.274 -22.246 -18.077  0.00  0.00    +0.062 C 
ATOM     32  H   UNL     1      34.215 -22.606 -18.207  0.00  0.00    +0.152 HD
ENDBRANCH   8  24
TORSDOF 2
ENDMDL
MODEL 7
REMARK VINA RESULT:     -10.6      4.011      7.695
REMARK  Name = 447767
REMARK  2 active torsions:
REMARK  status: ('A' for Active; 'I' for Inactive)
REMARK    1  A    between atoms: N_2  and  C_10
REMARK    2  A    between atoms: C_8  and  C_24
REMARK                            x       y       z     vdW  Elec       q    Type
REMARK                         _______ _______ _______ _____ _____    ______ ____
ROOT
ATOM      1  O   UNL     1      32.276  -8.864 -20.337  0.00  0.00    -0.270 OA
ATOM      2  N   UNL     1      32.075  -5.294 -23.809  0.00  0.00    +0.396 N 
ATOM      3  N   UNL     1      31.883  -7.754 -22.356  0.00  0.00    -0.280 N 
ATOM      4  C   UNL     1      32.529  -6.553 -24.418  0.00  0.00    -0.054 C 
ATOM      5  C   UNL     1      32.289  -5.320 -22.355  0.00  0.00    -0.054 C 
ATOM      6  C   UNL     1      31.789  -7.752 -23.821  0.00  0.00    +0.071 C 
ATOM      7  C   UNL     1      31.534  -6.487 -21.721  0.00  0.00    +0.071 C 
ATOM      8  C   UNL     1      32.198  -8.862 -21.564  0.00  0.00    +0.249 C 
ATOM      9  H   UNL     1      31.076  -5.192 -23.986  0.00  0.00    -0.079 HD
ENDROOT
BRANCH   2  10
ATOM     10  C   UNL     1      32.768  -4.154 -24.409  0.00  0.00    -0.011 C 
ATOM     11  C   UNL     1      31.831  -3.281 -25.235  0.00  0.00    -0.038 C 
ATOM     12  C   UNL     1      33.782  -4.585 -25.459  0.00  0.00    -0.038 C 
ATOM     13  C   UNL     1      32.264  -3.227 -26.579  0.00  0.00    -0.006 C 
ATOM     14  C   UNL     1      33.461  -4.027 -26.717  0.00  0.00    -0.006 C 
ATOM     15  C   UNL     1      30.710  -2.587 -24.812  0.00  0.00    -0.006 C 
ATOM     16  C   UNL     1      34.900  -5.387 -25.293  0.00  0.00    -0.006 C 
ATOM     17  C   UNL     1      31.564  -2.482 -27.515  0.00  0.00    -0.000 C 
ATOM     18  C   UNL     1      34.255  -4.280 -27.824  0.00  0.00    -0.000 C 
ATOM     19  C   UNL     1      30.005  -1.838 -25.755  0.00  0.00    -0.000 C 
ATOM     20  C   UNL     1      35.699  -5.642 -26.409  0.00  0.00    -0.000 C 
ATOM     21  C   UNL     1      30.427  -1.786 -27.093  0.00  0.00    -0.000 C 
ATOM     22  C   UNL     1      35.379  -5.094 -27.662  0.00  0.00    -0.000 C 
ENDBRANCH   2  10
BRANCH   8  24
ATOM     23  N   UNL     1      33.329 -13.617 -24.264  0.00  0.00    -0.312 N 
ATOM     24  C   UNL     1      32.453 -10.144 -22.234  0.00  0.00    +0.054 C 
ATOM     25  C   UNL     1      33.332 -10.187 -23.320  0.00  0.00    +0.006 C 
ATOM     26  C   UNL     1      31.819 -11.295 -21.777  0.00  0.00    +0.006 C 
ATOM     27  C   UNL     1      33.573 -11.420 -23.956  0.00  0.00    +0.015 C 
ATOM     28  C   UNL     1      32.925 -12.562 -23.478  0.00  0.00    +0.048 C 
ATOM     29  C   UNL     1      32.043 -12.530 -22.392  0.00  0.00    +0.015 C 
ATOM     30  C   UNL     1      34.380 -11.829 -25.055  0.00  0.00    +0.017 C 
ATOM     31  C   UNL     1      34.209 -13.183 -25.220  0.00  0.00    +0.062 C 
ATOM     32  H   UNL     1      33.030 -14.548 -24.155  0.00  0.00    +0.152 HD
ENDBRANCH   8  24
TORSDOF 2
ENDMDL
MODEL 8
REMARK VINA RESULT:     -10.0      2.334      4.807
REMARK  Name = 447767
REMARK  2 active torsions:
REMARK  status: ('A' for Active; 'I' for Inactive)
REMARK    1  A    between atoms: N_2  and  C_10
REMARK    2  A    between atoms: C_8  and  C_24
REMARK                            x       y       z     vdW  Elec       q    Type
REMARK                         _______ _______ _______ _____ _____    ______ ____
ROOT
ATOM      1  O   UNL     1      31.464 -13.213 -21.730  0.00  0.00    -0.270 OA
ATOM      2  N   UNL     1      33.020  -8.802 -23.451  0.00  0.00    +0.396 N 
ATOM      3  N   UNL     1      32.477 -11.588 -23.071  0.00  0.00    -0.280 N 
ATOM      4  C   UNL     1      34.099  -9.793 -23.580  0.00  0.00    -0.054 C 
ATOM      5  C   UNL     1      32.037  -9.240 -22.451  0.00  0.00    -0.054 C 
ATOM      6  C   UNL     1      33.545 -11.161 -23.983  0.00  0.00    +0.071 C 
ATOM      7  C   UNL     1      31.436 -10.589 -22.841  0.00  0.00    +0.071 C 
ATOM      8  C   UNL     1      32.359 -12.855 -22.494  0.00  0.00    +0.249 C 
ATOM      9  H   UNL     1      32.549  -8.720 -24.352  0.00  0.00    -0.079 HD
ENDROOT
BRANCH   2  10
ATOM     10  C   UNL     1      33.566  -7.492 -23.096  0.00  0.00    -0.011 C 
ATOM     11  C   UNL     1      32.485  -6.526 -22.628  0.00  0.00    -0.038 C 
ATOM     12  C   UNL     1      34.126  -6.755 -24.305  0.00  0.00    -0.038 C 
ATOM     13  C   UNL     1      32.442  -5.389 -23.466  0.00  0.00    -0.006 C 
ATOM     14  C   UNL     1      33.450  -5.530 -24.496  0.00  0.00    -0.006 C 
ATOM     15  C   UNL     1      31.636  -6.650 -21.541  0.00  0.00    -0.006 C 
ATOM     16  C   UNL     1      35.160  -7.143 -25.142  0.00  0.00    -0.006 C 
ATOM     17  C   UNL     1      31.536  -4.369 -23.226  0.00  0.00    -0.000 C 
ATOM     18  C   UNL     1      33.798  -4.686 -25.538  0.00  0.00    -0.000 C 
ATOM     19  C   UNL     1      30.723  -5.623 -21.299  0.00  0.00    -0.000 C 
ATOM     20  C   UNL     1      35.511  -6.292 -26.192  0.00  0.00    -0.000 C 
ATOM     21  C   UNL     1      30.672  -4.494 -22.133  0.00  0.00    -0.000 C 
ATOM     22  C   UNL     1      34.836  -5.076 -26.388  0.00  0.00    -0.000 C 
ENDBRANCH   2  10
BRANCH   8  24
ATOM     23  N   UNL     1      36.193 -16.785 -23.508  0.00  0.00    -0.312 N 
ATOM     24  C   UNL     1      33.375 -13.864 -22.822  0.00  0.00    +0.054 C 
ATOM     25  C   UNL     1      33.753 -14.797 -21.852  0.00  0.00    +0.006 C 
ATOM     26  C   UNL     1      33.944 -13.877 -24.091  0.00  0.00    +0.006 C 
ATOM     27  C   UNL     1      34.726 -15.762 -22.175  0.00  0.00    +0.015 C 
ATOM     28  C   UNL     1      35.283 -15.755 -23.455  0.00  0.00    +0.048 C 
ATOM     29  C   UNL     1      34.912 -14.826 -24.434  0.00  0.00    +0.015 C 
ATOM     30  C   UNL     1      35.334 -16.833 -21.461  0.00  0.00    +0.017 C 
ATOM     31  C   UNL     1      36.232 -17.443 -22.307  0.00  0.00    +0.062 C 
ATOM     32  H   UNL     1      36.738 -17.017 -24.294  0.00  0.00    +0.152 HD
ENDBRANCH   8  24
TORSDOF 2
ENDMDL
