MODEL 1
REMARK VINA RESULT:     -11.1      0.000      0.000
REMARK  Name = 3055168
REMARK  6 active torsions:
REMARK  status: ('A' for Active; 'I' for Inactive)
REMARK    1  A    between atoms: C_1  and  C_21
REMARK    2  A    between atoms: C_4  and  O_7
REMARK    3  A    between atoms: O_7  and  C_8
REMARK    4  A    between atoms: C_8  and  C_12
REMARK    5  A    between atoms: C_17  and  O_19
REMARK    6  A    between atoms: C_21  and  C_26
REMARK                            x       y       z     vdW  Elec       q    Type
REMARK                         _______ _______ _______ _____ _____    ______ ____
ROOT
ATOM      1  C   UNL     1      35.558 -20.137 -20.921  0.00  0.00    -0.021 C 
ATOM      2  C   UNL     1      34.182 -20.368 -20.925  0.00  0.00    -0.001 C 
ATOM      3  C   UNL     1      36.404 -20.975 -20.194  0.00  0.00    -0.001 C 
ATOM      4  C   UNL     1      34.501 -22.270 -19.479  0.00  0.00    +0.139 C 
ATOM      5  C   UNL     1      33.653 -21.437 -20.201  0.00  0.00    +0.037 C 
ATOM      6  C   UNL     1      35.875 -22.045 -19.472  0.00  0.00    +0.037 C 
ENDROOT
BRANCH   4   7
ATOM      7  O   UNL     1      33.981 -23.319 -18.771  0.00  0.00    -0.466 OA
BRANCH   7   8
ATOM      8  C   UNL     1      33.322 -23.001 -17.547  0.00  0.00    +0.279 C 
BRANCH   8  12
ATOM      9  N   UNL     1      33.651 -23.643 -15.164  0.00  0.00    -0.274 N 
ATOM     10  N   UNL     1      35.358 -24.012 -16.539  0.00  0.00    -0.390 NA
ATOM     11  C   UNL     1      34.637 -24.194 -14.385  0.00  0.00    +0.153 C 
ATOM     12  C   UNL     1      34.130 -23.554 -16.441  0.00  0.00    +0.205 C 
ATOM     13  C   UNL     1      35.692 -24.415 -15.267  0.00  0.00    +0.133 C 
ATOM     14  C   UNL     1      34.695 -24.507 -13.027  0.00  0.00    +0.037 C 
ATOM     15  C   UNL     1      32.343 -23.231 -14.711  0.00  0.00    +0.115 C 
ATOM     16  C   UNL     1      36.883 -24.983 -14.782  0.00  0.00    +0.033 C 
ATOM     17  C   UNL     1      35.887 -25.072 -12.562  0.00  0.00    +0.137 C 
ATOM     18  C   UNL     1      36.963 -25.306 -13.422  0.00  0.00    +0.039 C 
BRANCH  17  19
ATOM     19  O   UNL     1      36.001 -25.398 -11.243  0.00  0.00    -0.472 OA
ATOM     20  C   UNL     1      36.056 -24.319 -10.312  0.00  0.00    +0.252 C 
ENDBRANCH  17  19
ENDBRANCH   8  12
ENDBRANCH   7   8
ENDBRANCH   4   7
BRANCH   1  21
ATOM     21  C   UNL     1      36.124 -18.994 -21.693  0.00  0.00    +0.047 C 
BRANCH  21  26
ATOM     22  S   UNL     1      35.176 -16.419 -21.972  0.00  0.00    -0.048 S 
ATOM     23  O   UNL     1      35.205 -19.300 -24.539  0.00  0.00    -0.274 OA
ATOM     24  O   UNL     1      35.456 -14.724 -23.963  0.00  0.00    -0.263 OA
ATOM     25  N   UNL     1      35.334 -16.993 -24.456  0.00  0.00    -0.246 N 
ATOM     26  C   UNL     1      35.045 -18.181 -22.403  0.00  0.00    +0.137 C 
ATOM     27  C   UNL     1      35.202 -18.251 -23.905  0.00  0.00    +0.239 C 
ATOM     28  C   UNL     1      35.345 -15.896 -23.635  0.00  0.00    +0.279 C 
ATOM     29  H   UNL     1      35.420 -16.883 -25.431  0.00  0.00    +0.158 HD
ENDBRANCH  21  26
ENDBRANCH   1  21
TORSDOF 6
ENDMDL
MODEL 2
REMARK VINA RESULT:     -11.0      2.866     10.860
REMARK  Name = 3055168
REMARK  6 active torsions:
REMARK  status: ('A' for Active; 'I' for Inactive)
REMARK    1  A    between atoms: C_1  and  C_21
REMARK    2  A    between atoms: C_4  and  O_7
REMARK    3  A    between atoms: O_7  and  C_8
REMARK    4  A    between atoms: C_8  and  C_12
REMARK    5  A    between atoms: C_17  and  O_19
REMARK    6  A    between atoms: C_21  and  C_26
REMARK                            x       y       z     vdW  Elec       q    Type
REMARK                         _______ _______ _______ _____ _____    ______ ____
ROOT
ATOM      1  C   UNL     1      34.406 -22.481 -18.702  0.00  0.00    -0.021 C 
ATOM      2  C   UNL     1      33.634 -21.725 -19.584  0.00  0.00    -0.001 C 
ATOM      3  C   UNL     1      35.782 -22.267 -18.619  0.00  0.00    -0.001 C 
ATOM      4  C   UNL     1      35.612 -20.546 -20.298  0.00  0.00    +0.139 C 
ATOM      5  C   UNL     1      34.240 -20.755 -20.384  0.00  0.00    +0.037 C 
ATOM      6  C   UNL     1      36.387 -21.297 -19.418  0.00  0.00    +0.037 C 
ENDROOT
BRANCH   4   7
ATOM      7  O   UNL     1      36.205 -19.594 -21.081  0.00  0.00    -0.466 OA
BRANCH   7   8
ATOM      8  C   UNL     1      35.667 -19.417 -22.390  0.00  0.00    +0.279 C 
BRANCH   8  12
ATOM      9  N   UNL     1      35.095 -17.441 -23.794  0.00  0.00    -0.274 N 
ATOM     10  N   UNL     1      35.357 -17.074 -21.618  0.00  0.00    -0.390 NA
ATOM     11  C   UNL     1      34.878 -16.098 -23.620  0.00  0.00    +0.153 C 
ATOM     12  C   UNL     1      35.378 -17.980 -22.570  0.00  0.00    +0.205 C 
ATOM     13  C   UNL     1      35.047 -15.894 -22.253  0.00  0.00    +0.133 C 
ATOM     14  C   UNL     1      34.558 -15.076 -24.514  0.00  0.00    +0.037 C 
ATOM     15  C   UNL     1      35.035 -18.156 -25.048  0.00  0.00    +0.115 C 
ATOM     16  C   UNL     1      34.892 -14.599 -21.730  0.00  0.00    +0.033 C 
ATOM     17  C   UNL     1      34.407 -13.794 -23.976  0.00  0.00    +0.137 C 
ATOM     18  C   UNL     1      34.570 -13.557 -22.609  0.00  0.00    +0.039 C 
BRANCH  17  19
ATOM     19  O   UNL     1      34.095 -12.756 -24.803  0.00  0.00    -0.472 OA
ATOM     20  C   UNL     1      34.151 -11.445 -24.245  0.00  0.00    +0.252 C 
ENDBRANCH  17  19
ENDBRANCH   8  12
ENDBRANCH   7   8
ENDBRANCH   4   7
BRANCH   1  21
ATOM     21  C   UNL     1      33.760 -23.518 -17.847  0.00  0.00    +0.047 C 
BRANCH  21  26
ATOM     22  S   UNL     1      32.344 -23.298 -15.489  0.00  0.00    -0.048 S 
ATOM     23  O   UNL     1      35.947 -24.555 -16.064  0.00  0.00    -0.274 OA
ATOM     24  O   UNL     1      32.144 -24.981 -13.478  0.00  0.00    -0.263 OA
ATOM     25  N   UNL     1      34.148 -24.901 -14.653  0.00  0.00    -0.246 N 
ATOM     26  C   UNL     1      33.942 -23.239 -16.357  0.00  0.00    +0.137 C 
ATOM     27  C   UNL     1      34.807 -24.291 -15.701  0.00  0.00    +0.239 C 
ATOM     28  C   UNL     1      32.859 -24.538 -14.365  0.00  0.00    +0.279 C 
ATOM     29  H   UNL     1      34.601 -25.593 -14.117  0.00  0.00    +0.158 HD
ENDBRANCH  21  26
ENDBRANCH   1  21
TORSDOF 6
ENDMDL
MODEL 3
REMARK VINA RESULT:     -10.7      2.875     10.951
REMARK  Name = 3055168
REMARK  6 active torsions:
REMARK  status: ('A' for Active; 'I' for Inactive)
REMARK    1  A    between atoms: C_1  and  C_21
REMARK    2  A    between atoms: C_4  and  O_7
REMARK    3  A    between atoms: O_7  and  C_8
REMARK    4  A    between atoms: C_8  and  C_12
REMARK    5  A    between atoms: C_17  and  O_19
REMARK    6  A    between atoms: C_21  and  C_26
REMARK                            x       y       z     vdW  Elec       q    Type
REMARK                         _______ _______ _______ _____ _____    ______ ____
ROOT
ATOM      1  C   UNL     1      35.113 -22.792 -17.444  0.00  0.00    -0.021 C 
ATOM      2  C   UNL     1      36.271 -22.117 -17.832  0.00  0.00    -0.001 C 
ATOM      3  C   UNL     1      33.978 -22.750 -18.253  0.00  0.00    -0.001 C 
ATOM      4  C   UNL     1      35.157 -21.362 -19.832  0.00  0.00    +0.139 C 
ATOM      5  C   UNL     1      36.292 -21.400 -19.029  0.00  0.00    +0.037 C 
ATOM      6  C   UNL     1      34.000 -22.035 -19.450  0.00  0.00    +0.037 C 
ENDROOT
BRANCH   4   7
ATOM      7  O   UNL     1      35.179 -20.661 -21.006  0.00  0.00    -0.466 OA
BRANCH   7   8
ATOM      8  C   UNL     1      36.285 -19.783 -21.206  0.00  0.00    +0.279 C 
BRANCH   8  12
ATOM      9  N   UNL     1      35.531 -18.904 -23.410  0.00  0.00    -0.274 N 
ATOM     10  N   UNL     1      35.691 -17.431 -21.754  0.00  0.00    -0.390 NA
ATOM     11  C   UNL     1      35.158 -17.701 -23.953  0.00  0.00    +0.153 C 
ATOM     12  C   UNL     1      35.840 -18.691 -22.096  0.00  0.00    +0.205 C 
ATOM     13  C   UNL     1      35.266 -16.798 -22.898  0.00  0.00    +0.133 C 
ATOM     14  C   UNL     1      34.748 -17.337 -25.235  0.00  0.00    +0.037 C 
ATOM     15  C   UNL     1      35.585 -20.169 -24.107  0.00  0.00    +0.115 C 
ATOM     16  C   UNL     1      34.951 -15.446 -23.120  0.00  0.00    +0.033 C 
ATOM     17  C   UNL     1      34.438 -15.988 -25.438  0.00  0.00    +0.137 C 
ATOM     18  C   UNL     1      34.537 -15.058 -24.400  0.00  0.00    +0.039 C 
BRANCH  17  19
ATOM     19  O   UNL     1      34.033 -15.574 -26.672  0.00  0.00    -0.472 OA
ATOM     20  C   UNL     1      33.525 -14.245 -26.774  0.00  0.00    +0.252 C 
ENDBRANCH  17  19
ENDBRANCH   8  12
ENDBRANCH   7   8
ENDBRANCH   4   7
BRANCH   1  21
ATOM     21  C   UNL     1      35.090 -23.557 -16.165  0.00  0.00    +0.047 C 
BRANCH  21  26
ATOM     22  S   UNL     1      37.116 -23.172 -14.332  0.00  0.00    -0.048 S 
ATOM     23  O   UNL     1      35.988 -26.425 -16.075  0.00  0.00    -0.274 OA
ATOM     24  O   UNL     1      37.784 -24.603 -12.230  0.00  0.00    -0.263 OA
ATOM     25  N   UNL     1      36.908 -25.705 -14.079  0.00  0.00    -0.246 N 
ATOM     26  C   UNL     1      36.471 -24.077 -15.772  0.00  0.00    +0.137 C 
ATOM     27  C   UNL     1      36.416 -25.529 -15.356  0.00  0.00    +0.239 C 
ATOM     28  C   UNL     1      37.329 -24.615 -13.364  0.00  0.00    +0.279 C 
ATOM     29  H   UNL     1      36.955 -26.606 -13.685  0.00  0.00    +0.158 HD
ENDBRANCH  21  26
ENDBRANCH   1  21
TORSDOF 6
ENDMDL
MODEL 4
REMARK VINA RESULT:     -10.6      2.307      4.112
REMARK  Name = 3055168
REMARK  6 active torsions:
REMARK  status: ('A' for Active; 'I' for Inactive)
REMARK    1  A    between atoms: C_1  and  C_21
REMARK    2  A    between atoms: C_4  and  O_7
REMARK    3  A    between atoms: O_7  and  C_8
REMARK    4  A    between atoms: C_8  and  C_12
REMARK    5  A    between atoms: C_17  and  O_19
REMARK    6  A    between atoms: C_21  and  C_26
REMARK                            x       y       z     vdW  Elec       q    Type
REMARK                         _______ _______ _______ _____ _____    ______ ____
ROOT
ATOM      1  C   UNL     1      35.368 -17.298 -23.664  0.00  0.00    -0.021 C 
ATOM      2  C   UNL     1      34.938 -18.464 -24.296  0.00  0.00    -0.001 C 
ATOM      3  C   UNL     1      35.652 -17.309 -22.298  0.00  0.00    -0.001 C 
ATOM      4  C   UNL     1      35.078 -19.647 -22.201  0.00  0.00    +0.139 C 
ATOM      5  C   UNL     1      34.793 -19.642 -23.563  0.00  0.00    +0.037 C 
ATOM      6  C   UNL     1      35.508 -18.486 -21.565  0.00  0.00    +0.037 C 
ENDROOT
BRANCH   4   7
ATOM      7  O   UNL     1      34.937 -20.803 -21.483  0.00  0.00    -0.466 OA
BRANCH   7   8
ATOM      8  C   UNL     1      35.871 -21.018 -20.427  0.00  0.00    +0.279 C 
BRANCH   8  12
ATOM      9  N   UNL     1      35.807 -22.139 -18.204  0.00  0.00    -0.274 N 
ATOM     10  N   UNL     1      33.878 -21.987 -19.298  0.00  0.00    -0.390 NA
ATOM     11  C   UNL     1      34.876 -22.735 -17.391  0.00  0.00    +0.153 C 
ATOM     12  C   UNL     1      35.162 -21.709 -19.330  0.00  0.00    +0.205 C 
ATOM     13  C   UNL     1      33.681 -22.627 -18.097  0.00  0.00    +0.133 C 
ATOM     14  C   UNL     1      34.975 -23.341 -16.139  0.00  0.00    +0.037 C 
ATOM     15  C   UNL     1      37.215 -21.994 -17.917  0.00  0.00    +0.115 C 
ATOM     16  C   UNL     1      32.503 -23.149 -17.534  0.00  0.00    +0.033 C 
ATOM     17  C   UNL     1      33.794 -23.855 -15.593  0.00  0.00    +0.137 C 
ATOM     18  C   UNL     1      32.579 -23.761 -16.276  0.00  0.00    +0.039 C 
BRANCH  17  19
ATOM     19  O   UNL     1      33.831 -24.459 -14.371  0.00  0.00    -0.472 OA
ATOM     20  C   UNL     1      34.989 -24.232 -13.571  0.00  0.00    +0.252 C 
ENDBRANCH  17  19
ENDBRANCH   8  12
ENDBRANCH   7   8
ENDBRANCH   4   7
BRANCH   1  21
ATOM     21  C   UNL     1      35.523 -16.038 -24.447  0.00  0.00    +0.047 C 
BRANCH  21  26
ATOM     22  S   UNL     1      34.448 -13.645 -23.593  0.00  0.00    -0.048 S 
ATOM     23  O   UNL     1      33.688 -15.656 -26.798  0.00  0.00    -0.274 OA
ATOM     24  O   UNL     1      33.964 -11.438 -24.938  0.00  0.00    -0.263 OA
ATOM     25  N   UNL     1      33.758 -13.470 -26.047  0.00  0.00    -0.246 N 
ATOM     26  C   UNL     1      34.237 -15.216 -24.487  0.00  0.00    +0.137 C 
ATOM     27  C   UNL     1      33.867 -14.838 -25.903  0.00  0.00    +0.239 C 
ATOM     28  C   UNL     1      34.014 -12.658 -24.973  0.00  0.00    +0.279 C 
ATOM     29  H   UNL     1      33.498 -13.081 -26.913  0.00  0.00    +0.158 HD
ENDBRANCH  21  26
ENDBRANCH   1  21
TORSDOF 6
ENDMDL
MODEL 5
REMARK VINA RESULT:     -10.6      4.516     11.841
REMARK  Name = 3055168
REMARK  6 active torsions:
REMARK  status: ('A' for Active; 'I' for Inactive)
REMARK    1  A    between atoms: C_1  and  C_21
REMARK    2  A    between atoms: C_4  and  O_7
REMARK    3  A    between atoms: O_7  and  C_8
REMARK    4  A    between atoms: C_8  and  C_12
REMARK    5  A    between atoms: C_17  and  O_19
REMARK    6  A    between atoms: C_21  and  C_26
REMARK                            x       y       z     vdW  Elec       q    Type
REMARK                         _______ _______ _______ _____ _____    ______ ____
ROOT
ATOM      1  C   UNL     1      35.282 -18.786 -22.597  0.00  0.00    -0.021 C 
ATOM      2  C   UNL     1      35.367 -17.730 -21.690  0.00  0.00    -0.001 C 
ATOM      3  C   UNL     1      35.199 -18.526 -23.964  0.00  0.00    -0.001 C 
ATOM      4  C   UNL     1      35.286 -16.160 -23.516  0.00  0.00    +0.139 C 
ATOM      5  C   UNL     1      35.368 -16.413 -22.151  0.00  0.00    +0.037 C 
ATOM      6  C   UNL     1      35.202 -17.210 -24.426  0.00  0.00    +0.037 C 
ENDROOT
BRANCH   4   7
ATOM      7  O   UNL     1      35.289 -14.868 -23.968  0.00  0.00    -0.466 OA
BRANCH   7   8
ATOM      8  C   UNL     1      34.096 -14.409 -24.601  0.00  0.00    +0.279 C 
BRANCH   8  12
ATOM      9  N   UNL     1      33.659 -12.027 -24.020  0.00  0.00    -0.274 N 
ATOM     10  N   UNL     1      32.794 -13.558 -22.660  0.00  0.00    -0.390 NA
ATOM     11  C   UNL     1      33.000 -11.322 -23.046  0.00  0.00    +0.153 C 
ATOM     12  C   UNL     1      33.508 -13.358 -23.746  0.00  0.00    +0.205 C 
ATOM     13  C   UNL     1      32.469 -12.300 -22.209  0.00  0.00    +0.133 C 
ATOM     14  C   UNL     1      32.829  -9.954 -22.831  0.00  0.00    +0.037 C 
ATOM     15  C   UNL     1      34.382 -11.462 -25.136  0.00  0.00    +0.115 C 
ATOM     16  C   UNL     1      31.720 -11.908 -21.087  0.00  0.00    +0.033 C 
ATOM     17  C   UNL     1      32.080  -9.581 -21.710  0.00  0.00    +0.137 C 
ATOM     18  C   UNL     1      31.535 -10.539 -20.852  0.00  0.00    +0.039 C 
BRANCH  17  19
ATOM     19  O   UNL     1      31.881  -8.258 -21.450  0.00  0.00    -0.472 OA
ATOM     20  C   UNL     1      32.916  -7.574 -20.746  0.00  0.00    +0.252 C 
ENDBRANCH  17  19
ENDBRANCH   8  12
ENDBRANCH   7   8
ENDBRANCH   4   7
BRANCH   1  21
ATOM     21  C   UNL     1      35.280 -20.194 -22.104  0.00  0.00    +0.047 C 
BRANCH  21  26
ATOM     22  S   UNL     1      33.260 -20.720 -20.300  0.00  0.00    -0.048 S 
ATOM     23  O   UNL     1      37.042 -21.426 -20.003  0.00  0.00    -0.274 OA
ATOM     24  O   UNL     1      32.808 -22.868 -18.852  0.00  0.00    -0.263 OA
ATOM     25  N   UNL     1      35.013 -22.296 -19.315  0.00  0.00    -0.246 N 
ATOM     26  C   UNL     1      35.000 -20.285 -20.606  0.00  0.00    +0.137 C 
ATOM     27  C   UNL     1      35.818 -21.378 -19.957  0.00  0.00    +0.239 C 
ATOM     28  C   UNL     1      33.652 -22.146 -19.362  0.00  0.00    +0.279 C 
ATOM     29  H   UNL     1      35.413 -23.052 -18.826  0.00  0.00    +0.158 HD
ENDBRANCH  21  26
ENDBRANCH   1  21
TORSDOF 6
ENDMDL
MODEL 6
REMARK VINA RESULT:     -10.5      2.856     11.059
REMARK  Name = 3055168
REMARK  6 active torsions:
REMARK  status: ('A' for Active; 'I' for Inactive)
REMARK    1  A    between atoms: C_1  and  C_21
REMARK    2  A    between atoms: C_4  and  O_7
REMARK    3  A    between atoms: O_7  and  C_8
REMARK    4  A    between atoms: C_8  and  C_12
REMARK    5  A    between atoms: C_17  and  O_19
REMARK    6  A    between atoms: C_21  and  C_26
REMARK                            x       y       z     vdW  Elec       q    Type
REMARK                         _______ _______ _______ _____ _____    ______ ____
ROOT
ATOM      1  C   UNL     1      34.275 -22.283 -19.209  0.00  0.00    -0.021 C 
ATOM      2  C   UNL     1      33.378 -21.496 -19.931  0.00  0.00    -0.001 C 
ATOM      3  C   UNL     1      35.648 -22.090 -19.355  0.00  0.00    -0.001 C 
ATOM      4  C   UNL     1      35.227 -20.325 -20.941  0.00  0.00    +0.139 C 
ATOM      5  C   UNL     1      33.856 -20.514 -20.800  0.00  0.00    +0.037 C 
ATOM      6  C   UNL     1      36.126 -21.108 -20.222  0.00  0.00    +0.037 C 
ENDROOT
BRANCH   4   7
ATOM      7  O   UNL     1      35.695 -19.361 -21.792  0.00  0.00    -0.466 OA
BRANCH   7   8
ATOM      8  C   UNL     1      35.729 -18.027 -21.290  0.00  0.00    +0.279 C 
BRANCH   8  12
ATOM      9  N   UNL     1      34.999 -15.817 -22.175  0.00  0.00    -0.274 N 
ATOM     10  N   UNL     1      35.307 -17.434 -23.668  0.00  0.00    -0.390 NA
ATOM     11  C   UNL     1      34.707 -15.254 -23.391  0.00  0.00    +0.153 C 
ATOM     12  C   UNL     1      35.351 -17.120 -22.393  0.00  0.00    +0.205 C 
ATOM     13  C   UNL     1      34.908 -16.284 -24.307  0.00  0.00    +0.133 C 
ATOM     14  C   UNL     1      34.298 -13.971 -23.758  0.00  0.00    +0.037 C 
ATOM     15  C   UNL     1      34.943 -15.149 -20.895  0.00  0.00    +0.115 C 
ATOM     16  C   UNL     1      34.691 -16.037 -25.674  0.00  0.00    +0.033 C 
ATOM     17  C   UNL     1      34.087 -13.743 -25.122  0.00  0.00    +0.137 C 
ATOM     18  C   UNL     1      34.280 -14.756 -26.064  0.00  0.00    +0.039 C 
BRANCH  17  19
ATOM     19  O   UNL     1      33.685 -12.509 -25.538  0.00  0.00    -0.472 OA
ATOM     20  C   UNL     1      34.045 -11.400 -24.716  0.00  0.00    +0.252 C 
ENDBRANCH  17  19
ENDBRANCH   8  12
ENDBRANCH   7   8
ENDBRANCH   4   7
BRANCH   1  21
ATOM     21  C   UNL     1      33.764 -23.333 -18.280  0.00  0.00    +0.047 C 
BRANCH  21  26
ATOM     22  S   UNL     1      32.299 -23.247 -15.944  0.00  0.00    -0.048 S 
ATOM     23  O   UNL     1      36.097 -23.738 -16.427  0.00  0.00    -0.274 OA
ATOM     24  O   UNL     1      32.436 -24.778 -13.810  0.00  0.00    -0.263 OA
ATOM     25  N   UNL     1      34.393 -24.357 -14.990  0.00  0.00    -0.246 N 
ATOM     26  C   UNL     1      33.860 -22.911 -16.816  0.00  0.00    +0.137 C 
ATOM     27  C   UNL     1      34.921 -23.699 -16.083  0.00  0.00    +0.239 C 
ATOM     28  C   UNL     1      33.052 -24.259 -14.729  0.00  0.00    +0.279 C 
ATOM     29  H   UNL     1      34.976 -24.892 -14.403  0.00  0.00    +0.158 HD
ENDBRANCH  21  26
ENDBRANCH   1  21
TORSDOF 6
ENDMDL
MODEL 7
REMARK VINA RESULT:     -10.4      1.860      2.793
REMARK  Name = 3055168
REMARK  6 active torsions:
REMARK  status: ('A' for Active; 'I' for Inactive)
REMARK    1  A    between atoms: C_1  and  C_21
REMARK    2  A    between atoms: C_4  and  O_7
REMARK    3  A    between atoms: O_7  and  C_8
REMARK    4  A    between atoms: C_8  and  C_12
REMARK    5  A    between atoms: C_17  and  O_19
REMARK    6  A    between atoms: C_21  and  C_26
REMARK                            x       y       z     vdW  Elec       q    Type
REMARK                         _______ _______ _______ _____ _____    ______ ____
ROOT
ATOM      1  C   UNL     1      35.816 -18.275 -23.247  0.00  0.00    -0.021 C 
ATOM      2  C   UNL     1      34.781 -19.076 -22.765  0.00  0.00    -0.001 C 
ATOM      3  C   UNL     1      37.058 -18.282 -22.612  0.00  0.00    -0.001 C 
ATOM      4  C   UNL     1      36.229 -19.888 -21.017  0.00  0.00    +0.139 C 
ATOM      5  C   UNL     1      34.989 -19.884 -21.646  0.00  0.00    +0.037 C 
ATOM      6  C   UNL     1      37.266 -19.091 -21.495  0.00  0.00    +0.037 C 
ENDROOT
BRANCH   4   7
ATOM      7  O   UNL     1      36.433 -20.682 -19.922  0.00  0.00    -0.466 OA
BRANCH   7   8
ATOM      8  C   UNL     1      35.468 -21.705 -19.686  0.00  0.00    +0.279 C 
BRANCH   8  12
ATOM      9  N   UNL     1      34.669 -22.774 -17.583  0.00  0.00    -0.274 N 
ATOM     10  N   UNL     1      36.818 -22.210 -17.659  0.00  0.00    -0.390 NA
ATOM     11  C   UNL     1      35.189 -23.147 -16.370  0.00  0.00    +0.153 C 
ATOM     12  C   UNL     1      35.680 -22.219 -18.317  0.00  0.00    +0.205 C 
ATOM     13  C   UNL     1      36.532 -22.785 -16.442  0.00  0.00    +0.133 C 
ATOM     14  C   UNL     1      34.618 -23.751 -15.250  0.00  0.00    +0.037 C 
ATOM     15  C   UNL     1      33.298 -22.940 -18.006  0.00  0.00    +0.115 C 
ATOM     16  C   UNL     1      37.369 -23.032 -15.341  0.00  0.00    +0.033 C 
ATOM     17  C   UNL     1      35.465 -23.991 -14.163  0.00  0.00    +0.137 C 
ATOM     18  C   UNL     1      36.816 -23.639 -14.206  0.00  0.00    +0.039 C 
BRANCH  17  19
ATOM     19  O   UNL     1      34.961 -24.579 -13.041  0.00  0.00    -0.472 OA
ATOM     20  C   UNL     1      35.629 -24.304 -11.811  0.00  0.00    +0.252 C 
ENDBRANCH  17  19
ENDBRANCH   8  12
ENDBRANCH   7   8
ENDBRANCH   4   7
BRANCH   1  21
ATOM     21  C   UNL     1      35.595 -17.410 -24.442  0.00  0.00    +0.047 C 
BRANCH  21  26
ATOM     22  S   UNL     1      34.762 -15.152 -23.094  0.00  0.00    -0.048 S 
ATOM     23  O   UNL     1      33.773 -16.400 -26.609  0.00  0.00    -0.274 OA
ATOM     24  O   UNL     1      34.469 -12.685 -23.956  0.00  0.00    -0.263 OA
ATOM     25  N   UNL     1      34.058 -14.426 -25.440  0.00  0.00    -0.246 N 
ATOM     26  C   UNL     1      34.392 -16.485 -24.275  0.00  0.00    +0.137 C 
ATOM     27  C   UNL     1      34.040 -15.798 -25.575  0.00  0.00    +0.239 C 
ATOM     28  C   UNL     1      34.404 -13.872 -24.235  0.00  0.00    +0.279 C 
ATOM     29  H   UNL     1      33.824 -13.848 -26.202  0.00  0.00    +0.158 HD
ENDBRANCH  21  26
ENDBRANCH   1  21
TORSDOF 6
ENDMDL
MODEL 8
REMARK VINA RESULT:     -10.3      5.597     13.149
REMARK  Name = 3055168
REMARK  6 active torsions:
REMARK  status: ('A' for Active; 'I' for Inactive)
REMARK    1  A    between atoms: C_1  and  C_21
REMARK    2  A    between atoms: C_4  and  O_7
REMARK    3  A    between atoms: O_7  and  C_8
REMARK    4  A    between atoms: C_8  and  C_12
REMARK    5  A    between atoms: C_17  and  O_19
REMARK    6  A    between atoms: C_21  and  C_26
REMARK                            x       y       z     vdW  Elec       q    Type
REMARK                         _______ _______ _______ _____ _____    ______ ____
ROOT
ATOM      1  C   UNL     1      35.316 -17.269 -23.215  0.00  0.00    -0.021 C 
ATOM      2  C   UNL     1      35.211 -16.319 -22.200  0.00  0.00    -0.001 C 
ATOM      3  C   UNL     1      35.107 -16.897 -24.543  0.00  0.00    -0.001 C 
ATOM      4  C   UNL     1      34.689 -14.631 -23.839  0.00  0.00    +0.139 C 
ATOM      5  C   UNL     1      34.896 -14.996 -22.513  0.00  0.00    +0.037 C 
ATOM      6  C   UNL     1      34.793 -15.575 -24.856  0.00  0.00    +0.037 C 
ENDROOT
BRANCH   4   7
ATOM      7  O   UNL     1      34.382 -13.333 -24.145  0.00  0.00    -0.466 OA
BRANCH   7   8
ATOM      8  C   UNL     1      33.154 -12.827 -23.627  0.00  0.00    +0.279 C 
BRANCH   8  12
ATOM      9  N   UNL     1      32.436 -10.623 -22.717  0.00  0.00    -0.274 N 
ATOM     10  N   UNL     1      34.219 -10.619 -24.044  0.00  0.00    -0.390 NA
ATOM     11  C   UNL     1      32.835  -9.313 -22.791  0.00  0.00    +0.153 C 
ATOM     12  C   UNL     1      33.293 -11.364 -23.482  0.00  0.00    +0.205 C 
ATOM     13  C   UNL     1      33.950  -9.337 -23.625  0.00  0.00    +0.133 C 
ATOM     14  C   UNL     1      32.331  -8.145 -22.218  0.00  0.00    +0.037 C 
ATOM     15  C   UNL     1      31.311 -11.126 -21.963  0.00  0.00    +0.115 C 
ATOM     16  C   UNL     1      34.614  -8.133 -23.916  0.00  0.00    +0.033 C 
ATOM     17  C   UNL     1      33.005  -6.956 -22.517  0.00  0.00    +0.137 C 
ATOM     18  C   UNL     1      34.126  -6.948 -23.351  0.00  0.00    +0.039 C 
BRANCH  17  19
ATOM     19  O   UNL     1      32.557  -5.783 -21.986  0.00  0.00    -0.472 OA
ATOM     20  C   UNL     1      31.157  -5.523 -22.079  0.00  0.00    +0.252 C 
ENDBRANCH  17  19
ENDBRANCH   8  12
ENDBRANCH   7   8
ENDBRANCH   4   7
BRANCH   1  21
ATOM     21  C   UNL     1      35.652 -18.683 -22.881  0.00  0.00    +0.047 C 
BRANCH  21  26
ATOM     22  S   UNL     1      34.349 -20.370 -21.129  0.00  0.00    -0.048 S 
ATOM     23  O   UNL     1      37.825 -18.725 -20.804  0.00  0.00    -0.274 OA
ATOM     24  O   UNL     1      35.266 -22.428 -19.772  0.00  0.00    -0.263 OA
ATOM     25  N   UNL     1      36.705 -20.649 -20.180  0.00  0.00    -0.246 N 
ATOM     26  C   UNL     1      35.496 -18.982 -21.392  0.00  0.00    +0.137 C 
ATOM     27  C   UNL     1      36.808 -19.408 -20.774  0.00  0.00    +0.239 C 
ATOM     28  C   UNL     1      35.517 -21.328 -20.242  0.00  0.00    +0.279 C 
ATOM     29  H   UNL     1      37.478 -21.043 -19.715  0.00  0.00    +0.158 HD
ENDBRANCH  21  26
ENDBRANCH   1  21
TORSDOF 6
ENDMDL
MODEL 9
REMARK VINA RESULT:     -10.2      2.624      3.925
REMARK  Name = 3055168
REMARK  6 active torsions:
REMARK  status: ('A' for Active; 'I' for Inactive)
REMARK    1  A    between atoms: C_1  and  C_21
REMARK    2  A    between atoms: C_4  and  O_7
REMARK    3  A    between atoms: O_7  and  C_8
REMARK    4  A    between atoms: C_8  and  C_12
REMARK    5  A    between atoms: C_17  and  O_19
REMARK    6  A    between atoms: C_21  and  C_26
REMARK                            x       y       z     vdW  Elec       q    Type
REMARK                         _______ _______ _______ _____ _____    ______ ____
ROOT
ATOM      1  C   UNL     1      35.834 -18.240 -23.197  0.00  0.00    -0.021 C 
ATOM      2  C   UNL     1      37.082 -18.224 -22.574  0.00  0.00    -0.001 C 
ATOM      3  C   UNL     1      34.802 -19.017 -22.672  0.00  0.00    -0.001 C 
ATOM      4  C   UNL     1      36.264 -19.761 -20.907  0.00  0.00    +0.139 C 
ATOM      5  C   UNL     1      37.297 -18.987 -21.426  0.00  0.00    +0.037 C 
ATOM      6  C   UNL     1      35.017 -19.779 -21.524  0.00  0.00    +0.037 C 
ENDROOT
BRANCH   4   7
ATOM      7  O   UNL     1      36.475 -20.507 -19.780  0.00  0.00    -0.466 OA
BRANCH   7   8
ATOM      8  C   UNL     1      36.260 -21.913 -19.895  0.00  0.00    +0.279 C 
BRANCH   8  12
ATOM      9  N   UNL     1      34.064 -22.392 -18.823  0.00  0.00    -0.274 N 
ATOM     10  N   UNL     1      35.871 -22.699 -17.567  0.00  0.00    -0.390 NA
ATOM     11  C   UNL     1      33.597 -22.818 -17.606  0.00  0.00    +0.153 C 
ATOM     12  C   UNL     1      35.428 -22.337 -18.750  0.00  0.00    +0.205 C 
ATOM     13  C   UNL     1      34.745 -23.003 -16.840  0.00  0.00    +0.133 C 
ATOM     14  C   UNL     1      32.308 -23.050 -17.125  0.00  0.00    +0.037 C 
ATOM     15  C   UNL     1      33.255 -22.062 -19.974  0.00  0.00    +0.115 C 
ATOM     16  C   UNL     1      34.618 -23.445 -15.512  0.00  0.00    +0.033 C 
ATOM     17  C   UNL     1      32.200 -23.490 -15.801  0.00  0.00    +0.137 C 
ATOM     18  C   UNL     1      33.333 -23.685 -15.008  0.00  0.00    +0.039 C 
BRANCH  17  19
ATOM     19  O   UNL     1      30.966 -23.732 -15.276  0.00  0.00    -0.472 OA
ATOM     20  C   UNL     1      30.388 -25.008 -15.543  0.00  0.00    +0.252 C 
ENDBRANCH  17  19
ENDBRANCH   8  12
ENDBRANCH   7   8
ENDBRANCH   4   7
BRANCH   1  21
ATOM     21  C   UNL     1      35.603 -17.425 -24.425  0.00  0.00    +0.047 C 
BRANCH  21  26
ATOM     22  S   UNL     1      34.764 -15.138 -23.128  0.00  0.00    -0.048 S 
ATOM     23  O   UNL     1      33.804 -16.451 -26.628  0.00  0.00    -0.274 OA
ATOM     24  O   UNL     1      34.487 -12.687 -24.040  0.00  0.00    -0.263 OA
ATOM     25  N   UNL     1      34.084 -14.456 -25.494  0.00  0.00    -0.246 N 
ATOM     26  C   UNL     1      34.402 -16.493 -24.287  0.00  0.00    +0.137 C 
ATOM     27  C   UNL     1      34.064 -15.831 -25.603  0.00  0.00    +0.239 C 
ATOM     28  C   UNL     1      34.420 -13.880 -24.297  0.00  0.00    +0.279 C 
ATOM     29  H   UNL     1      33.859 -13.892 -26.270  0.00  0.00    +0.158 HD
ENDBRANCH  21  26
ENDBRANCH   1  21
TORSDOF 6
ENDMDL
