MODEL 1
REMARK VINA RESULT:     -12.3      0.000      0.000
REMARK  Name = 11955716
REMARK  6 active torsions:
REMARK  status: ('A' for Active; 'I' for Inactive)
REMARK    1  A    between atoms: C_4  and  C_25
REMARK    2  A    between atoms: C_11  and  C_12
REMARK    3  A    between atoms: C_13  and  C_18
REMARK    4  A    between atoms: C_15  and  O_21
REMARK    5  A    between atoms: C_16  and  O_23
REMARK    6  A    between atoms: C_25  and  N_26
REMARK                            x       y       z     vdW  Elec       q    Type
REMARK                         _______ _______ _______ _____ _____    ______ ____
ROOT
ATOM      1  O   UNL     1      35.914 -23.830 -16.035  0.00  0.00    -0.269 OA
ATOM      2  N   UNL     1      34.690 -22.785 -17.713  0.00  0.00    -0.231 N 
ATOM      3  C   UNL     1      35.252 -21.484 -19.559  0.00  0.00    +0.016 C 
ATOM      4  C   UNL     1      35.110 -20.104 -21.499  0.00  0.00    -0.043 C 
ATOM      5  C   UNL     1      33.853 -21.547 -19.500  0.00  0.00    +0.016 C 
ATOM      6  C   UNL     1      35.854 -22.269 -18.442  0.00  0.00    +0.072 C 
ATOM      7  C   UNL     1      33.419 -22.384 -18.344  0.00  0.00    +0.072 C 
ATOM      8  C   UNL     1      35.894 -20.767 -20.552  0.00  0.00    -0.005 C 
ATOM      9  C   UNL     1      33.708 -20.167 -21.441  0.00  0.00    -0.006 C 
ATOM     10  C   UNL     1      33.069 -20.894 -20.434  0.00  0.00    +0.001 C 
ATOM     11  C   UNL     1      34.841 -23.509 -16.539  0.00  0.00    +0.259 C 
ENDROOT
BRANCH  11  12
ATOM     12  C   UNL     1      33.615 -23.909 -15.833  0.00  0.00    +0.088 C 
ATOM     13  C   UNL     1      31.207 -23.891 -15.693  0.00  0.00    +0.012 C 
ATOM     14  C   UNL     1      32.381 -23.521 -16.349  0.00  0.00    +0.006 C 
ATOM     15  C   UNL     1      33.682 -24.665 -14.665  0.00  0.00    +0.141 C 
ATOM     16  C   UNL     1      31.270 -24.648 -14.524  0.00  0.00    +0.133 C 
ATOM     17  C   UNL     1      32.507 -25.035 -14.009  0.00  0.00    +0.073 C 
BRANCH  13  18
ATOM     18  C   UNL     1      29.890 -23.468 -16.258  0.00  0.00    +0.025 C 
ATOM     19  C   UNL     1      29.189 -22.412 -15.385  0.00  0.00    +0.005 C 
ATOM     20  C   UNL     1      28.946 -24.660 -16.500  0.00  0.00    +0.005 C 
ENDBRANCH  13  18
BRANCH  15  21
ATOM     21  O   UNL     1      34.882 -25.052 -14.147  0.00  0.00    -0.505 OA
ATOM     22  H   UNL     1      35.146 -25.949 -14.197  0.00  0.00    +0.292 HD
ENDBRANCH  15  21
BRANCH  16  23
ATOM     23  O   UNL     1      30.133 -25.017 -13.871  0.00  0.00    -0.506 OA
ATOM     24  H   UNL     1      30.060 -25.876 -13.504  0.00  0.00    +0.292 HD
ENDBRANCH  16  23
ENDBRANCH  11  12
BRANCH   4  25
ATOM     25  C   UNL     1      35.770 -19.315 -22.588  0.00  0.00    -0.050 C 
BRANCH  25  26
ATOM     26  N   UNL     1      35.120 -18.022 -22.793  0.00  0.00    +0.387 N 
ATOM     27  N   UNL     1      35.141 -15.202 -23.426  0.00  0.00    +0.383 N 
ATOM     28  C   UNL     1      35.622 -17.030 -21.834  0.00  0.00    -0.100 C 
ATOM     29  C   UNL     1      35.321 -17.551 -24.169  0.00  0.00    -0.100 C 
ATOM     30  C   UNL     1      34.944 -15.673 -22.051  0.00  0.00    -0.101 C 
ATOM     31  C   UNL     1      34.641 -16.195 -24.386  0.00  0.00    -0.101 C 
ATOM     32  C   UNL     1      34.490 -13.909 -23.632  0.00  0.00    -0.101 C 
ATOM     33  H   UNL     1      34.120 -18.144 -22.638  0.00  0.00    -0.079 HD
ATOM     34  H   UNL     1      36.142 -15.079 -23.584  0.00  0.00    -0.080 HD
ENDBRANCH  25  26
ENDBRANCH   4  25
TORSDOF 6
ENDMDL
MODEL 2
REMARK VINA RESULT:     -12.0      1.476      2.023
REMARK  Name = 11955716
REMARK  6 active torsions:
REMARK  status: ('A' for Active; 'I' for Inactive)
REMARK    1  A    between atoms: C_4  and  C_25
REMARK    2  A    between atoms: C_11  and  C_12
REMARK    3  A    between atoms: C_13  and  C_18
REMARK    4  A    between atoms: C_15  and  O_21
REMARK    5  A    between atoms: C_16  and  O_23
REMARK    6  A    between atoms: C_25  and  N_26
REMARK                            x       y       z     vdW  Elec       q    Type
REMARK                         _______ _______ _______ _____ _____    ______ ____
ROOT
ATOM      1  O   UNL     1      37.960 -22.411 -16.485  0.00  0.00    -0.269 OA
ATOM      2  N   UNL     1      36.394 -21.951 -18.140  0.00  0.00    -0.231 N 
ATOM      3  C   UNL     1      36.396 -20.616 -20.048  0.00  0.00    +0.016 C 
ATOM      4  C   UNL     1      35.711 -19.466 -22.021  0.00  0.00    -0.043 C 
ATOM      5  C   UNL     1      35.117 -21.175 -19.928  0.00  0.00    +0.016 C 
ATOM      6  C   UNL     1      37.272 -21.083 -18.934  0.00  0.00    +0.072 C 
ATOM      7  C   UNL     1      35.047 -22.061 -18.729  0.00  0.00    +0.072 C 
ATOM      8  C   UNL     1      36.708 -19.761 -21.088  0.00  0.00    -0.005 C 
ATOM      9  C   UNL     1      34.428 -20.026 -21.902  0.00  0.00    -0.006 C 
ATOM     10  C   UNL     1      34.124 -20.889 -20.847  0.00  0.00    +0.001 C 
ATOM     11  C   UNL     1      36.829 -22.519 -16.952  0.00  0.00    +0.259 C 
ENDROOT
BRANCH  11  12
ATOM     12  C   UNL     1      35.851 -23.302 -16.183  0.00  0.00    +0.088 C 
ATOM     13  C   UNL     1      33.552 -23.749 -15.605  0.00  0.00    +0.012 C 
ATOM     14  C   UNL     1      34.495 -23.018 -16.327  0.00  0.00    +0.006 C 
ATOM     15  C   UNL     1      36.269 -24.313 -15.322  0.00  0.00    +0.141 C 
ATOM     16  C   UNL     1      33.967 -24.763 -14.742  0.00  0.00    +0.133 C 
ATOM     17  C   UNL     1      35.325 -25.045 -14.600  0.00  0.00    +0.073 C 
BRANCH  13  18
ATOM     18  C   UNL     1      32.101 -23.433 -15.770  0.00  0.00    +0.025 C 
ATOM     19  C   UNL     1      31.783 -22.832 -17.150  0.00  0.00    +0.005 C 
ATOM     20  C   UNL     1      31.572 -22.507 -14.659  0.00  0.00    +0.005 C 
ENDBRANCH  13  18
BRANCH  15  21
ATOM     21  O   UNL     1      37.592 -24.603 -15.168  0.00  0.00    -0.505 OA
ATOM     22  H   UNL     1      37.916 -24.886 -14.336  0.00  0.00    +0.292 HD
ENDBRANCH  15  21
BRANCH  16  23
ATOM     23  O   UNL     1      33.059 -25.486 -14.029  0.00  0.00    -0.506 OA
ATOM     24  H   UNL     1      33.228 -25.698 -13.133  0.00  0.00    +0.292 HD
ENDBRANCH  16  23
ENDBRANCH  11  12
BRANCH   4  25
ATOM     25  C   UNL     1      36.011 -18.542 -23.161  0.00  0.00    -0.050 C 
BRANCH  25  26
ATOM     26  N   UNL     1      35.180 -17.341 -23.120  0.00  0.00    +0.387 N 
ATOM     27  N   UNL     1      34.786 -14.477 -23.183  0.00  0.00    +0.383 N 
ATOM     28  C   UNL     1      35.540 -16.497 -21.974  0.00  0.00    -0.100 C 
ATOM     29  C   UNL     1      35.298 -16.582 -24.371  0.00  0.00    -0.100 C 
ATOM     30  C   UNL     1      34.671 -15.235 -21.932  0.00  0.00    -0.101 C 
ATOM     31  C   UNL     1      34.427 -15.322 -24.330  0.00  0.00    -0.101 C 
ATOM     32  C   UNL     1      33.953 -13.277 -23.143  0.00  0.00    -0.101 C 
ATOM     33  H   UNL     1      34.209 -17.633 -23.013  0.00  0.00    -0.079 HD
ATOM     34  H   UNL     1      35.757 -14.184 -23.292  0.00  0.00    -0.080 HD
ENDBRANCH  25  26
ENDBRANCH   4  25
TORSDOF 6
ENDMDL
MODEL 3
REMARK VINA RESULT:     -12.0      4.117      9.870
REMARK  Name = 11955716
REMARK  6 active torsions:
REMARK  status: ('A' for Active; 'I' for Inactive)
REMARK    1  A    between atoms: C_4  and  C_25
REMARK    2  A    between atoms: C_11  and  C_12
REMARK    3  A    between atoms: C_13  and  C_18
REMARK    4  A    between atoms: C_15  and  O_21
REMARK    5  A    between atoms: C_16  and  O_23
REMARK    6  A    between atoms: C_25  and  N_26
REMARK                            x       y       z     vdW  Elec       q    Type
REMARK                         _______ _______ _______ _____ _____    ______ ____
ROOT
ATOM      1  O   UNL     1      37.811 -18.761 -22.342  0.00  0.00    -0.269 OA
ATOM      2  N   UNL     1      35.886 -19.655 -21.391  0.00  0.00    -0.231 N 
ATOM      3  C   UNL     1      35.481 -21.254 -19.749  0.00  0.00    +0.016 C 
ATOM      4  C   UNL     1      34.385 -22.765 -18.265  0.00  0.00    -0.043 C 
ATOM      5  C   UNL     1      34.239 -20.843 -20.250  0.00  0.00    +0.016 C 
ATOM      6  C   UNL     1      36.585 -20.520 -20.434  0.00  0.00    +0.072 C 
ATOM      7  C   UNL     1      34.422 -19.800 -21.302  0.00  0.00    +0.072 C 
ATOM      8  C   UNL     1      35.570 -22.213 -18.757  0.00  0.00    -0.005 C 
ATOM      9  C   UNL     1      33.139 -22.353 -18.767  0.00  0.00    -0.006 C 
ATOM     10  C   UNL     1      33.060 -21.383 -19.768  0.00  0.00    +0.001 C 
ATOM     11  C   UNL     1      36.588 -18.864 -22.290  0.00  0.00    +0.259 C 
ENDROOT
BRANCH  11  12
ATOM     12  C   UNL     1      35.803 -18.097 -23.268  0.00  0.00    +0.088 C 
ATOM     13  C   UNL     1      34.891 -15.984 -23.991  0.00  0.00    +0.012 C 
ATOM     14  C   UNL     1      35.634 -16.729 -23.075  0.00  0.00    +0.006 C 
ATOM     15  C   UNL     1      35.233 -18.726 -24.372  0.00  0.00    +0.141 C 
ATOM     16  C   UNL     1      34.320 -16.611 -25.099  0.00  0.00    +0.133 C 
ATOM     17  C   UNL     1      34.490 -17.982 -25.289  0.00  0.00    +0.073 C 
BRANCH  13  18
ATOM     18  C   UNL     1      34.719 -14.517 -23.772  0.00  0.00    +0.025 C 
ATOM     19  C   UNL     1      34.841 -14.126 -22.288  0.00  0.00    +0.005 C 
ATOM     20  C   UNL     1      33.390 -13.989 -24.345  0.00  0.00    +0.005 C 
ENDBRANCH  13  18
BRANCH  15  21
ATOM     21  O   UNL     1      35.387 -20.065 -24.575  0.00  0.00    -0.505 OA
ATOM     22  H   UNL     1      35.890 -20.373 -25.303  0.00  0.00    +0.292 HD
ENDBRANCH  15  21
BRANCH  16  23
ATOM     23  O   UNL     1      33.591 -15.898 -26.003  0.00  0.00    -0.506 OA
ATOM     24  H   UNL     1      32.944 -15.288 -25.707  0.00  0.00    +0.292 HD
ENDBRANCH  16  23
ENDBRANCH  11  12
BRANCH   4  25
ATOM     25  C   UNL     1      34.442 -23.809 -17.193  0.00  0.00    -0.050 C 
BRANCH  25  26
ATOM     26  N   UNL     1      35.119 -23.321 -15.994  0.00  0.00    +0.387 N 
ATOM     27  N   UNL     1      36.834 -23.651 -13.690  0.00  0.00    +0.383 N 
ATOM     28  C   UNL     1      34.665 -24.053 -14.805  0.00  0.00    -0.100 C 
ATOM     29  C   UNL     1      36.576 -23.430 -16.137  0.00  0.00    -0.100 C 
ATOM     30  C   UNL     1      35.377 -23.545 -13.547  0.00  0.00    -0.101 C 
ATOM     31  C   UNL     1      37.288 -22.919 -14.880  0.00  0.00    -0.101 C 
ATOM     32  C   UNL     1      37.511 -23.161 -12.491  0.00  0.00    -0.101 C 
ATOM     33  H   UNL     1      34.881 -22.336 -15.876  0.00  0.00    -0.079 HD
ATOM     34  H   UNL     1      37.074 -24.636 -13.808  0.00  0.00    -0.080 HD
ENDBRANCH  25  26
ENDBRANCH   4  25
TORSDOF 6
ENDMDL
MODEL 4
REMARK VINA RESULT:     -11.9      3.785     10.026
REMARK  Name = 11955716
REMARK  6 active torsions:
REMARK  status: ('A' for Active; 'I' for Inactive)
REMARK    1  A    between atoms: C_4  and  C_25
REMARK    2  A    between atoms: C_11  and  C_12
REMARK    3  A    between atoms: C_13  and  C_18
REMARK    4  A    between atoms: C_15  and  O_21
REMARK    5  A    between atoms: C_16  and  O_23
REMARK    6  A    between atoms: C_25  and  N_26
REMARK                            x       y       z     vdW  Elec       q    Type
REMARK                         _______ _______ _______ _____ _____    ______ ____
ROOT
ATOM      1  O   UNL     1      37.818 -18.628 -22.588  0.00  0.00    -0.269 OA
ATOM      2  N   UNL     1      35.935 -19.529 -21.563  0.00  0.00    -0.231 N 
ATOM      3  C   UNL     1      35.601 -21.113 -19.891  0.00  0.00    +0.016 C 
ATOM      4  C   UNL     1      34.571 -22.618 -18.354  0.00  0.00    -0.043 C 
ATOM      5  C   UNL     1      34.339 -20.719 -20.354  0.00  0.00    +0.016 C 
ATOM      6  C   UNL     1      36.674 -20.376 -20.620  0.00  0.00    +0.072 C 
ATOM      7  C   UNL     1      34.476 -19.687 -21.423  0.00  0.00    +0.072 C 
ATOM      8  C   UNL     1      35.733 -22.060 -18.892  0.00  0.00    -0.005 C 
ATOM      9  C   UNL     1      33.304 -22.224 -18.818  0.00  0.00    -0.006 C 
ATOM     10  C   UNL     1      33.182 -21.266 -19.827  0.00  0.00    +0.001 C 
ATOM     11  C   UNL     1      36.598 -18.741 -22.494  0.00  0.00    +0.259 C 
ENDROOT
BRANCH  11  12
ATOM     12  C   UNL     1      35.773 -17.994 -23.453  0.00  0.00    +0.088 C 
ATOM     13  C   UNL     1      34.821 -15.897 -24.172  0.00  0.00    +0.012 C 
ATOM     14  C   UNL     1      35.601 -16.624 -23.273  0.00  0.00    +0.006 C 
ATOM     15  C   UNL     1      35.169 -18.641 -24.527  0.00  0.00    +0.141 C 
ATOM     16  C   UNL     1      34.215 -16.543 -25.249  0.00  0.00    +0.133 C 
ATOM     17  C   UNL     1      34.388 -17.915 -25.427  0.00  0.00    +0.073 C 
BRANCH  13  18
ATOM     18  C   UNL     1      34.646 -14.428 -23.966  0.00  0.00    +0.025 C 
ATOM     19  C   UNL     1      34.637 -14.039 -22.477  0.00  0.00    +0.005 C 
ATOM     20  C   UNL     1      33.381 -13.885 -24.658  0.00  0.00    +0.005 C 
ENDBRANCH  13  18
BRANCH  15  21
ATOM     21  O   UNL     1      35.325 -19.982 -24.717  0.00  0.00    -0.505 OA
ATOM     22  H   UNL     1      34.730 -20.449 -25.270  0.00  0.00    +0.292 HD
ENDBRANCH  15  21
BRANCH  16  23
ATOM     23  O   UNL     1      33.449 -15.848 -26.136  0.00  0.00    -0.506 OA
ATOM     24  H   UNL     1      33.605 -15.930 -27.056  0.00  0.00    +0.292 HD
ENDBRANCH  16  23
ENDBRANCH  11  12
BRANCH   4  25
ATOM     25  C   UNL     1      34.673 -23.648 -17.273  0.00  0.00    -0.050 C 
BRANCH  25  26
ATOM     26  N   UNL     1      33.691 -23.425 -16.214  0.00  0.00    +0.387 N 
ATOM     27  N   UNL     1      31.706 -24.320 -14.313  0.00  0.00    +0.383 N 
ATOM     28  C   UNL     1      32.353 -23.841 -16.650  0.00  0.00    -0.100 C 
ATOM     29  C   UNL     1      34.075 -24.138 -14.989  0.00  0.00    -0.100 C 
ATOM     30  C   UNL     1      31.322 -23.611 -15.539  0.00  0.00    -0.101 C 
ATOM     31  C   UNL     1      33.046 -23.906 -13.878  0.00  0.00    -0.101 C 
ATOM     32  C   UNL     1      30.724 -24.096 -13.253  0.00  0.00    -0.101 C 
ATOM     33  H   UNL     1      33.669 -22.427 -16.010  0.00  0.00    -0.079 HD
ATOM     34  H   UNL     1      31.729 -25.320 -14.514  0.00  0.00    -0.080 HD
ENDBRANCH  25  26
ENDBRANCH   4  25
TORSDOF 6
ENDMDL
MODEL 5
REMARK VINA RESULT:     -11.7      5.950     11.860
REMARK  Name = 11955716
REMARK  6 active torsions:
REMARK  status: ('A' for Active; 'I' for Inactive)
REMARK    1  A    between atoms: C_4  and  C_25
REMARK    2  A    between atoms: C_11  and  C_12
REMARK    3  A    between atoms: C_13  and  C_18
REMARK    4  A    between atoms: C_15  and  O_21
REMARK    5  A    between atoms: C_16  and  O_23
REMARK    6  A    between atoms: C_25  and  N_26
REMARK                            x       y       z     vdW  Elec       q    Type
REMARK                         _______ _______ _______ _____ _____    ______ ____
ROOT
ATOM      1  O   UNL     1      34.132 -12.425 -26.093  0.00  0.00    -0.269 OA
ATOM      2  N   UNL     1      34.544 -13.565 -24.109  0.00  0.00    -0.231 N 
ATOM      3  C   UNL     1      34.985 -15.788 -23.579  0.00  0.00    +0.016 C 
ATOM      4  C   UNL     1      35.404 -17.799 -22.368  0.00  0.00    -0.043 C 
ATOM      5  C   UNL     1      34.919 -15.075 -22.375  0.00  0.00    +0.016 C 
ATOM      6  C   UNL     1      34.763 -14.874 -24.737  0.00  0.00    +0.072 C 
ATOM      7  C   UNL     1      34.653 -13.631 -22.640  0.00  0.00    +0.072 C 
ATOM      8  C   UNL     1      35.227 -17.149 -23.591  0.00  0.00    -0.005 C 
ATOM      9  C   UNL     1      35.338 -17.085 -21.160  0.00  0.00    -0.006 C 
ATOM     10  C   UNL     1      35.093 -15.710 -21.158  0.00  0.00    +0.001 C 
ATOM     11  C   UNL     1      34.215 -12.451 -24.868  0.00  0.00    +0.259 C 
ENDROOT
BRANCH  11  12
ATOM     12  C   UNL     1      33.930 -11.204 -24.143  0.00  0.00    +0.088 C 
ATOM     13  C   UNL     1      32.613 -10.015 -22.508  0.00  0.00    +0.012 C 
ATOM     14  C   UNL     1      32.900 -11.189 -23.206  0.00  0.00    +0.006 C 
ATOM     15  C   UNL     1      34.674 -10.053 -24.387  0.00  0.00    +0.141 C 
ATOM     16  C   UNL     1      33.357  -8.861 -22.750  0.00  0.00    +0.133 C 
ATOM     17  C   UNL     1      34.388  -8.879 -23.690  0.00  0.00    +0.073 C 
BRANCH  13  18
ATOM     18  C   UNL     1      31.506 -10.013 -21.506  0.00  0.00    +0.025 C 
ATOM     19  C   UNL     1      31.986  -9.603 -20.102  0.00  0.00    +0.005 C 
ATOM     20  C   UNL     1      30.775 -11.367 -21.435  0.00  0.00    +0.005 C 
ENDBRANCH  13  18
BRANCH  15  21
ATOM     21  O   UNL     1      35.685 -10.051 -25.303  0.00  0.00    -0.505 OA
ATOM     22  H   UNL     1      36.452  -9.537 -25.151  0.00  0.00    +0.292 HD
ENDBRANCH  15  21
BRANCH  16  23
ATOM     23  O   UNL     1      33.090  -7.706 -22.079  0.00  0.00    -0.506 OA
ATOM     24  H   UNL     1      32.276  -7.262 -22.215  0.00  0.00    +0.292 HD
ENDBRANCH  16  23
ENDBRANCH  11  12
BRANCH   4  25
ATOM     25  C   UNL     1      35.666 -19.273 -22.341  0.00  0.00    -0.050 C 
BRANCH  25  26
ATOM     26  N   UNL     1      35.198 -19.886 -21.099  0.00  0.00    +0.387 N 
ATOM     27  N   UNL     1      34.238 -22.117 -19.530  0.00  0.00    +0.383 N 
ATOM     28  C   UNL     1      33.828 -20.392 -21.253  0.00  0.00    -0.100 C 
ATOM     29  C   UNL     1      36.098 -20.967 -20.680  0.00  0.00    -0.100 C 
ATOM     30  C   UNL     1      33.337 -21.038 -19.952  0.00  0.00    -0.101 C 
ATOM     31  C   UNL     1      35.609 -21.611 -19.378  0.00  0.00    -0.101 C 
ATOM     32  C   UNL     1      33.771 -22.729 -18.288  0.00  0.00    -0.101 C 
ATOM     33  H   UNL     1      35.197 -19.169 -20.375  0.00  0.00    -0.079 HD
ATOM     34  H   UNL     1      34.240 -22.836 -20.255  0.00  0.00    -0.080 HD
ENDBRANCH  25  26
ENDBRANCH   4  25
TORSDOF 6
ENDMDL
MODEL 6
REMARK VINA RESULT:     -11.7      4.238      8.288
REMARK  Name = 11955716
REMARK  6 active torsions:
REMARK  status: ('A' for Active; 'I' for Inactive)
REMARK    1  A    between atoms: C_4  and  C_25
REMARK    2  A    between atoms: C_11  and  C_12
REMARK    3  A    between atoms: C_13  and  C_18
REMARK    4  A    between atoms: C_15  and  O_21
REMARK    5  A    between atoms: C_16  and  O_23
REMARK    6  A    between atoms: C_25  and  N_26
REMARK                            x       y       z     vdW  Elec       q    Type
REMARK                         _______ _______ _______ _____ _____    ______ ____
ROOT
ATOM      1  O   UNL     1      35.698 -18.856 -24.662  0.00  0.00    -0.269 OA
ATOM      2  N   UNL     1      35.143 -16.984 -23.400  0.00  0.00    -0.231 N 
ATOM      3  C   UNL     1      34.547 -14.795 -23.922  0.00  0.00    +0.016 C 
ATOM      4  C   UNL     1      33.960 -12.491 -23.740  0.00  0.00    -0.043 C 
ATOM      5  C   UNL     1      34.613 -14.890 -22.526  0.00  0.00    +0.016 C 
ATOM      6  C   UNL     1      34.867 -16.112 -24.548  0.00  0.00    +0.072 C 
ATOM      7  C   UNL     1      34.977 -16.278 -22.116  0.00  0.00    +0.072 C 
ATOM      8  C   UNL     1      34.221 -13.604 -24.543  0.00  0.00    -0.005 C 
ATOM      9  C   UNL     1      34.026 -12.586 -22.340  0.00  0.00    -0.006 C 
ATOM     10  C   UNL     1      34.355 -13.794 -21.722  0.00  0.00    +0.001 C 
ATOM     11  C   UNL     1      35.568 -18.293 -23.578  0.00  0.00    +0.259 C 
ENDROOT
BRANCH  11  12
ATOM     12  C   UNL     1      35.904 -19.061 -22.371  0.00  0.00    +0.088 C 
ATOM     13  C   UNL     1      35.191 -20.490 -20.562  0.00  0.00    +0.012 C 
ATOM     14  C   UNL     1      34.893 -19.755 -21.710  0.00  0.00    +0.006 C 
ATOM     15  C   UNL     1      37.210 -19.099 -21.892  0.00  0.00    +0.141 C 
ATOM     16  C   UNL     1      36.500 -20.529 -20.080  0.00  0.00    +0.133 C 
ATOM     17  C   UNL     1      37.509 -19.834 -20.744  0.00  0.00    +0.073 C 
BRANCH  13  18
ATOM     18  C   UNL     1      34.098 -21.229 -19.863  0.00  0.00    +0.025 C 
ATOM     19  C   UNL     1      34.279 -22.756 -19.939  0.00  0.00    +0.005 C 
ATOM     20  C   UNL     1      32.701 -20.840 -20.382  0.00  0.00    +0.005 C 
ENDBRANCH  13  18
BRANCH  15  21
ATOM     21  O   UNL     1      38.211 -18.424 -22.527  0.00  0.00    -0.505 OA
ATOM     22  H   UNL     1      38.087 -17.530 -22.778  0.00  0.00    +0.292 HD
ENDBRANCH  15  21
BRANCH  16  23
ATOM     23  O   UNL     1      36.808 -21.241 -18.960  0.00  0.00    -0.506 OA
ATOM     24  H   UNL     1      36.387 -21.042 -18.147  0.00  0.00    +0.292 HD
ENDBRANCH  16  23
ENDBRANCH  11  12
BRANCH   4  25
ATOM     25  C   UNL     1      33.607 -11.182 -24.376  0.00  0.00    -0.050 C 
BRANCH  25  26
ATOM     26  N   UNL     1      33.525 -10.104 -23.394  0.00  0.00    +0.387 N 
ATOM     27  N   UNL     1      32.768  -7.447 -22.543  0.00  0.00    +0.383 N 
ATOM     28  C   UNL     1      34.253  -8.918 -23.861  0.00  0.00    -0.100 C 
ATOM     29  C   UNL     1      32.126  -9.765 -23.107  0.00  0.00    -0.100 C 
ATOM     30  C   UNL     1      34.166  -7.785 -22.832  0.00  0.00    -0.101 C 
ATOM     31  C   UNL     1      32.038  -8.634 -22.077  0.00  0.00    -0.101 C 
ATOM     32  C   UNL     1      32.686  -6.369 -21.559  0.00  0.00    -0.101 C 
ATOM     33  H   UNL     1      33.959 -10.430 -22.531  0.00  0.00    -0.079 HD
ATOM     34  H   UNL     1      32.331  -7.120 -23.405  0.00  0.00    -0.080 HD
ENDBRANCH  25  26
ENDBRANCH   4  25
TORSDOF 6
ENDMDL
MODEL 7
REMARK VINA RESULT:     -11.1      1.927      3.652
REMARK  Name = 11955716
REMARK  6 active torsions:
REMARK  status: ('A' for Active; 'I' for Inactive)
REMARK    1  A    between atoms: C_4  and  C_25
REMARK    2  A    between atoms: C_11  and  C_12
REMARK    3  A    between atoms: C_13  and  C_18
REMARK    4  A    between atoms: C_15  and  O_21
REMARK    5  A    between atoms: C_16  and  O_23
REMARK    6  A    between atoms: C_25  and  N_26
REMARK                            x       y       z     vdW  Elec       q    Type
REMARK                         _______ _______ _______ _____ _____    ______ ____
ROOT
ATOM      1  O   UNL     1      32.143 -23.888 -16.824  0.00  0.00    -0.269 OA
ATOM      2  N   UNL     1      34.045 -22.791 -17.588  0.00  0.00    -0.231 N 
ATOM      3  C   UNL     1      34.586 -21.660 -19.549  0.00  0.00    +0.016 C 
ATOM      4  C   UNL     1      35.784 -20.471 -21.235  0.00  0.00    -0.043 C 
ATOM      5  C   UNL     1      35.734 -21.678 -18.746  0.00  0.00    +0.016 C 
ATOM      6  C   UNL     1      33.458 -22.351 -18.859  0.00  0.00    +0.072 C 
ATOM      7  C   UNL     1      35.455 -22.378 -17.457  0.00  0.00    +0.072 C 
ATOM      8  C   UNL     1      34.596 -21.060 -20.795  0.00  0.00    -0.005 C 
ATOM      9  C   UNL     1      36.935 -20.489 -20.429  0.00  0.00    -0.006 C 
ATOM     10  C   UNL     1      36.914 -21.097 -19.172  0.00  0.00    +0.001 C 
ATOM     11  C   UNL     1      33.319 -23.558 -16.689  0.00  0.00    +0.259 C 
ENDROOT
BRANCH  11  12
ATOM     12  C   UNL     1      34.018 -24.025 -15.484  0.00  0.00    +0.088 C 
ATOM     13  C   UNL     1      35.899 -25.167 -14.494  0.00  0.00    +0.012 C 
ATOM     14  C   UNL     1      35.220 -24.714 -15.625  0.00  0.00    +0.006 C 
ATOM     15  C   UNL     1      33.492 -23.786 -14.218  0.00  0.00    +0.141 C 
ATOM     16  C   UNL     1      35.374 -24.928 -13.224  0.00  0.00    +0.133 C 
ATOM     17  C   UNL     1      34.170 -24.238 -13.085  0.00  0.00    +0.073 C 
BRANCH  13  18
ATOM     18  C   UNL     1      37.188 -25.904 -14.660  0.00  0.00    +0.025 C 
ATOM     19  C   UNL     1      38.360 -24.968 -15.006  0.00  0.00    +0.005 C 
ATOM     20  C   UNL     1      37.089 -27.030 -15.707  0.00  0.00    +0.005 C 
ENDBRANCH  13  18
BRANCH  15  21
ATOM     21  O   UNL     1      32.315 -23.114 -14.062  0.00  0.00    -0.505 OA
ATOM     22  H   UNL     1      32.309 -22.268 -13.661  0.00  0.00    +0.292 HD
ENDBRANCH  15  21
BRANCH  16  23
ATOM     23  O   UNL     1      36.024 -25.363 -12.108  0.00  0.00    -0.506 OA
ATOM     24  H   UNL     1      35.748 -26.150 -11.682  0.00  0.00    +0.292 HD
ENDBRANCH  16  23
ENDBRANCH  11  12
BRANCH   4  25
ATOM     25  C   UNL     1      35.833 -19.814 -22.579  0.00  0.00    -0.050 C 
BRANCH  25  26
ATOM     26  N   UNL     1      35.200 -18.497 -22.565  0.00  0.00    +0.387 N 
ATOM     27  N   UNL     1      35.251 -15.612 -22.743  0.00  0.00    +0.383 N 
ATOM     28  C   UNL     1      35.731 -17.676 -21.471  0.00  0.00    -0.100 C 
ATOM     29  C   UNL     1      35.385 -17.816 -23.852  0.00  0.00    -0.100 C 
ATOM     30  C   UNL     1      35.069 -16.294 -21.456  0.00  0.00    -0.101 C 
ATOM     31  C   UNL     1      34.721 -16.435 -23.839  0.00  0.00    -0.101 C 
ATOM     32  C   UNL     1      34.616 -14.296 -22.730  0.00  0.00    -0.101 C 
ATOM     33  H   UNL     1      34.200 -18.630 -22.413  0.00  0.00    -0.079 HD
ATOM     34  H   UNL     1      36.251 -15.478 -22.897  0.00  0.00    -0.080 HD
ENDBRANCH  25  26
ENDBRANCH   4  25
TORSDOF 6
ENDMDL
MODEL 8
REMARK VINA RESULT:     -11.0      1.677      3.607
REMARK  Name = 11955716
REMARK  6 active torsions:
REMARK  status: ('A' for Active; 'I' for Inactive)
REMARK    1  A    between atoms: C_4  and  C_25
REMARK    2  A    between atoms: C_11  and  C_12
REMARK    3  A    between atoms: C_13  and  C_18
REMARK    4  A    between atoms: C_15  and  O_21
REMARK    5  A    between atoms: C_16  and  O_23
REMARK    6  A    between atoms: C_25  and  N_26
REMARK                            x       y       z     vdW  Elec       q    Type
REMARK                         _______ _______ _______ _____ _____    ______ ____
ROOT
ATOM      1  O   UNL     1      31.918 -22.993 -18.019  0.00  0.00    -0.269 OA
ATOM      2  N   UNL     1      33.904 -21.998 -18.706  0.00  0.00    -0.231 N 
ATOM      3  C   UNL     1      34.543 -20.783 -20.586  0.00  0.00    +0.016 C 
ATOM      4  C   UNL     1      35.839 -19.580 -22.186  0.00  0.00    -0.043 C 
ATOM      5  C   UNL     1      35.680 -20.943 -19.783  0.00  0.00    +0.016 C 
ATOM      6  C   UNL     1      33.361 -21.429 -19.945  0.00  0.00    +0.072 C 
ATOM      7  C   UNL     1      35.340 -21.703 -18.545  0.00  0.00    +0.072 C 
ATOM      8  C   UNL     1      34.607 -20.104 -21.788  0.00  0.00    -0.005 C 
ATOM      9  C   UNL     1      36.980 -19.740 -21.381  0.00  0.00    -0.006 C 
ATOM     10  C   UNL     1      36.905 -20.427 -20.168  0.00  0.00    +0.001 C 
ATOM     11  C   UNL     1      33.115 -22.765 -17.861  0.00  0.00    +0.259 C 
ENDROOT
BRANCH  11  12
ATOM     12  C   UNL     1      33.768 -23.363 -16.689  0.00  0.00    +0.088 C 
ATOM     13  C   UNL     1      35.787 -23.795 -15.440  0.00  0.00    +0.012 C 
ATOM     14  C   UNL     1      35.148 -23.233 -16.545  0.00  0.00    +0.006 C 
ATOM     15  C   UNL     1      33.025 -24.052 -15.734  0.00  0.00    +0.141 C 
ATOM     16  C   UNL     1      35.045 -24.485 -14.481  0.00  0.00    +0.133 C 
ATOM     17  C   UNL     1      33.664 -24.614 -14.628  0.00  0.00    +0.073 C 
BRANCH  13  18
ATOM     18  C   UNL     1      37.267 -23.647 -15.298  0.00  0.00    +0.025 C 
ATOM     19  C   UNL     1      37.865 -22.695 -16.348  0.00  0.00    +0.005 C 
ATOM     20  C   UNL     1      37.998 -25.002 -15.341  0.00  0.00    +0.005 C 
ENDBRANCH  13  18
BRANCH  15  21
ATOM     21  O   UNL     1      31.675 -24.190 -15.860  0.00  0.00    -0.505 OA
ATOM     22  H   UNL     1      31.107 -23.493 -15.597  0.00  0.00    +0.292 HD
ENDBRANCH  15  21
BRANCH  16  23
ATOM     23  O   UNL     1      35.654 -25.041 -13.396  0.00  0.00    -0.506 OA
ATOM     24  H   UNL     1      35.361 -24.825 -12.533  0.00  0.00    +0.292 HD
ENDBRANCH  16  23
ENDBRANCH  11  12
BRANCH   4  25
ATOM     25  C   UNL     1      35.948 -18.840 -23.483  0.00  0.00    -0.050 C 
BRANCH  25  26
ATOM     26  N   UNL     1      35.174 -17.600 -23.470  0.00  0.00    +0.387 N 
ATOM     27  N   UNL     1      34.895 -14.736 -23.741  0.00  0.00    +0.383 N 
ATOM     28  C   UNL     1      35.677 -16.685 -22.438  0.00  0.00    -0.100 C 
ATOM     29  C   UNL     1      35.204 -16.953 -24.787  0.00  0.00    -0.100 C 
ATOM     30  C   UNL     1      34.869 -15.383 -22.424  0.00  0.00    -0.101 C 
ATOM     31  C   UNL     1      34.394 -15.652 -24.774  0.00  0.00    -0.101 C 
ATOM     32  C   UNL     1      34.120 -13.497 -23.727  0.00  0.00    -0.101 C 
ATOM     33  H   UNL     1      34.207 -17.835 -23.249  0.00  0.00    -0.079 HD
ATOM     34  H   UNL     1      35.863 -14.500 -23.963  0.00  0.00    -0.080 HD
ENDBRANCH  25  26
ENDBRANCH   4  25
TORSDOF 6
ENDMDL
MODEL 9
REMARK VINA RESULT:     -10.5      5.828     11.933
REMARK  Name = 11955716
REMARK  6 active torsions:
REMARK  status: ('A' for Active; 'I' for Inactive)
REMARK    1  A    between atoms: C_4  and  C_25
REMARK    2  A    between atoms: C_11  and  C_12
REMARK    3  A    between atoms: C_13  and  C_18
REMARK    4  A    between atoms: C_15  and  O_21
REMARK    5  A    between atoms: C_16  and  O_23
REMARK    6  A    between atoms: C_25  and  N_26
REMARK                            x       y       z     vdW  Elec       q    Type
REMARK                         _______ _______ _______ _____ _____    ______ ____
ROOT
ATOM      1  O   UNL     1      32.538 -12.049 -19.680  0.00  0.00    -0.269 OA
ATOM      2  N   UNL     1      33.357 -13.257 -21.490  0.00  0.00    -0.231 N 
ATOM      3  C   UNL     1      34.497 -15.274 -21.710  0.00  0.00    +0.016 C 
ATOM      4  C   UNL     1      35.674 -17.135 -22.626  0.00  0.00    -0.043 C 
ATOM      5  C   UNL     1      34.375 -14.720 -22.991  0.00  0.00    +0.016 C 
ATOM      6  C   UNL     1      33.853 -14.388 -20.697  0.00  0.00    +0.072 C 
ATOM      7  C   UNL     1      33.635 -13.425 -22.928  0.00  0.00    +0.072 C 
ATOM      8  C   UNL     1      35.143 -16.480 -21.512  0.00  0.00    -0.005 C 
ATOM      9  C   UNL     1      35.551 -16.580 -23.911  0.00  0.00    -0.006 C 
ATOM     10  C   UNL     1      34.897 -15.361 -24.100  0.00  0.00    +0.001 C 
ATOM     11  C   UNL     1      32.759 -12.162 -20.883  0.00  0.00    +0.259 C 
ENDROOT
BRANCH  11  12
ATOM     12  C   UNL     1      32.372 -11.040 -21.750  0.00  0.00    +0.088 C 
ATOM     13  C   UNL     1      33.022  -9.226 -23.202  0.00  0.00    +0.012 C 
ATOM     14  C   UNL     1      33.369 -10.295 -22.376  0.00  0.00    +0.006 C 
ATOM     15  C   UNL     1      31.031 -10.722 -21.946  0.00  0.00    +0.141 C 
ATOM     16  C   UNL     1      31.679  -8.906 -23.401  0.00  0.00    +0.133 C 
ATOM     17  C   UNL     1      30.683  -9.653 -22.773  0.00  0.00    +0.073 C 
BRANCH  13  18
ATOM     18  C   UNL     1      34.101  -8.436 -23.867  0.00  0.00    +0.025 C 
ATOM     19  C   UNL     1      35.274  -9.318 -24.332  0.00  0.00    +0.005 C 
ATOM     20  C   UNL     1      34.624  -7.293 -22.978  0.00  0.00    +0.005 C 
ENDBRANCH  13  18
BRANCH  15  21
ATOM     21  O   UNL     1      30.043 -11.440 -21.340  0.00  0.00    -0.505 OA
ATOM     22  H   UNL     1      29.341 -10.997 -20.907  0.00  0.00    +0.292 HD
ENDBRANCH  15  21
BRANCH  16  23
ATOM     23  O   UNL     1      31.323  -7.864 -24.204  0.00  0.00    -0.506 OA
ATOM     24  H   UNL     1      31.562  -6.989 -23.970  0.00  0.00    +0.292 HD
ENDBRANCH  16  23
ENDBRANCH  11  12
BRANCH   4  25
ATOM     25  C   UNL     1      36.383 -18.443 -22.451  0.00  0.00    -0.050 C 
BRANCH  25  26
ATOM     26  N   UNL     1      35.836 -19.213 -21.336  0.00  0.00    +0.387 N 
ATOM     27  N   UNL     1      34.998 -21.675 -20.073  0.00  0.00    +0.383 N 
ATOM     28  C   UNL     1      34.592 -19.887 -21.730  0.00  0.00    -0.100 C 
ATOM     29  C   UNL     1      36.815 -20.192 -20.849  0.00  0.00    -0.100 C 
ATOM     30  C   UNL     1      34.019 -20.698 -20.563  0.00  0.00    -0.101 C 
ATOM     31  C   UNL     1      36.243 -21.001 -19.680  0.00  0.00    -0.101 C 
ATOM     32  C   UNL     1      34.452 -22.444 -18.957  0.00  0.00    -0.101 C 
ATOM     33  H   UNL     1      35.625 -18.565 -20.578  0.00  0.00    -0.079 HD
ATOM     34  H   UNL     1      35.210 -22.325 -20.830  0.00  0.00    -0.080 HD
ENDBRANCH  25  26
ENDBRANCH   4  25
TORSDOF 6
ENDMDL
