MODEL 1
REMARK VINA RESULT:     -11.6      0.000      0.000
REMARK  Name = 24748573
REMARK  3 active torsions:
REMARK  status: ('A' for Active; 'I' for Inactive)
REMARK    1  A    between atoms: N_2  and  C_18
REMARK    2  A    between atoms: C_13  and  C_25
REMARK    3  A    between atoms: C_25  and  O_26
REMARK                            x       y       z     vdW  Elec       q    Type
REMARK                         _______ _______ _______ _____ _____    ______ ____
ROOT
ATOM      1  N   UNL     1      34.733 -23.179 -17.176  0.00  0.00    -0.391 NA
ATOM      2  N   UNL     1      33.022 -22.521 -18.645  0.00  0.00    -0.288 N 
ATOM      3  N   UNL     1      30.496 -23.924 -14.506  0.00  0.00    -0.243 NA
ATOM      4  C   UNL     1      34.257 -23.987 -14.948  0.00  0.00    +0.098 C 
ATOM      5  C   UNL     1      32.855 -23.811 -15.189  0.00  0.00    +0.011 C 
ATOM      6  C   UNL     1      32.430 -23.317 -16.435  0.00  0.00    +0.044 C 
ATOM      7  C   UNL     1      35.150 -23.650 -15.991  0.00  0.00    +0.119 C 
ATOM      8  C   UNL     1      33.407 -23.023 -17.376  0.00  0.00    +0.183 C 
ATOM      9  C   UNL     1      34.800 -24.477 -13.735  0.00  0.00    -0.015 C 
ATOM     10  C   UNL     1      36.519 -23.810 -15.791  0.00  0.00    +0.035 C 
ATOM     11  C   UNL     1      31.068 -23.131 -16.706  0.00  0.00    +0.024 C 
ATOM     12  C   UNL     1      31.821 -24.092 -14.275  0.00  0.00    +0.095 C 
ATOM     13  C   UNL     1      37.035 -24.293 -14.590  0.00  0.00    +0.077 C 
ATOM     14  C   UNL     1      36.174 -24.627 -13.559  0.00  0.00    +0.003 C 
ATOM     15  C   UNL     1      30.154 -23.448 -15.719  0.00  0.00    +0.099 C 
ATOM     16  H   UNL     1      32.139 -22.836 -18.945  0.00  0.00    +0.155 HD
ENDROOT
BRANCH   2  18
ATOM     17 CL   UNL     1      37.398 -20.605 -20.499  0.00  0.00    -0.082 Cl
ATOM     18  C   UNL     1      33.657 -21.664 -19.556  0.00  0.00    +0.051 C 
ATOM     19  C   UNL     1      35.049 -21.570 -19.571  0.00  0.00    +0.026 C 
ATOM     20  C   UNL     1      32.898 -20.909 -20.450  0.00  0.00    +0.015 C 
ATOM     21  C   UNL     1      35.681 -20.721 -20.480  0.00  0.00    +0.059 C 
ATOM     22  C   UNL     1      33.530 -20.060 -21.358  0.00  0.00    +0.002 C 
ATOM     23  C   UNL     1      34.921 -19.966 -21.373  0.00  0.00    +0.011 C 
ENDBRANCH   2  18
BRANCH  13  25
ATOM     24  O   UNL     1      39.046 -24.675 -13.352  0.00  0.00    -0.245 OA
ATOM     25  C   UNL     1      38.471 -24.443 -14.421  0.00  0.00    +0.338 C 
BRANCH  25  26
ATOM     26  O   UNL     1      39.152 -24.302 -15.592  0.00  0.00    -0.477 OA
ATOM     27  H   UNL     1      40.000 -23.904 -15.596  0.00  0.00    +0.295 HD
ENDBRANCH  25  26
ENDBRANCH  13  25
TORSDOF 3
ENDMDL
MODEL 2
REMARK VINA RESULT:     -11.4      1.165      1.780
REMARK  Name = 24748573
REMARK  3 active torsions:
REMARK  status: ('A' for Active; 'I' for Inactive)
REMARK    1  A    between atoms: N_2  and  C_18
REMARK    2  A    between atoms: C_13  and  C_25
REMARK    3  A    between atoms: C_25  and  O_26
REMARK                            x       y       z     vdW  Elec       q    Type
REMARK                         _______ _______ _______ _____ _____    ______ ____
ROOT
ATOM      1  N   UNL     1      35.108 -23.363 -16.441  0.00  0.00    -0.391 NA
ATOM      2  N   UNL     1      33.823 -22.740 -18.305  0.00  0.00    -0.288 N 
ATOM      3  N   UNL     1      30.335 -23.733 -14.793  0.00  0.00    -0.243 NA
ATOM      4  C   UNL     1      34.087 -23.988 -14.341  0.00  0.00    +0.098 C 
ATOM      5  C   UNL     1      32.790 -23.771 -14.912  0.00  0.00    +0.011 C 
ATOM      6  C   UNL     1      32.693 -23.349 -16.250  0.00  0.00    +0.044 C 
ATOM      7  C   UNL     1      35.214 -23.765 -15.166  0.00  0.00    +0.119 C 
ATOM      8  C   UNL     1      33.875 -23.166 -16.954  0.00  0.00    +0.183 C 
ATOM      9  C   UNL     1      34.307 -24.413 -13.008  0.00  0.00    -0.015 C 
ATOM     10  C   UNL     1      36.488 -23.969 -14.642  0.00  0.00    +0.035 C 
ATOM     11  C   UNL     1      31.443 -23.125 -16.843  0.00  0.00    +0.024 C 
ATOM     12  C   UNL     1      31.559 -23.940 -14.250  0.00  0.00    +0.095 C 
ATOM     13  C   UNL     1      36.686 -24.386 -13.327  0.00  0.00    +0.077 C 
ATOM     14  C   UNL     1      35.592 -24.609 -12.507  0.00  0.00    +0.003 C 
ATOM     15  C   UNL     1      30.310 -23.331 -16.079  0.00  0.00    +0.099 C 
ATOM     16  H   UNL     1      33.015 -23.037 -18.784  0.00  0.00    +0.155 HD
ENDROOT
BRANCH   2  18
ATOM     17 CL   UNL     1      34.478 -19.611 -22.309  0.00  0.00    -0.082 Cl
ATOM     18  C   UNL     1      34.699 -21.979 -19.093  0.00  0.00    +0.051 C 
ATOM     19  C   UNL     1      34.210 -21.260 -20.184  0.00  0.00    +0.026 C 
ATOM     20  C   UNL     1      36.059 -21.938 -18.783  0.00  0.00    +0.015 C 
ATOM     21  C   UNL     1      35.081 -20.499 -20.964  0.00  0.00    +0.059 C 
ATOM     22  C   UNL     1      36.929 -21.178 -19.564  0.00  0.00    +0.002 C 
ATOM     23  C   UNL     1      36.440 -20.458 -20.654  0.00  0.00    +0.011 C 
ENDBRANCH   2  18
BRANCH  13  25
ATOM     24  O   UNL     1      39.062 -24.593 -13.503  0.00  0.00    -0.245 OA
ATOM     25  C   UNL     1      38.033 -24.586 -12.819  0.00  0.00    +0.338 C 
BRANCH  25  26
ATOM     26  O   UNL     1      38.059 -24.768 -11.470  0.00  0.00    -0.477 OA
ATOM     27  H   UNL     1      38.703 -24.327 -10.951  0.00  0.00    +0.295 HD
ENDBRANCH  25  26
ENDBRANCH  13  25
TORSDOF 3
ENDMDL
MODEL 3
REMARK VINA RESULT:     -11.3      1.532      2.188
REMARK  Name = 24748573
REMARK  3 active torsions:
REMARK  status: ('A' for Active; 'I' for Inactive)
REMARK    1  A    between atoms: N_2  and  C_18
REMARK    2  A    between atoms: C_13  and  C_25
REMARK    3  A    between atoms: C_25  and  O_26
REMARK                            x       y       z     vdW  Elec       q    Type
REMARK                         _______ _______ _______ _____ _____    ______ ____
ROOT
ATOM      1  N   UNL     1      35.990 -23.827 -16.446  0.00  0.00    -0.391 NA
ATOM      2  N   UNL     1      34.165 -22.932 -17.622  0.00  0.00    -0.288 N 
ATOM      3  N   UNL     1      32.194 -24.011 -13.101  0.00  0.00    -0.243 NA
ATOM      4  C   UNL     1      35.786 -24.580 -14.159  0.00  0.00    +0.098 C 
ATOM      5  C   UNL     1      34.401 -24.214 -14.166  0.00  0.00    +0.011 C 
ATOM      6  C   UNL     1      33.846 -23.657 -15.332  0.00  0.00    +0.044 C 
ATOM      7  C   UNL     1      36.531 -24.359 -15.340  0.00  0.00    +0.119 C 
ATOM      8  C   UNL     1      34.683 -23.491 -16.426  0.00  0.00    +0.183 C 
ATOM      9  C   UNL     1      36.452 -25.148 -13.044  0.00  0.00    -0.015 C 
ATOM     10  C   UNL     1      37.880 -24.705 -15.366  0.00  0.00    +0.035 C 
ATOM     11  C   UNL     1      32.495 -23.286 -15.378  0.00  0.00    +0.024 C 
ATOM     12  C   UNL     1      33.504 -24.358 -13.090  0.00  0.00    +0.095 C 
ATOM     13  C   UNL     1      38.518 -25.262 -14.260  0.00  0.00    +0.077 C 
ATOM     14  C   UNL     1      37.802 -25.485 -13.096  0.00  0.00    +0.003 C 
ATOM     15  C   UNL     1      31.723 -23.483 -14.248  0.00  0.00    +0.099 C 
ATOM     16  H   UNL     1      33.209 -23.121 -17.767  0.00  0.00    +0.155 HD
ENDROOT
BRANCH   2  18
ATOM     17 CL   UNL     1      33.536 -20.022 -21.792  0.00  0.00    -0.082 Cl
ATOM     18  C   UNL     1      34.750 -22.162 -18.638  0.00  0.00    +0.051 C 
ATOM     19  C   UNL     1      33.946 -21.549 -19.600  0.00  0.00    +0.026 C 
ATOM     20  C   UNL     1      36.136 -22.006 -18.686  0.00  0.00    +0.015 C 
ATOM     21  C   UNL     1      34.527 -20.780 -20.608  0.00  0.00    +0.059 C 
ATOM     22  C   UNL     1      36.716 -21.238 -19.695  0.00  0.00    +0.002 C 
ATOM     23  C   UNL     1      35.912 -20.624 -20.655  0.00  0.00    +0.011 C 
ENDBRANCH   2  18
BRANCH  13  25
ATOM     24  O   UNL     1      40.859 -24.903 -13.923  0.00  0.00    -0.245 OA
ATOM     25  C   UNL     1      39.929 -25.608 -14.329  0.00  0.00    +0.338 C 
BRANCH  25  26
ATOM     26  O   UNL     1      40.140 -26.825 -14.900  0.00  0.00    -0.477 OA
ATOM     27  H   UNL     1      39.904 -26.969 -15.796  0.00  0.00    +0.295 HD
ENDBRANCH  25  26
ENDBRANCH  13  25
TORSDOF 3
ENDMDL
MODEL 4
REMARK VINA RESULT:     -10.9      7.935     11.065
REMARK  Name = 24748573
REMARK  3 active torsions:
REMARK  status: ('A' for Active; 'I' for Inactive)
REMARK    1  A    between atoms: N_2  and  C_18
REMARK    2  A    between atoms: C_13  and  C_25
REMARK    3  A    between atoms: C_25  and  O_26
REMARK                            x       y       z     vdW  Elec       q    Type
REMARK                         _______ _______ _______ _____ _____    ______ ____
ROOT
ATOM      1  N   UNL     1      34.522 -14.971 -22.235  0.00  0.00    -0.391 NA
ATOM      2  N   UNL     1      33.455 -12.938 -22.730  0.00  0.00    -0.288 N 
ATOM      3  N   UNL     1      33.798 -15.175 -27.242  0.00  0.00    -0.243 NA
ATOM      4  C   UNL     1      35.027 -16.595 -23.952  0.00  0.00    +0.098 C 
ATOM      5  C   UNL     1      34.446 -15.730 -24.936  0.00  0.00    +0.011 C 
ATOM      6  C   UNL     1      33.913 -14.493 -24.531  0.00  0.00    +0.044 C 
ATOM      7  C   UNL     1      35.033 -16.154 -22.609  0.00  0.00    +0.119 C 
ATOM      8  C   UNL     1      33.981 -14.175 -23.182  0.00  0.00    +0.183 C 
ATOM      9  C   UNL     1      35.593 -17.861 -24.243  0.00  0.00    -0.015 C 
ATOM     10  C   UNL     1      35.592 -16.970 -21.629  0.00  0.00    +0.035 C 
ATOM     11  C   UNL     1      33.336 -13.620 -25.463  0.00  0.00    +0.024 C 
ATOM     12  C   UNL     1      34.349 -15.997 -26.315  0.00  0.00    +0.095 C 
ATOM     13  C   UNL     1      36.144 -18.213 -21.934  0.00  0.00    +0.077 C 
ATOM     14  C   UNL     1      36.145 -18.660 -23.244  0.00  0.00    +0.003 C 
ATOM     15  C   UNL     1      33.306 -14.006 -26.790  0.00  0.00    +0.099 C 
ATOM     16  H   UNL     1      33.501 -12.219 -23.400  0.00  0.00    +0.155 HD
ENDROOT
BRANCH   2  18
ATOM     17 CL   UNL     1      31.724  -9.135 -19.765  0.00  0.00    -0.082 Cl
ATOM     18  C   UNL     1      32.882 -12.542 -21.512  0.00  0.00    +0.051 C 
ATOM     19  C   UNL     1      32.621 -11.193 -21.271  0.00  0.00    +0.026 C 
ATOM     20  C   UNL     1      32.569 -13.497 -20.544  0.00  0.00    +0.015 C 
ATOM     21  C   UNL     1      32.047 -10.799 -20.062  0.00  0.00    +0.059 C 
ATOM     22  C   UNL     1      31.996 -13.102 -19.335  0.00  0.00    +0.002 C 
ATOM     23  C   UNL     1      31.735 -11.753 -19.095  0.00  0.00    +0.011 C 
ENDBRANCH   2  18
BRANCH  13  25
ATOM     24  O   UNL     1      37.799 -18.834 -20.322  0.00  0.00    -0.245 OA
ATOM     25  C   UNL     1      36.715 -19.036 -20.880  0.00  0.00    +0.338 C 
BRANCH  25  26
ATOM     26  O   UNL     1      35.916 -20.088 -20.550  0.00  0.00    -0.477 OA
ATOM     27  H   UNL     1      35.302 -20.007 -19.847  0.00  0.00    +0.295 HD
ENDBRANCH  25  26
ENDBRANCH  13  25
TORSDOF 3
ENDMDL
MODEL 5
REMARK VINA RESULT:     -10.4      3.648      6.910
REMARK  Name = 24748573
REMARK  3 active torsions:
REMARK  status: ('A' for Active; 'I' for Inactive)
REMARK    1  A    between atoms: N_2  and  C_18
REMARK    2  A    between atoms: C_13  and  C_25
REMARK    3  A    between atoms: C_25  and  O_26
REMARK                            x       y       z     vdW  Elec       q    Type
REMARK                         _______ _______ _______ _____ _____    ______ ____
ROOT
ATOM      1  N   UNL     1      33.893 -23.158 -17.407  0.00  0.00    -0.391 NA
ATOM      2  N   UNL     1      33.659 -24.516 -15.505  0.00  0.00    -0.288 N 
ATOM      3  N   UNL     1      38.556 -23.289 -15.437  0.00  0.00    -0.243 NA
ATOM      4  C   UNL     1      36.018 -22.184 -18.023  0.00  0.00    +0.098 C 
ATOM      5  C   UNL     1      36.627 -22.804 -16.883  0.00  0.00    +0.011 C 
ATOM      6  C   UNL     1      35.837 -23.593 -16.028  0.00  0.00    +0.044 C 
ATOM      7  C   UNL     1      34.636 -22.403 -18.230  0.00  0.00    +0.119 C 
ATOM      8  C   UNL     1      34.492 -23.730 -16.341  0.00  0.00    +0.183 C 
ATOM      9  C   UNL     1      36.713 -21.371 -18.951  0.00  0.00    -0.015 C 
ATOM     10  C   UNL     1      34.014 -21.817 -19.329  0.00  0.00    +0.035 C 
ATOM     11  C   UNL     1      36.397 -24.214 -14.904  0.00  0.00    +0.024 C 
ATOM     12  C   UNL     1      37.983 -22.702 -16.516  0.00  0.00    +0.095 C 
ATOM     13  C   UNL     1      34.713 -21.019 -20.232  0.00  0.00    +0.077 C 
ATOM     14  C   UNL     1      36.067 -20.795 -20.043  0.00  0.00    +0.003 C 
ATOM     15  C   UNL     1      37.745 -24.031 -14.658  0.00  0.00    +0.099 C 
ATOM     16  H   UNL     1      34.131 -25.255 -15.057  0.00  0.00    +0.155 HD
ENDROOT
BRANCH   2  18
ATOM     17 CL   UNL     1      29.032 -22.616 -16.614  0.00  0.00    -0.082 Cl
ATOM     18  C   UNL     1      32.294 -24.444 -15.192  0.00  0.00    +0.051 C 
ATOM     19  C   UNL     1      31.442 -23.655 -15.967  0.00  0.00    +0.026 C 
ATOM     20  C   UNL     1      31.786 -25.163 -14.110  0.00  0.00    +0.015 C 
ATOM     21  C   UNL     1      30.083 -23.587 -15.659  0.00  0.00    +0.059 C 
ATOM     22  C   UNL     1      30.427 -25.094 -13.802  0.00  0.00    +0.002 C 
ATOM     23  C   UNL     1      29.576 -24.307 -14.577  0.00  0.00    +0.011 C 
ENDBRANCH   2  18
BRANCH  13  25
ATOM     24  O   UNL     1      34.571 -19.851 -22.315  0.00  0.00    -0.245 OA
ATOM     25  C   UNL     1      34.025 -20.424 -21.366  0.00  0.00    +0.338 C 
BRANCH  25  26
ATOM     26  O   UNL     1      32.673 -20.562 -21.285  0.00  0.00    -0.477 OA
ATOM     27  H   UNL     1      32.210 -20.219 -20.546  0.00  0.00    +0.295 HD
ENDBRANCH  25  26
ENDBRANCH  13  25
TORSDOF 3
ENDMDL
MODEL 6
REMARK VINA RESULT:     -10.3      3.265      6.079
REMARK  Name = 24748573
REMARK  3 active torsions:
REMARK  status: ('A' for Active; 'I' for Inactive)
REMARK    1  A    between atoms: N_2  and  C_18
REMARK    2  A    between atoms: C_13  and  C_25
REMARK    3  A    between atoms: C_25  and  O_26
REMARK                            x       y       z     vdW  Elec       q    Type
REMARK                         _______ _______ _______ _____ _____    ______ ____
ROOT
ATOM      1  N   UNL     1      34.227 -23.730 -15.959  0.00  0.00    -0.391 NA
ATOM      2  N   UNL     1      33.029 -24.916 -14.323  0.00  0.00    -0.288 N 
ATOM      3  N   UNL     1      37.350 -23.778 -11.973  0.00  0.00    -0.243 NA
ATOM      4  C   UNL     1      36.438 -22.852 -15.531  0.00  0.00    +0.098 C 
ATOM      5  C   UNL     1      36.387 -23.383 -14.201  0.00  0.00    +0.011 C 
ATOM      6  C   UNL     1      35.239 -24.081 -13.786  0.00  0.00    +0.044 C 
ATOM      7  C   UNL     1      35.316 -23.062 -16.366  0.00  0.00    +0.119 C 
ATOM      8  C   UNL     1      34.205 -24.220 -14.701  0.00  0.00    +0.183 C 
ATOM      9  C   UNL     1      37.539 -22.133 -16.058  0.00  0.00    -0.015 C 
ATOM     10  C   UNL     1      35.334 -22.560 -17.665  0.00  0.00    +0.035 C 
ATOM     11  C   UNL     1      35.153 -24.614 -12.493  0.00  0.00    +0.024 C 
ATOM     12  C   UNL     1      37.402 -23.275 -13.231  0.00  0.00    +0.095 C 
ATOM     13  C   UNL     1      36.426 -21.855 -18.167  0.00  0.00    +0.077 C 
ATOM     14  C   UNL     1      37.532 -21.640 -17.361  0.00  0.00    +0.003 C 
ATOM     15  C   UNL     1      36.224 -24.437 -11.638  0.00  0.00    +0.099 C 
ATOM     16  H   UNL     1      33.184 -25.623 -13.655  0.00  0.00    +0.155 HD
ENDROOT
BRANCH   2  18
ATOM     17 CL   UNL     1      29.494 -22.349 -17.000  0.00  0.00    -0.082 Cl
ATOM     18  C   UNL     1      31.688 -24.792 -14.717  0.00  0.00    +0.051 C 
ATOM     19  C   UNL     1      31.302 -23.751 -15.562  0.00  0.00    +0.026 C 
ATOM     20  C   UNL     1      30.741 -25.712 -14.266  0.00  0.00    +0.015 C 
ATOM     21  C   UNL     1      29.970 -23.631 -15.957  0.00  0.00    +0.059 C 
ATOM     22  C   UNL     1      29.409 -25.591 -14.661  0.00  0.00    +0.002 C 
ATOM     23  C   UNL     1      29.024 -24.551 -15.506  0.00  0.00    +0.011 C 
ENDBRANCH   2  18
BRANCH  13  25
ATOM     24  O   UNL     1      36.847 -20.251 -19.891  0.00  0.00    -0.245 OA
ATOM     25  C   UNL     1      36.404 -21.346 -19.528  0.00  0.00    +0.338 C 
BRANCH  25  26
ATOM     26  O   UNL     1      35.830 -22.219 -20.402  0.00  0.00    -0.477 OA
ATOM     27  H   UNL     1      36.363 -22.828 -20.873  0.00  0.00    +0.295 HD
ENDBRANCH  25  26
ENDBRANCH  13  25
TORSDOF 3
ENDMDL
MODEL 7
REMARK VINA RESULT:     -10.3      2.761      6.143
REMARK  Name = 24748573
REMARK  3 active torsions:
REMARK  status: ('A' for Active; 'I' for Inactive)
REMARK    1  A    between atoms: N_2  and  C_18
REMARK    2  A    between atoms: C_13  and  C_25
REMARK    3  A    between atoms: C_25  and  O_26
REMARK                            x       y       z     vdW  Elec       q    Type
REMARK                         _______ _______ _______ _____ _____    ______ ____
ROOT
ATOM      1  N   UNL     1      35.286 -23.463 -15.898  0.00  0.00    -0.391 NA
ATOM      2  N   UNL     1      35.254 -24.536 -13.809  0.00  0.00    -0.288 N 
ATOM      3  N   UNL     1      30.393 -24.548 -15.174  0.00  0.00    -0.243 NA
ATOM      4  C   UNL     1      33.267 -23.106 -17.177  0.00  0.00    +0.098 C 
ATOM      5  C   UNL     1      32.505 -23.744 -16.144  0.00  0.00    +0.011 C 
ATOM      6  C   UNL     1      33.169 -24.230 -15.004  0.00  0.00    +0.044 C 
ATOM      7  C   UNL     1      34.664 -22.996 -16.991  0.00  0.00    +0.119 C 
ATOM      8  C   UNL     1      34.545 -24.060 -14.941  0.00  0.00    +0.183 C 
ATOM      9  C   UNL     1      32.707 -22.579 -18.367  0.00  0.00    -0.015 C 
ATOM     10  C   UNL     1      35.433 -22.380 -17.974  0.00  0.00    +0.035 C 
ATOM     11  C   UNL     1      32.458 -24.860 -13.974  0.00  0.00    +0.024 C 
ATOM     12  C   UNL     1      31.111 -23.944 -16.152  0.00  0.00    +0.095 C 
ATOM     13  C   UNL     1      34.865 -21.868 -19.140  0.00  0.00    +0.077 C 
ATOM     14  C   UNL     1      33.498 -21.968 -19.337  0.00  0.00    +0.003 C 
ATOM     15  C   UNL     1      31.088 -24.991 -14.108  0.00  0.00    +0.099 C 
ATOM     16  H   UNL     1      34.726 -24.529 -12.978  0.00  0.00    +0.155 HD
ENDROOT
BRANCH   2  18
ATOM     17 CL   UNL     1      40.002 -24.970 -15.685  0.00  0.00    -0.082 Cl
ATOM     18  C   UNL     1      36.562 -25.015 -13.644  0.00  0.00    +0.051 C 
ATOM     19  C   UNL     1      37.519 -24.784 -14.633  0.00  0.00    +0.026 C 
ATOM     20  C   UNL     1      36.908 -25.719 -12.490  0.00  0.00    +0.015 C 
ATOM     21  C   UNL     1      38.821 -25.255 -14.467  0.00  0.00    +0.059 C 
ATOM     22  C   UNL     1      38.210 -26.191 -12.325  0.00  0.00    +0.002 C 
ATOM     23  C   UNL     1      39.166 -25.959 -13.313  0.00  0.00    +0.011 C 
ENDBRANCH   2  18
BRANCH  13  25
ATOM     24  O   UNL     1      36.932 -21.345 -20.224  0.00  0.00    -0.245 OA
ATOM     25  C   UNL     1      35.704 -21.233 -20.143  0.00  0.00    +0.338 C 
BRANCH  25  26
ATOM     26  O   UNL     1      34.987 -20.478 -21.020  0.00  0.00    -0.477 OA
ATOM     27  H   UNL     1      34.099 -20.252 -20.826  0.00  0.00    +0.295 HD
ENDBRANCH  25  26
ENDBRANCH  13  25
TORSDOF 3
ENDMDL
MODEL 8
REMARK VINA RESULT:      -9.8      3.554      6.851
REMARK  Name = 24748573
REMARK  3 active torsions:
REMARK  status: ('A' for Active; 'I' for Inactive)
REMARK    1  A    between atoms: N_2  and  C_18
REMARK    2  A    between atoms: C_13  and  C_25
REMARK    3  A    between atoms: C_25  and  O_26
REMARK                            x       y       z     vdW  Elec       q    Type
REMARK                         _______ _______ _______ _____ _____    ______ ____
ROOT
ATOM      1  N   UNL     1      34.591 -24.123 -15.695  0.00  0.00    -0.391 NA
ATOM      2  N   UNL     1      36.875 -23.835 -16.159  0.00  0.00    -0.288 N 
ATOM      3  N   UNL     1      34.623 -21.243 -19.859  0.00  0.00    -0.243 NA
ATOM      4  C   UNL     1      32.875 -23.137 -17.083  0.00  0.00    +0.098 C 
ATOM      5  C   UNL     1      33.888 -22.570 -17.924  0.00  0.00    +0.011 C 
ATOM      6  C   UNL     1      35.241 -22.801 -17.619  0.00  0.00    +0.044 C 
ATOM      7  C   UNL     1      33.297 -23.909 -15.976  0.00  0.00    +0.119 C 
ATOM      8  C   UNL     1      35.524 -23.578 -16.504  0.00  0.00    +0.183 C 
ATOM      9  C   UNL     1      31.484 -22.971 -17.293  0.00  0.00    -0.015 C 
ATOM     10  C   UNL     1      32.338 -24.475 -15.140  0.00  0.00    +0.035 C 
ATOM     11  C   UNL     1      36.259 -22.264 -18.417  0.00  0.00    +0.024 C 
ATOM     12  C   UNL     1      33.663 -21.777 -19.066  0.00  0.00    +0.095 C 
ATOM     13  C   UNL     1      30.973 -24.301 -15.361  0.00  0.00    +0.077 C 
ATOM     14  C   UNL     1      30.544 -23.547 -16.441  0.00  0.00    +0.003 C 
ATOM     15  C   UNL     1      35.899 -21.502 -19.513  0.00  0.00    +0.099 C 
ATOM     16  H   UNL     1      37.485 -23.856 -16.932  0.00  0.00    +0.155 HD
ENDROOT
BRANCH   2  18
ATOM     17 CL   UNL     1      37.189 -22.788 -11.153  0.00  0.00    -0.082 Cl
ATOM     18  C   UNL     1      37.511 -24.066 -14.930  0.00  0.00    +0.051 C 
ATOM     19  C   UNL     1      37.085 -23.389 -13.786  0.00  0.00    +0.026 C 
ATOM     20  C   UNL     1      38.566 -24.975 -14.850  0.00  0.00    +0.015 C 
ATOM     21  C   UNL     1      37.714 -23.622 -12.564  0.00  0.00    +0.059 C 
ATOM     22  C   UNL     1      39.196 -25.207 -13.627  0.00  0.00    +0.002 C 
ATOM     23  C   UNL     1      38.769 -24.530 -12.484  0.00  0.00    +0.011 C 
ENDBRANCH   2  18
BRANCH  13  25
ATOM     24  O   UNL     1      28.838 -25.194 -14.754  0.00  0.00    -0.245 OA
ATOM     25  C   UNL     1      30.005 -24.908 -14.463  0.00  0.00    +0.338 C 
BRANCH  25  26
ATOM     26  O   UNL     1      30.519 -25.143 -13.224  0.00  0.00    -0.477 OA
ATOM     27  H   UNL     1      29.965 -25.462 -12.539  0.00  0.00    +0.295 HD
ENDBRANCH  25  26
ENDBRANCH  13  25
TORSDOF 3
ENDMDL
MODEL 9
REMARK VINA RESULT:      -9.8      3.148      4.937
REMARK  Name = 24748573
REMARK  3 active torsions:
REMARK  status: ('A' for Active; 'I' for Inactive)
REMARK    1  A    between atoms: N_2  and  C_18
REMARK    2  A    between atoms: C_13  and  C_25
REMARK    3  A    between atoms: C_25  and  O_26
REMARK                            x       y       z     vdW  Elec       q    Type
REMARK                         _______ _______ _______ _____ _____    ______ ____
ROOT
ATOM      1  N   UNL     1      34.295 -22.815 -16.585  0.00  0.00    -0.391 NA
ATOM      2  N   UNL     1      36.333 -22.052 -17.468  0.00  0.00    -0.288 N 
ATOM      3  N   UNL     1      37.783 -25.393 -13.972  0.00  0.00    -0.243 NA
ATOM      4  C   UNL     1      34.210 -24.470 -14.825  0.00  0.00    +0.098 C 
ATOM      5  C   UNL     1      35.642 -24.527 -14.816  0.00  0.00    +0.011 C 
ATOM      6  C   UNL     1      36.366 -23.714 -15.705  0.00  0.00    +0.044 C 
ATOM      7  C   UNL     1      33.593 -23.587 -15.741  0.00  0.00    +0.119 C 
ATOM      8  C   UNL     1      35.642 -22.888 -16.555  0.00  0.00    +0.183 C 
ATOM      9  C   UNL     1      33.378 -25.242 -13.976  0.00  0.00    -0.015 C 
ATOM     10  C   UNL     1      32.203 -23.506 -15.775  0.00  0.00    +0.035 C 
ATOM     11  C   UNL     1      37.767 -23.742 -15.725  0.00  0.00    +0.024 C 
ATOM     12  C   UNL     1      36.429 -25.342 -13.979  0.00  0.00    +0.095 C 
ATOM     13  C   UNL     1      31.401 -24.273 -14.932  0.00  0.00    +0.077 C 
ATOM     14  C   UNL     1      31.990 -25.143 -14.030  0.00  0.00    +0.003 C 
ATOM     15  C   UNL     1      38.417 -24.589 -14.848  0.00  0.00    +0.099 C 
ATOM     16  H   UNL     1      37.219 -21.763 -17.150  0.00  0.00    +0.155 HD
ENDROOT
BRANCH   2  18
ATOM     17 CL   UNL     1      37.584 -19.090 -21.457  0.00  0.00    -0.082 Cl
ATOM     18  C   UNL     1      35.997 -21.556 -18.737  0.00  0.00    +0.051 C 
ATOM     19  C   UNL     1      36.856 -20.671 -19.389  0.00  0.00    +0.026 C 
ATOM     20  C   UNL     1      34.807 -21.951 -19.348  0.00  0.00    +0.015 C 
ATOM     21  C   UNL     1      36.525 -20.181 -20.652  0.00  0.00    +0.059 C 
ATOM     22  C   UNL     1      34.476 -21.460 -20.611  0.00  0.00    +0.002 C 
ATOM     23  C   UNL     1      35.335 -20.576 -21.263  0.00  0.00    +0.011 C 
ENDBRANCH   2  18
BRANCH  13  25
ATOM     24  O   UNL     1      29.329 -23.158 -15.364  0.00  0.00    -0.245 OA
ATOM     25  C   UNL     1      29.953 -24.160 -15.001  0.00  0.00    +0.338 C 
BRANCH  25  26
ATOM     26  O   UNL     1      29.323 -25.305 -14.618  0.00  0.00    -0.477 OA
ATOM     27  H   UNL     1      28.421 -25.438 -14.835  0.00  0.00    +0.295 HD
ENDBRANCH  25  26
ENDBRANCH  13  25
TORSDOF 3
ENDMDL
