MODEL 1
REMARK VINA RESULT:     -11.5      0.000      0.000
REMARK  Name = 25109292
REMARK  3 active torsions:
REMARK  status: ('A' for Active; 'I' for Inactive)
REMARK    1  A    between atoms: C_3  and  S_20
REMARK    2  A    between atoms: C_7  and  C_10
REMARK    3  A    between atoms: S_20  and  C_23
REMARK                            x       y       z     vdW  Elec       q    Type
REMARK                         _______ _______ _______ _____ _____    ______ ____
ROOT
ATOM      1  O   UNL     1      34.751 -23.026 -17.201  0.00  0.00    -0.425 OA
ATOM      2  N   UNL     1      36.986 -22.649 -17.210  0.00  0.00    -0.368 NA
ATOM      3  C   UNL     1      36.809 -24.775 -14.141  0.00  0.00    +0.091 C 
ATOM      4  C   UNL     1      36.658 -23.438 -16.134  0.00  0.00    +0.153 C 
ATOM      5  C   UNL     1      35.291 -23.670 -16.125  0.00  0.00    +0.174 C 
ATOM      6  C   UNL     1      37.448 -24.000 -15.120  0.00  0.00    +0.107 C 
ATOM      7  C   UNL     1      35.828 -22.441 -17.797  0.00  0.00    +0.282 C 
ATOM      8  C   UNL     1      35.425 -24.984 -14.169  0.00  0.00    +0.018 C 
ATOM      9  C   UNL     1      34.624 -24.431 -15.174  0.00  0.00    +0.041 C 
ENDROOT
BRANCH   7  10
ATOM     10  C   UNL     1      35.532 -21.678 -18.985  0.00  0.00    +0.066 C 
ATOM     11  C   UNL     1      36.256 -20.168 -20.750  0.00  0.00    +0.000 C 
ATOM     12  C   UNL     1      34.953 -20.196 -21.299  0.00  0.00    +0.000 C 
ATOM     13  C   UNL     1      36.529 -20.914 -19.592  0.00  0.00    +0.006 C 
ATOM     14  C   UNL     1      34.250 -21.706 -19.526  0.00  0.00    +0.006 C 
ATOM     15  C   UNL     1      33.960 -20.970 -20.676  0.00  0.00    +0.000 C 
ATOM     16  C   UNL     1      37.248 -19.394 -21.373  0.00  0.00    +0.000 C 
ATOM     17  C   UNL     1      34.679 -19.450 -22.457  0.00  0.00    +0.000 C 
ATOM     18  C   UNL     1      36.959 -18.658 -22.522  0.00  0.00    +0.000 C 
ATOM     19  C   UNL     1      35.677 -18.686 -23.063  0.00  0.00    +0.000 C 
ENDBRANCH   7  10
BRANCH   3  20
ATOM     20  S   UNL     1      37.762 -25.491 -12.861  0.00  0.00    +0.005 S 
ATOM     21  O   UNL     1      36.847 -26.142 -11.936  0.00  0.00    -0.169 OA
ATOM     22  O   UNL     1      38.852 -26.250 -13.456  0.00  0.00    -0.169 OA
BRANCH  20  23
ATOM     23  C   UNL     1      38.490 -24.101 -12.026  0.00  0.00    +0.156 C 
ATOM     24  C   UNL     1      37.450 -23.063 -11.666  0.00  0.00    +0.028 C 
ENDBRANCH  20  23
ENDBRANCH   3  20
TORSDOF 3
ENDMDL
MODEL 2
REMARK VINA RESULT:     -10.5      2.286      3.699
REMARK  Name = 25109292
REMARK  3 active torsions:
REMARK  status: ('A' for Active; 'I' for Inactive)
REMARK    1  A    between atoms: C_3  and  S_20
REMARK    2  A    between atoms: C_7  and  C_10
REMARK    3  A    between atoms: S_20  and  C_23
REMARK                            x       y       z     vdW  Elec       q    Type
REMARK                         _______ _______ _______ _____ _____    ______ ____
ROOT
ATOM      1  O   UNL     1      34.400 -21.100 -20.298  0.00  0.00    -0.425 OA
ATOM      2  N   UNL     1      36.570 -20.582 -19.896  0.00  0.00    -0.368 NA
ATOM      3  C   UNL     1      36.037 -22.932 -17.039  0.00  0.00    +0.091 C 
ATOM      4  C   UNL     1      36.124 -21.467 -18.943  0.00  0.00    +0.153 C 
ATOM      5  C   UNL     1      34.797 -21.786 -19.186  0.00  0.00    +0.174 C 
ATOM      6  C   UNL     1      36.772 -22.049 -17.843  0.00  0.00    +0.107 C 
ATOM      7  C   UNL     1      35.515 -20.406 -20.661  0.00  0.00    +0.282 C 
ATOM      8  C   UNL     1      34.696 -23.227 -17.319  0.00  0.00    +0.018 C 
ATOM      9  C   UNL     1      34.038 -22.655 -18.413  0.00  0.00    +0.041 C 
ENDROOT
BRANCH   7  10
ATOM     10  C   UNL     1      35.367 -19.580 -21.834  0.00  0.00    +0.066 C 
ATOM     11  C   UNL     1      35.243 -17.372 -22.850  0.00  0.00    +0.000 C 
ATOM     12  C   UNL     1      35.081 -17.973 -24.120  0.00  0.00    +0.000 C 
ATOM     13  C   UNL     1      35.385 -18.189 -21.716  0.00  0.00    +0.006 C 
ATOM     14  C   UNL     1      35.207 -20.170 -23.084  0.00  0.00    +0.006 C 
ATOM     15  C   UNL     1      35.065 -19.374 -24.221  0.00  0.00    +0.000 C 
ATOM     16  C   UNL     1      35.260 -15.971 -22.749  0.00  0.00    +0.000 C 
ATOM     17  C   UNL     1      34.939 -17.156 -25.253  0.00  0.00    +0.000 C 
ATOM     18  C   UNL     1      35.117 -15.175 -23.885  0.00  0.00    +0.000 C 
ATOM     19  C   UNL     1      34.956 -15.766 -25.134  0.00  0.00    +0.000 C 
ENDBRANCH   7  10
BRANCH   3  20
ATOM     20  S   UNL     1      36.811 -23.677 -15.659  0.00  0.00    +0.005 S 
ATOM     21  O   UNL     1      36.703 -25.120 -15.814  0.00  0.00    -0.169 OA
ATOM     22  O   UNL     1      38.116 -23.065 -15.465  0.00  0.00    -0.169 OA
BRANCH  20  23
ATOM     23  C   UNL     1      35.800 -23.197 -14.277  0.00  0.00    +0.156 C 
ATOM     24  C   UNL     1      34.960 -24.352 -13.777  0.00  0.00    +0.028 C 
ENDBRANCH  20  23
ENDBRANCH   3  20
TORSDOF 3
ENDMDL
MODEL 3
REMARK VINA RESULT:     -10.4      9.824     14.121
REMARK  Name = 25109292
REMARK  3 active torsions:
REMARK  status: ('A' for Active; 'I' for Inactive)
REMARK    1  A    between atoms: C_3  and  S_20
REMARK    2  A    between atoms: C_7  and  C_10
REMARK    3  A    between atoms: S_20  and  C_23
REMARK                            x       y       z     vdW  Elec       q    Type
REMARK                         _______ _______ _______ _____ _____    ______ ____
ROOT
ATOM      1  O   UNL     1      32.922 -12.966 -22.602  0.00  0.00    -0.425 OA
ATOM      2  N   UNL     1      34.238 -12.067 -24.214  0.00  0.00    -0.368 NA
ATOM      3  C   UNL     1      32.550  -8.931 -23.082  0.00  0.00    +0.091 C 
ATOM      4  C   UNL     1      33.490 -11.075 -23.626  0.00  0.00    +0.153 C 
ATOM      5  C   UNL     1      32.683 -11.622 -22.640  0.00  0.00    +0.174 C 
ATOM      6  C   UNL     1      33.430  -9.694 -23.862  0.00  0.00    +0.107 C 
ATOM      7  C   UNL     1      33.861 -13.151 -23.572  0.00  0.00    +0.282 C 
ATOM      8  C   UNL     1      31.751  -9.523 -22.096  0.00  0.00    +0.018 C 
ATOM      9  C   UNL     1      31.801 -10.899 -21.847  0.00  0.00    +0.041 C 
ENDROOT
BRANCH   7  10
ATOM     10  C   UNL     1      34.301 -14.514 -23.748  0.00  0.00    +0.066 C 
ATOM     11  C   UNL     1      35.207 -16.568 -22.811  0.00  0.00    +0.000 C 
ATOM     12  C   UNL     1      35.154 -17.167 -24.091  0.00  0.00    +0.000 C 
ATOM     13  C   UNL     1      34.777 -15.240 -22.656  0.00  0.00    +0.006 C 
ATOM     14  C   UNL     1      34.248 -15.103 -25.007  0.00  0.00    +0.006 C 
ATOM     15  C   UNL     1      34.672 -16.422 -25.180  0.00  0.00    +0.000 C 
ATOM     16  C   UNL     1      35.690 -17.313 -21.722  0.00  0.00    +0.000 C 
ATOM     17  C   UNL     1      35.585 -18.495 -24.246  0.00  0.00    +0.000 C 
ATOM     18  C   UNL     1      36.113 -18.631 -21.895  0.00  0.00    +0.000 C 
ATOM     19  C   UNL     1      36.061 -19.220 -23.154  0.00  0.00    +0.000 C 
ENDBRANCH   7  10
BRANCH   3  20
ATOM     20  S   UNL     1      32.448  -7.205 -23.349  0.00  0.00    +0.005 S 
ATOM     21  O   UNL     1      31.834  -6.991 -24.651  0.00  0.00    -0.169 OA
ATOM     22  O   UNL     1      31.875  -6.580 -22.166  0.00  0.00    -0.169 OA
BRANCH  20  23
ATOM     23  C   UNL     1      34.142  -6.676 -23.449  0.00  0.00    +0.156 C 
ATOM     24  C   UNL     1      34.407  -5.900 -24.720  0.00  0.00    +0.028 C 
ENDBRANCH  20  23
ENDBRANCH   3  20
TORSDOF 3
ENDMDL
MODEL 4
REMARK VINA RESULT:     -10.2      8.344     11.930
REMARK  Name = 25109292
REMARK  3 active torsions:
REMARK  status: ('A' for Active; 'I' for Inactive)
REMARK    1  A    between atoms: C_3  and  S_20
REMARK    2  A    between atoms: C_7  and  C_10
REMARK    3  A    between atoms: S_20  and  C_23
REMARK                            x       y       z     vdW  Elec       q    Type
REMARK                         _______ _______ _______ _____ _____    ______ ____
ROOT
ATOM      1  O   UNL     1      33.825 -13.480 -24.671  0.00  0.00    -0.425 OA
ATOM      2  N   UNL     1      34.439 -13.735 -22.503  0.00  0.00    -0.368 NA
ATOM      3  C   UNL     1      35.274 -17.172 -23.711  0.00  0.00    +0.091 C 
ATOM      4  C   UNL     1      34.658 -14.909 -23.184  0.00  0.00    +0.153 C 
ATOM      5  C   UNL     1      34.284 -14.756 -24.510  0.00  0.00    +0.174 C 
ATOM      6  C   UNL     1      35.168 -16.145 -22.762  0.00  0.00    +0.107 C 
ATOM      7  C   UNL     1      33.951 -12.937 -23.427  0.00  0.00    +0.282 C 
ATOM      8  C   UNL     1      34.883 -16.976 -25.042  0.00  0.00    +0.018 C 
ATOM      9  C   UNL     1      34.374 -15.748 -25.478  0.00  0.00    +0.041 C 
ENDROOT
BRANCH   7  10
ATOM     10  C   UNL     1      33.527 -11.562 -23.313  0.00  0.00    +0.066 C 
ATOM     11  C   UNL     1      33.929  -9.197 -23.718  0.00  0.00    +0.000 C 
ATOM     12  C   UNL     1      32.698  -8.888 -23.091  0.00  0.00    +0.000 C 
ATOM     13  C   UNL     1      34.329 -10.540 -23.820  0.00  0.00    +0.006 C 
ATOM     14  C   UNL     1      32.316 -11.258 -22.697  0.00  0.00    +0.006 C 
ATOM     15  C   UNL     1      31.903  -9.930 -22.586  0.00  0.00    +0.000 C 
ATOM     16  C   UNL     1      34.724  -8.156 -24.223  0.00  0.00    +0.000 C 
ATOM     17  C   UNL     1      32.298  -7.546 -22.989  0.00  0.00    +0.000 C 
ATOM     18  C   UNL     1      34.311  -6.828 -24.112  0.00  0.00    +0.000 C 
ATOM     19  C   UNL     1      33.101  -6.524 -23.496  0.00  0.00    +0.000 C 
ENDBRANCH   7  10
BRANCH   3  20
ATOM     20  S   UNL     1      35.905 -18.728 -23.220  0.00  0.00    +0.005 S 
ATOM     21  O   UNL     1      35.212 -19.752 -23.988  0.00  0.00    -0.169 OA
ATOM     22  O   UNL     1      37.360 -18.671 -23.236  0.00  0.00    -0.169 OA
BRANCH  20  23
ATOM     23  C   UNL     1      35.408 -18.887 -21.521  0.00  0.00    +0.156 C 
ATOM     24  C   UNL     1      34.505 -20.083 -21.317  0.00  0.00    +0.028 C 
ENDBRANCH  20  23
ENDBRANCH   3  20
TORSDOF 3
ENDMDL
MODEL 5
REMARK VINA RESULT:     -10.2      2.293      3.884
REMARK  Name = 25109292
REMARK  3 active torsions:
REMARK  status: ('A' for Active; 'I' for Inactive)
REMARK    1  A    between atoms: C_3  and  S_20
REMARK    2  A    between atoms: C_7  and  C_10
REMARK    3  A    between atoms: S_20  and  C_23
REMARK                            x       y       z     vdW  Elec       q    Type
REMARK                         _______ _______ _______ _____ _____    ______ ____
ROOT
ATOM      1  O   UNL     1      36.592 -20.377 -19.940  0.00  0.00    -0.425 OA
ATOM      2  N   UNL     1      34.516 -21.278 -20.071  0.00  0.00    -0.368 NA
ATOM      3  C   UNL     1      35.659 -23.005 -16.960  0.00  0.00    +0.091 C 
ATOM      4  C   UNL     1      35.164 -21.776 -18.966  0.00  0.00    +0.153 C 
ATOM      5  C   UNL     1      36.434 -21.227 -18.883  0.00  0.00    +0.174 C 
ATOM      6  C   UNL     1      34.755 -22.690 -17.985  0.00  0.00    +0.107 C 
ATOM      7  C   UNL     1      35.403 -20.464 -20.600  0.00  0.00    +0.282 C 
ATOM      8  C   UNL     1      36.935 -22.428 -16.914  0.00  0.00    +0.018 C 
ATOM      9  C   UNL     1      37.357 -21.513 -17.885  0.00  0.00    +0.041 C 
ENDROOT
BRANCH   7  10
ATOM     10  C   UNL     1      35.299 -19.648 -21.785  0.00  0.00    +0.066 C 
ATOM     11  C   UNL     1      35.240 -17.448 -22.824  0.00  0.00    +0.000 C 
ATOM     12  C   UNL     1      35.097 -18.059 -24.093  0.00  0.00    +0.000 C 
ATOM     13  C   UNL     1      35.339 -18.257 -21.680  0.00  0.00    +0.006 C 
ATOM     14  C   UNL     1      35.159 -20.248 -23.032  0.00  0.00    +0.006 C 
ATOM     15  C   UNL     1      35.059 -19.460 -24.180  0.00  0.00    +0.000 C 
ATOM     16  C   UNL     1      35.278 -16.047 -22.737  0.00  0.00    +0.000 C 
ATOM     17  C   UNL     1      34.998 -17.251 -25.237  0.00  0.00    +0.000 C 
ATOM     18  C   UNL     1      35.178 -15.260 -23.884  0.00  0.00    +0.000 C 
ATOM     19  C   UNL     1      35.038 -15.860 -25.131  0.00  0.00    +0.000 C 
ENDBRANCH   7  10
BRANCH   3  20
ATOM     20  S   UNL     1      35.184 -24.142 -15.719  0.00  0.00    +0.005 S 
ATOM     21  O   UNL     1      33.751 -24.000 -15.510  0.00  0.00    -0.169 OA
ATOM     22  O   UNL     1      35.744 -25.447 -16.037  0.00  0.00    -0.169 OA
BRANCH  20  23
ATOM     23  C   UNL     1      36.011 -23.564 -14.255  0.00  0.00    +0.156 C 
ATOM     24  C   UNL     1      35.436 -24.196 -13.007  0.00  0.00    +0.028 C 
ENDBRANCH  20  23
ENDBRANCH   3  20
TORSDOF 3
ENDMDL
MODEL 6
REMARK VINA RESULT:     -10.1      3.419      8.718
REMARK  Name = 25109292
REMARK  3 active torsions:
REMARK  status: ('A' for Active; 'I' for Inactive)
REMARK    1  A    between atoms: C_3  and  S_20
REMARK    2  A    between atoms: C_7  and  C_10
REMARK    3  A    between atoms: S_20  and  C_23
REMARK                            x       y       z     vdW  Elec       q    Type
REMARK                         _______ _______ _______ _____ _____    ______ ____
ROOT
ATOM      1  O   UNL     1      35.000 -22.467 -18.075  0.00  0.00    -0.425 OA
ATOM      2  N   UNL     1      37.122 -21.669 -18.066  0.00  0.00    -0.368 NA
ATOM      3  C   UNL     1      35.914 -19.958 -21.162  0.00  0.00    +0.091 C 
ATOM      4  C   UNL     1      36.446 -21.165 -19.152  0.00  0.00    +0.153 C 
ATOM      5  C   UNL     1      35.148 -21.651 -19.160  0.00  0.00    +0.174 C 
ATOM      6  C   UNL     1      36.851 -20.295 -20.174  0.00  0.00    +0.107 C 
ATOM      7  C   UNL     1      36.223 -22.424 -17.475  0.00  0.00    +0.282 C 
ATOM      8  C   UNL     1      34.611 -20.473 -21.134  0.00  0.00    +0.018 C 
ATOM      9  C   UNL     1      34.192 -21.341 -20.119  0.00  0.00    +0.041 C 
ENDROOT
BRANCH   7  10
ATOM     10  C   UNL     1      36.344 -23.218 -16.276  0.00  0.00    +0.066 C 
ATOM     11  C   UNL     1      37.719 -24.509 -14.740  0.00  0.00    +0.000 C 
ATOM     12  C   UNL     1      36.579 -24.761 -13.941  0.00  0.00    +0.000 C 
ATOM     13  C   UNL     1      37.585 -23.736 -15.904  0.00  0.00    +0.006 C 
ATOM     14  C   UNL     1      35.223 -23.464 -15.490  0.00  0.00    +0.006 C 
ATOM     15  C   UNL     1      35.337 -24.231 -14.329  0.00  0.00    +0.000 C 
ATOM     16  C   UNL     1      38.961 -25.039 -14.351  0.00  0.00    +0.000 C 
ATOM     17  C   UNL     1      36.713 -25.534 -12.776  0.00  0.00    +0.000 C 
ATOM     18  C   UNL     1      39.075 -25.805 -13.191  0.00  0.00    +0.000 C 
ATOM     19  C   UNL     1      37.954 -26.053 -12.406  0.00  0.00    +0.000 C 
ENDBRANCH   7  10
BRANCH   3  20
ATOM     20  S   UNL     1      36.383 -18.876 -22.453  0.00  0.00    +0.005 S 
ATOM     21  O   UNL     1      37.829 -18.717 -22.397  0.00  0.00    -0.169 OA
ATOM     22  O   UNL     1      35.750 -19.315 -23.688  0.00  0.00    -0.169 OA
BRANCH  20  23
ATOM     23  C   UNL     1      35.643 -17.321 -22.012  0.00  0.00    +0.156 C 
ATOM     24  C   UNL     1      35.396 -16.459 -23.231  0.00  0.00    +0.028 C 
ENDBRANCH  20  23
ENDBRANCH   3  20
TORSDOF 3
ENDMDL
MODEL 7
REMARK VINA RESULT:     -10.0      8.478     12.245
REMARK  Name = 25109292
REMARK  3 active torsions:
REMARK  status: ('A' for Active; 'I' for Inactive)
REMARK    1  A    between atoms: C_3  and  S_20
REMARK    2  A    between atoms: C_7  and  C_10
REMARK    3  A    between atoms: S_20  and  C_23
REMARK                            x       y       z     vdW  Elec       q    Type
REMARK                         _______ _______ _______ _____ _____    ______ ____
ROOT
ATOM      1  O   UNL     1      34.009 -13.356 -25.135  0.00  0.00    -0.425 OA
ATOM      2  N   UNL     1      34.924 -13.523 -23.068  0.00  0.00    -0.368 NA
ATOM      3  C   UNL     1      35.097 -17.131 -24.029  0.00  0.00    +0.091 C 
ATOM      4  C   UNL     1      34.876 -14.767 -23.651  0.00  0.00    +0.153 C 
ATOM      5  C   UNL     1      34.316 -14.669 -24.915  0.00  0.00    +0.174 C 
ATOM      6  C   UNL     1      35.281 -16.026 -23.184  0.00  0.00    +0.107 C 
ATOM      7  C   UNL     1      34.403 -12.739 -23.986  0.00  0.00    +0.282 C 
ATOM      8  C   UNL     1      34.527 -16.988 -25.300  0.00  0.00    +0.018 C 
ATOM      9  C   UNL     1      34.119 -15.738 -25.780  0.00  0.00    +0.041 C 
ENDROOT
BRANCH   7  10
ATOM     10  C   UNL     1      34.187 -11.313 -23.951  0.00  0.00    +0.066 C 
ATOM     11  C   UNL     1      32.777  -9.414 -23.381  0.00  0.00    +0.000 C 
ATOM     12  C   UNL     1      33.768  -8.537 -23.883  0.00  0.00    +0.000 C 
ATOM     13  C   UNL     1      33.002 -10.799 -23.423  0.00  0.00    +0.006 C 
ATOM     14  C   UNL     1      35.161 -10.451 -24.444  0.00  0.00    +0.006 C 
ATOM     15  C   UNL     1      34.955  -9.071 -24.411  0.00  0.00    +0.000 C 
ATOM     16  C   UNL     1      31.591  -8.880 -22.853  0.00  0.00    +0.000 C 
ATOM     17  C   UNL     1      33.544  -7.151 -23.841  0.00  0.00    +0.000 C 
ATOM     18  C   UNL     1      31.385  -7.500 -22.820  0.00  0.00    +0.000 C 
ATOM     19  C   UNL     1      32.358  -6.638 -23.314  0.00  0.00    +0.000 C 
ENDBRANCH   7  10
BRANCH   3  20
ATOM     20  S   UNL     1      35.590 -18.717 -23.481  0.00  0.00    +0.005 S 
ATOM     21  O   UNL     1      34.931 -19.704 -24.325  0.00  0.00    -0.169 OA
ATOM     22  O   UNL     1      37.038 -18.737 -23.340  0.00  0.00    -0.169 OA
BRANCH  20  23
ATOM     23  C   UNL     1      34.905 -18.849 -21.846  0.00  0.00    +0.156 C 
ATOM     24  C   UNL     1      35.241 -20.180 -21.210  0.00  0.00    +0.028 C 
ENDBRANCH  20  23
ENDBRANCH   3  20
TORSDOF 3
ENDMDL
MODEL 8
REMARK VINA RESULT:     -10.0      4.295      9.036
REMARK  Name = 25109292
REMARK  3 active torsions:
REMARK  status: ('A' for Active; 'I' for Inactive)
REMARK    1  A    between atoms: C_3  and  S_20
REMARK    2  A    between atoms: C_7  and  C_10
REMARK    3  A    between atoms: S_20  and  C_23
REMARK                            x       y       z     vdW  Elec       q    Type
REMARK                         _______ _______ _______ _____ _____    ______ ____
ROOT
ATOM      1  O   UNL     1      35.150 -22.193 -18.384  0.00  0.00    -0.425 OA
ATOM      2  N   UNL     1      33.187 -21.575 -19.336  0.00  0.00    -0.368 NA
ATOM      3  C   UNL     1      35.504 -19.830 -21.692  0.00  0.00    +0.091 C 
ATOM      4  C   UNL     1      34.233 -21.037 -20.048  0.00  0.00    +0.153 C 
ATOM      5  C   UNL     1      35.435 -21.413 -19.468  0.00  0.00    +0.174 C 
ATOM      6  C   UNL     1      34.256 -20.224 -21.190  0.00  0.00    +0.107 C 
ATOM      7  C   UNL     1      33.788 -22.241 -18.375  0.00  0.00    +0.282 C 
ATOM      8  C   UNL     1      36.696 -20.231 -21.075  0.00  0.00    +0.018 C 
ATOM      9  C   UNL     1      36.689 -21.043 -19.936  0.00  0.00    +0.041 C 
ENDROOT
BRANCH   7  10
ATOM     10  C   UNL     1      33.210 -23.019 -17.305  0.00  0.00    +0.066 C 
ATOM     11  C   UNL     1      31.249 -23.933 -16.192  0.00  0.00    +0.000 C 
ATOM     12  C   UNL     1      32.088 -24.535 -15.225  0.00  0.00    +0.000 C 
ATOM     13  C   UNL     1      31.826 -23.178 -17.226  0.00  0.00    +0.006 C 
ATOM     14  C   UNL     1      34.035 -23.612 -16.354  0.00  0.00    +0.006 C 
ATOM     15  C   UNL     1      33.479 -24.366 -15.319  0.00  0.00    +0.000 C 
ATOM     16  C   UNL     1      29.858 -24.103 -16.098  0.00  0.00    +0.000 C 
ATOM     17  C   UNL     1      31.511 -25.291 -14.191  0.00  0.00    +0.000 C 
ATOM     18  C   UNL     1      29.303 -24.856 -15.063  0.00  0.00    +0.000 C 
ATOM     19  C   UNL     1      30.127 -25.448 -14.112  0.00  0.00    +0.000 C 
ENDBRANCH   7  10
BRANCH   3  20
ATOM     20  S   UNL     1      35.573 -18.815 -23.115  0.00  0.00    +0.005 S 
ATOM     21  O   UNL     1      36.909 -18.929 -23.680  0.00  0.00    -0.169 OA
ATOM     22  O   UNL     1      34.410 -19.092 -23.946  0.00  0.00    -0.169 OA
BRANCH  20  23
ATOM     23  C   UNL     1      35.382 -17.163 -22.486  0.00  0.00    +0.156 C 
ATOM     24  C   UNL     1      35.359 -16.144 -23.603  0.00  0.00    +0.028 C 
ENDBRANCH  20  23
ENDBRANCH   3  20
TORSDOF 3
ENDMDL
MODEL 9
REMARK VINA RESULT:      -9.9     10.662     14.744
REMARK  Name = 25109292
REMARK  3 active torsions:
REMARK  status: ('A' for Active; 'I' for Inactive)
REMARK    1  A    between atoms: C_3  and  S_20
REMARK    2  A    between atoms: C_7  and  C_10
REMARK    3  A    between atoms: S_20  and  C_23
REMARK                            x       y       z     vdW  Elec       q    Type
REMARK                         _______ _______ _______ _____ _____    ______ ____
ROOT
ATOM      1  O   UNL     1      34.918 -11.477 -24.648  0.00  0.00    -0.425 OA
ATOM      2  N   UNL     1      33.055 -11.693 -23.375  0.00  0.00    -0.368 NA
ATOM      3  C   UNL     1      33.494  -7.995 -23.065  0.00  0.00    +0.091 C 
ATOM      4  C   UNL     1      33.431 -10.372 -23.418  0.00  0.00    +0.153 C 
ATOM      5  C   UNL     1      34.571 -10.236 -24.195  0.00  0.00    +0.174 C 
ATOM      6  C   UNL     1      32.869  -9.228 -22.832  0.00  0.00    +0.107 C 
ATOM      7  C   UNL     1      33.964 -12.290 -24.113  0.00  0.00    +0.282 C 
ATOM      8  C   UNL     1      34.646  -7.901 -23.857  0.00  0.00    +0.018 C 
ATOM      9  C   UNL     1      35.217  -9.033 -24.449  0.00  0.00    +0.041 C 
ENDROOT
BRANCH   7  10
ATOM     10  C   UNL     1      34.098 -13.689 -24.442  0.00  0.00    +0.066 C 
ATOM     11  C   UNL     1      34.900 -15.915 -23.873  0.00  0.00    +0.000 C 
ATOM     12  C   UNL     1      34.357 -16.411 -25.082  0.00  0.00    +0.000 C 
ATOM     13  C   UNL     1      34.763 -14.551 -23.568  0.00  0.00    +0.006 C 
ATOM     14  C   UNL     1      33.564 -14.178 -25.629  0.00  0.00    +0.006 C 
ATOM     15  C   UNL     1      33.691 -15.530 -25.949  0.00  0.00    +0.000 C 
ATOM     16  C   UNL     1      35.566 -16.796 -23.005  0.00  0.00    +0.000 C 
ATOM     17  C   UNL     1      34.494 -17.775 -25.387  0.00  0.00    +0.000 C 
ATOM     18  C   UNL     1      35.693 -18.147 -23.325  0.00  0.00    +0.000 C 
ATOM     19  C   UNL     1      35.159 -18.636 -24.513  0.00  0.00    +0.000 C 
ENDBRANCH   7  10
BRANCH   3  20
ATOM     20  S   UNL     1      32.822  -6.547 -22.351  0.00  0.00    +0.005 S 
ATOM     21  O   UNL     1      32.986  -6.645 -20.908  0.00  0.00    -0.169 OA
ATOM     22  O   UNL     1      33.342  -5.388 -23.061  0.00  0.00    -0.169 OA
BRANCH  20  23
ATOM     23  C   UNL     1      31.085  -6.645 -22.714  0.00  0.00    +0.156 C 
ATOM     24  C   UNL     1      30.343  -5.426 -22.209  0.00  0.00    +0.028 C 
ENDBRANCH  20  23
ENDBRANCH   3  20
TORSDOF 3
ENDMDL
