MODEL 1
REMARK VINA RESULT:     -12.0      0.000      0.000
REMARK  Name = 3168
REMARK  6 active torsions:
REMARK  status: ('A' for Active; 'I' for Inactive)
REMARK    1  A    between atoms: N_1  and  C_19
REMARK    2  A    between atoms: C_5  and  N_9
REMARK    3  A    between atoms: C_19  and  C_20
REMARK    4  A    between atoms: C_20  and  C_21
REMARK    5  A    between atoms: C_21  and  C_23
REMARK    6  A    between atoms: C_23  and  C_25
REMARK                            x       y       z     vdW  Elec       q    Type
REMARK                         _______ _______ _______ _____ _____    ______ ____
ROOT
ATOM      1  N   UNL     1      34.446 -16.532 -24.625  0.00  0.00    +0.390 N 
ATOM      2  C   UNL     1      35.496 -15.778 -23.931  0.00  0.00    -0.071 C 
ATOM      3  C   UNL     1      34.905 -14.518 -23.278  0.00  0.00    +0.021 C 
ATOM      4  C   UNL     1      33.866 -15.736 -25.720  0.00  0.00    -0.049 C 
ATOM      5  C   UNL     1      33.980 -13.770 -24.197  0.00  0.00    +0.037 C 
ATOM      6  C   UNL     1      33.517 -14.328 -25.326  0.00  0.00    -0.036 C 
ATOM      7  H   UNL     1      33.708 -16.733 -23.950  0.00  0.00    -0.079 HD
ENDROOT
BRANCH   5   9
ATOM      8  O   UNL     1      34.767 -11.199 -25.509  0.00  0.00    -0.246 OA
ATOM      9  N   UNL     1      33.646 -12.495 -23.841  0.00  0.00    -0.263 N 
ATOM     10  N   UNL     1      33.472 -10.223 -23.794  0.00  0.00    -0.305 N 
ATOM     11  C   UNL     1      32.836 -12.129 -22.749  0.00  0.00    +0.083 A 
ATOM     12  C   UNL     1      34.059 -11.299 -24.516  0.00  0.00    +0.332 A 
ATOM     13  C   UNL     1      32.737 -10.739 -22.729  0.00  0.00    +0.076 A 
ATOM     14  C   UNL     1      32.201 -12.903 -21.800  0.00  0.00    +0.019 C 
ATOM     15  C   UNL     1      32.008 -10.060 -21.777  0.00  0.00    +0.019 C 
ATOM     16  C   UNL     1      31.455 -12.237 -20.821  0.00  0.00    +0.002 C 
ATOM     17  C   UNL     1      31.360 -10.830 -20.810  0.00  0.00    +0.002 C 
ATOM     18  H   UNL     1      33.569  -9.267 -24.012  0.00  0.00    +0.170 HD
ENDBRANCH   5   9
BRANCH   1  19
ATOM     19  C   UNL     1      34.958 -17.806 -25.126  0.00  0.00    -0.076 C 
BRANCH  19  20
ATOM     20  C   UNL     1      34.535 -18.947 -24.199  0.00  0.00    -0.015 C 
BRANCH  20  21
ATOM     21  C   UNL     1      35.669 -19.394 -23.272  0.00  0.00    +0.067 C 
BRANCH  21  23
ATOM     22  O   UNL     1      35.471 -17.952 -21.347  0.00  0.00    -0.291 OA
ATOM     23  C   UNL     1      35.405 -19.090 -21.804  0.00  0.00    +0.173 C 
BRANCH  23  25
ATOM     24  F   UNL     1      34.015 -23.296 -18.404  0.00  0.00    -0.204 F 
ATOM     25  C   UNL     1      35.035 -20.215 -20.898  0.00  0.00    +0.035 C 
ATOM     26  C   UNL     1      33.700 -20.468 -20.671  0.00  0.00    +0.005 C 
ATOM     27  C   UNL     1      36.039 -20.956 -20.319  0.00  0.00    +0.005 C 
ATOM     28  C   UNL     1      33.353 -21.518 -19.821  0.00  0.00    +0.030 C 
ATOM     29  C   UNL     1      35.693 -22.006 -19.468  0.00  0.00    +0.030 C 
ATOM     30  C   UNL     1      34.349 -22.287 -19.220  0.00  0.00    +0.140 C 
ENDBRANCH  23  25
ENDBRANCH  21  23
ENDBRANCH  20  21
ENDBRANCH  19  20
ENDBRANCH   1  19
TORSDOF 6
ENDMDL
MODEL 2
REMARK VINA RESULT:     -11.1      1.427      2.256
REMARK  Name = 3168
REMARK  6 active torsions:
REMARK  status: ('A' for Active; 'I' for Inactive)
REMARK    1  A    between atoms: N_1  and  C_19
REMARK    2  A    between atoms: C_5  and  N_9
REMARK    3  A    between atoms: C_19  and  C_20
REMARK    4  A    between atoms: C_20  and  C_21
REMARK    5  A    between atoms: C_21  and  C_23
REMARK    6  A    between atoms: C_23  and  C_25
REMARK                            x       y       z     vdW  Elec       q    Type
REMARK                         _______ _______ _______ _____ _____    ______ ____
ROOT
ATOM      1  N   UNL     1      34.390 -16.079 -24.550  0.00  0.00    +0.390 N 
ATOM      2  C   UNL     1      35.360 -15.376 -23.702  0.00  0.00    -0.071 C 
ATOM      3  C   UNL     1      34.686 -14.193 -22.990  0.00  0.00    +0.021 C 
ATOM      4  C   UNL     1      33.885 -15.195 -25.613  0.00  0.00    -0.049 C 
ATOM      5  C   UNL     1      33.824 -13.377 -23.913  0.00  0.00    +0.037 C 
ATOM      6  C   UNL     1      33.471 -13.834 -25.123  0.00  0.00    -0.036 C 
ATOM      7  H   UNL     1      33.603 -16.354 -23.962  0.00  0.00    -0.079 HD
ENDROOT
BRANCH   5   9
ATOM      8  O   UNL     1      31.604 -12.691 -22.027  0.00  0.00    -0.246 OA
ATOM      9  N   UNL     1      33.430 -12.146 -23.472  0.00  0.00    -0.263 N 
ATOM     10  N   UNL     1      32.318 -10.472 -22.397  0.00  0.00    -0.305 N 
ATOM     11  C   UNL     1      34.014 -10.916 -23.830  0.00  0.00    +0.083 A 
ATOM     12  C   UNL     1      32.352 -11.885 -22.563  0.00  0.00    +0.332 A 
ATOM     13  C   UNL     1      33.327  -9.900 -23.169  0.00  0.00    +0.076 A 
ATOM     14  C   UNL     1      35.072 -10.633 -24.670  0.00  0.00    +0.019 C 
ATOM     15  C   UNL     1      33.655  -8.569 -23.308  0.00  0.00    +0.019 C 
ATOM     16  C   UNL     1      35.425  -9.288 -24.829  0.00  0.00    +0.002 C 
ATOM     17  C   UNL     1      34.723  -8.267 -24.155  0.00  0.00    +0.002 C 
ATOM     18  H   UNL     1      31.683  -9.978 -21.829  0.00  0.00    +0.170 HD
ENDBRANCH   5   9
BRANCH   1  19
ATOM     19  C   UNL     1      34.972 -17.293 -25.120  0.00  0.00    -0.076 C 
BRANCH  19  20
ATOM     20  C   UNL     1      34.643 -18.500 -24.240  0.00  0.00    -0.015 C 
BRANCH  20  21
ATOM     21  C   UNL     1      35.837 -18.941 -23.388  0.00  0.00    +0.067 C 
BRANCH  21  23
ATOM     22  O   UNL     1      35.735 -17.666 -21.341  0.00  0.00    -0.291 OA
ATOM     23  C   UNL     1      35.613 -18.757 -21.894  0.00  0.00    +0.173 C 
BRANCH  23  25
ATOM     24  F   UNL     1      34.112 -23.185 -18.841  0.00  0.00    -0.204 F 
ATOM     25  C   UNL     1      35.213 -19.940 -21.080  0.00  0.00    +0.035 C 
ATOM     26  C   UNL     1      33.872 -20.224 -20.941  0.00  0.00    +0.005 C 
ATOM     27  C   UNL     1      36.197 -20.705 -20.495  0.00  0.00    +0.005 C 
ATOM     28  C   UNL     1      33.497 -21.330 -20.178  0.00  0.00    +0.030 C 
ATOM     29  C   UNL     1      35.823 -21.810 -19.732  0.00  0.00    +0.030 C 
ATOM     30  C   UNL     1      34.472 -22.123 -19.574  0.00  0.00    +0.140 C 
ENDBRANCH  23  25
ENDBRANCH  21  23
ENDBRANCH  20  21
ENDBRANCH  19  20
ENDBRANCH   1  19
TORSDOF 6
ENDMDL
MODEL 3
REMARK VINA RESULT:     -10.9      5.349     10.948
REMARK  Name = 3168
REMARK  6 active torsions:
REMARK  status: ('A' for Active; 'I' for Inactive)
REMARK    1  A    between atoms: N_1  and  C_19
REMARK    2  A    between atoms: C_5  and  N_9
REMARK    3  A    between atoms: C_19  and  C_20
REMARK    4  A    between atoms: C_20  and  C_21
REMARK    5  A    between atoms: C_21  and  C_23
REMARK    6  A    between atoms: C_23  and  C_25
REMARK                            x       y       z     vdW  Elec       q    Type
REMARK                         _______ _______ _______ _____ _____    ______ ____
ROOT
ATOM      1  N   UNL     1      35.371 -21.313 -19.439  0.00  0.00    +0.390 N 
ATOM      2  C   UNL     1      34.524 -22.481 -19.711  0.00  0.00    -0.071 C 
ATOM      3  C   UNL     1      33.880 -22.987 -18.411  0.00  0.00    +0.021 C 
ATOM      4  C   UNL     1      36.482 -21.670 -18.542  0.00  0.00    -0.049 C 
ATOM      5  C   UNL     1      34.858 -23.067 -17.273  0.00  0.00    +0.037 C 
ATOM      6  C   UNL     1      36.060 -22.474 -17.343  0.00  0.00    -0.036 C 
ATOM      7  H   UNL     1      34.795 -20.613 -18.972  0.00  0.00    -0.079 HD
ENDROOT
BRANCH   5   9
ATOM      8  O   UNL     1      36.416 -25.121 -15.753  0.00  0.00    -0.246 OA
ATOM      9  N   UNL     1      34.479 -23.783 -16.174  0.00  0.00    -0.263 N 
ATOM     10  N   UNL     1      34.473 -25.235 -14.417  0.00  0.00    -0.305 N 
ATOM     11  C   UNL     1      33.236 -23.691 -15.518  0.00  0.00    +0.083 A 
ATOM     12  C   UNL     1      35.277 -24.758 -15.490  0.00  0.00    +0.332 A 
ATOM     13  C   UNL     1      33.244 -24.581 -14.446  0.00  0.00    +0.076 A 
ATOM     14  C   UNL     1      32.133 -22.905 -15.786  0.00  0.00    +0.019 C 
ATOM     15  C   UNL     1      32.168 -24.732 -13.599  0.00  0.00    +0.019 C 
ATOM     16  C   UNL     1      31.027 -23.040 -14.940  0.00  0.00    +0.002 C 
ATOM     17  C   UNL     1      31.045 -23.944 -13.858  0.00  0.00    +0.002 C 
ATOM     18  H   UNL     1      34.743 -25.917 -13.759  0.00  0.00    +0.170 HD
ENDBRANCH   5   9
BRANCH   1  19
ATOM     19  C   UNL     1      35.874 -20.728 -20.680  0.00  0.00    -0.076 C 
BRANCH  19  20
ATOM     20  C   UNL     1      34.822 -19.801 -21.292  0.00  0.00    -0.015 C 
BRANCH  20  21
ATOM     21  C   UNL     1      34.993 -19.648 -22.806  0.00  0.00    +0.067 C 
BRANCH  21  23
ATOM     22  O   UNL     1      37.143 -18.577 -23.044  0.00  0.00    -0.291 OA
ATOM     23  C   UNL     1      35.926 -18.510 -23.197  0.00  0.00    +0.173 C 
BRANCH  23  25
ATOM     24  F   UNL     1      33.721 -13.909 -25.465  0.00  0.00    -0.204 F 
ATOM     25  C   UNL     1      35.338 -17.282 -23.804  0.00  0.00    +0.035 C 
ATOM     26  C   UNL     1      35.301 -16.128 -23.054  0.00  0.00    +0.005 C 
ATOM     27  C   UNL     1      34.853 -17.346 -25.090  0.00  0.00    +0.005 C 
ATOM     28  C   UNL     1      34.750 -14.978 -23.620  0.00  0.00    +0.030 C 
ATOM     29  C   UNL     1      34.301 -16.197 -25.657  0.00  0.00    +0.030 C 
ATOM     30  C   UNL     1      34.250 -15.012 -24.921  0.00  0.00    +0.140 C 
ENDBRANCH  23  25
ENDBRANCH  21  23
ENDBRANCH  20  21
ENDBRANCH  19  20
ENDBRANCH   1  19
TORSDOF 6
ENDMDL
MODEL 4
REMARK VINA RESULT:     -10.8      4.006      9.794
REMARK  Name = 3168
REMARK  6 active torsions:
REMARK  status: ('A' for Active; 'I' for Inactive)
REMARK    1  A    between atoms: N_1  and  C_19
REMARK    2  A    between atoms: C_5  and  N_9
REMARK    3  A    between atoms: C_19  and  C_20
REMARK    4  A    between atoms: C_20  and  C_21
REMARK    5  A    between atoms: C_21  and  C_23
REMARK    6  A    between atoms: C_23  and  C_25
REMARK                            x       y       z     vdW  Elec       q    Type
REMARK                         _______ _______ _______ _____ _____    ______ ____
ROOT
ATOM      1  N   UNL     1      34.329 -15.589 -23.831  0.00  0.00    +0.390 N 
ATOM      2  C   UNL     1      35.224 -16.506 -24.547  0.00  0.00    -0.071 C 
ATOM      3  C   UNL     1      35.284 -17.862 -23.826  0.00  0.00    +0.021 C 
ATOM      4  C   UNL     1      34.837 -15.311 -22.477  0.00  0.00    -0.049 C 
ATOM      5  C   UNL     1      35.452 -17.720 -22.340  0.00  0.00    +0.037 C 
ATOM      6  C   UNL     1      35.261 -16.543 -21.725  0.00  0.00    -0.036 C 
ATOM      7  H   UNL     1      33.420 -16.043 -23.745  0.00  0.00    -0.079 HD
ENDROOT
BRANCH   5   9
ATOM      8  O   UNL     1      38.208 -18.675 -21.674  0.00  0.00    -0.246 OA
ATOM      9  N   UNL     1      35.822 -18.836 -21.645  0.00  0.00    -0.263 N 
ATOM     10  N   UNL     1      37.063 -20.449 -20.620  0.00  0.00    -0.305 N 
ATOM     11  C   UNL     1      34.949 -19.788 -21.087  0.00  0.00    +0.083 A 
ATOM     12  C   UNL     1      37.168 -19.238 -21.360  0.00  0.00    +0.332 A 
ATOM     13  C   UNL     1      35.717 -20.770 -20.463  0.00  0.00    +0.076 A 
ATOM     14  C   UNL     1      33.570 -19.854 -21.087  0.00  0.00    +0.019 C 
ATOM     15  C   UNL     1      35.158 -21.851 -19.817  0.00  0.00    +0.019 C 
ATOM     16  C   UNL     1      32.978 -20.943 -20.437  0.00  0.00    +0.002 C 
ATOM     17  C   UNL     1      33.764 -21.931 -19.809  0.00  0.00    +0.002 C 
ATOM     18  H   UNL     1      37.821 -20.977 -20.275  0.00  0.00    +0.170 HD
ENDBRANCH   5   9
BRANCH   1  19
ATOM     19  C   UNL     1      34.142 -14.346 -24.578  0.00  0.00    -0.076 C 
BRANCH  19  20
ATOM     20  C   UNL     1      34.525 -13.146 -23.712  0.00  0.00    -0.015 C 
BRANCH  20  21
ATOM     21  C   UNL     1      33.575 -11.960 -23.908  0.00  0.00    +0.067 C 
BRANCH  21  23
ATOM     22  O   UNL     1      35.116 -10.686 -25.260  0.00  0.00    -0.291 OA
ATOM     23  C   UNL     1      34.281 -10.689 -24.359  0.00  0.00    +0.173 C 
BRANCH  23  25
ATOM     24  F   UNL     1      32.968  -5.870 -21.863  0.00  0.00    -0.204 F 
ATOM     25  C   UNL     1      33.929  -9.402 -23.693  0.00  0.00    +0.035 C 
ATOM     26  C   UNL     1      34.779  -8.329 -23.841  0.00  0.00    +0.005 C 
ATOM     27  C   UNL     1      32.769  -9.335 -22.955  0.00  0.00    +0.005 C 
ATOM     28  C   UNL     1      34.451  -7.125 -23.217  0.00  0.00    +0.030 C 
ATOM     29  C   UNL     1      32.441  -8.131 -22.331  0.00  0.00    +0.030 C 
ATOM     30  C   UNL     1      33.283  -7.026 -22.462  0.00  0.00    +0.140 C 
ENDBRANCH  23  25
ENDBRANCH  21  23
ENDBRANCH  20  21
ENDBRANCH  19  20
ENDBRANCH   1  19
TORSDOF 6
ENDMDL
MODEL 5
REMARK VINA RESULT:     -10.7      3.457      6.123
REMARK  Name = 3168
REMARK  6 active torsions:
REMARK  status: ('A' for Active; 'I' for Inactive)
REMARK    1  A    between atoms: N_1  and  C_19
REMARK    2  A    between atoms: C_5  and  N_9
REMARK    3  A    between atoms: C_19  and  C_20
REMARK    4  A    between atoms: C_20  and  C_21
REMARK    5  A    between atoms: C_21  and  C_23
REMARK    6  A    between atoms: C_23  and  C_25
REMARK                            x       y       z     vdW  Elec       q    Type
REMARK                         _______ _______ _______ _____ _____    ______ ____
ROOT
ATOM      1  N   UNL     1      36.025 -20.502 -19.857  0.00  0.00    +0.390 N 
ATOM      2  C   UNL     1      37.144 -20.191 -20.756  0.00  0.00    -0.071 C 
ATOM      3  C   UNL     1      36.906 -18.843 -21.456  0.00  0.00    +0.021 C 
ATOM      4  C   UNL     1      34.771 -20.648 -20.614  0.00  0.00    -0.049 C 
ATOM      5  C   UNL     1      35.507 -18.706 -21.987  0.00  0.00    +0.037 C 
ATOM      6  C   UNL     1      34.532 -19.547 -21.610  0.00  0.00    -0.036 C 
ATOM      7  H   UNL     1      35.919 -19.721 -19.210  0.00  0.00    -0.079 HD
ENDROOT
BRANCH   5   9
ATOM      8  O   UNL     1      35.388 -18.854 -24.973  0.00  0.00    -0.246 OA
ATOM      9  N   UNL     1      35.276 -17.700 -22.881  0.00  0.00    -0.263 N 
ATOM     10  N   UNL     1      34.965 -16.537 -24.816  0.00  0.00    -0.305 N 
ATOM     11  C   UNL     1      35.041 -16.349 -22.561  0.00  0.00    +0.083 A 
ATOM     12  C   UNL     1      35.232 -17.838 -24.307  0.00  0.00    +0.332 A 
ATOM     13  C   UNL     1      34.852 -15.648 -23.750  0.00  0.00    +0.076 A 
ATOM     14  C   UNL     1      34.982 -15.711 -21.338  0.00  0.00    +0.019 C 
ATOM     15  C   UNL     1      34.598 -14.294 -23.780  0.00  0.00    +0.019 C 
ATOM     16  C   UNL     1      34.727 -14.335 -21.343  0.00  0.00    +0.002 C 
ATOM     17  C   UNL     1      34.537 -13.634 -22.551  0.00  0.00    +0.002 C 
ATOM     18  H   UNL     1      34.874 -16.302 -25.768  0.00  0.00    +0.170 HD
ENDBRANCH   5   9
BRANCH   1  19
ATOM     19  C   UNL     1      36.300 -21.704 -19.073  0.00  0.00    -0.076 C 
BRANCH  19  20
ATOM     20  C   UNL     1      35.082 -22.630 -19.080  0.00  0.00    -0.015 C 
BRANCH  20  21
ATOM     21  C   UNL     1      34.564 -22.921 -17.669  0.00  0.00    +0.067 C 
BRANCH  21  23
ATOM     22  O   UNL     1      32.343 -22.414 -18.467  0.00  0.00    -0.291 OA
ATOM     23  C   UNL     1      33.050 -22.821 -17.548  0.00  0.00    +0.173 C 
BRANCH  23  25
ATOM     24  F   UNL     1      30.637 -24.443 -12.781  0.00  0.00    -0.204 F 
ATOM     25  C   UNL     1      32.405 -23.253 -16.275  0.00  0.00    +0.035 C 
ATOM     26  C   UNL     1      33.198 -23.772 -15.276  0.00  0.00    +0.005 C 
ATOM     27  C   UNL     1      31.042 -23.118 -16.145  0.00  0.00    +0.005 C 
ATOM     28  C   UNL     1      32.596 -24.178 -14.085  0.00  0.00    +0.030 C 
ATOM     29  C   UNL     1      30.438 -23.524 -14.955  0.00  0.00    +0.030 C 
ATOM     30  C   UNL     1      31.216 -24.054 -13.924  0.00  0.00    +0.140 C 
ENDBRANCH  23  25
ENDBRANCH  21  23
ENDBRANCH  20  21
ENDBRANCH  19  20
ENDBRANCH   1  19
TORSDOF 6
ENDMDL
MODEL 6
REMARK VINA RESULT:     -10.4      6.214     12.146
REMARK  Name = 3168
REMARK  6 active torsions:
REMARK  status: ('A' for Active; 'I' for Inactive)
REMARK    1  A    between atoms: N_1  and  C_19
REMARK    2  A    between atoms: C_5  and  N_9
REMARK    3  A    between atoms: C_19  and  C_20
REMARK    4  A    between atoms: C_20  and  C_21
REMARK    5  A    between atoms: C_21  and  C_23
REMARK    6  A    between atoms: C_23  and  C_25
REMARK                            x       y       z     vdW  Elec       q    Type
REMARK                         _______ _______ _______ _____ _____    ______ ____
ROOT
ATOM      1  N   UNL     1      33.919 -22.430 -17.980  0.00  0.00    +0.390 N 
ATOM      2  C   UNL     1      33.414 -23.774 -17.671  0.00  0.00    -0.071 C 
ATOM      3  C   UNL     1      33.660 -24.108 -16.192  0.00  0.00    +0.021 C 
ATOM      4  C   UNL     1      35.376 -22.360 -17.781  0.00  0.00    -0.049 C 
ATOM      5  C   UNL     1      35.048 -23.748 -15.740  0.00  0.00    +0.037 C 
ATOM      6  C   UNL     1      35.839 -22.957 -16.481  0.00  0.00    -0.036 C 
ATOM      7  H   UNL     1      33.476 -21.775 -17.337  0.00  0.00    -0.079 HD
ENDROOT
BRANCH   5   9
ATOM      8  O   UNL     1      33.533 -24.035 -13.176  0.00  0.00    -0.246 OA
ATOM      9  N   UNL     1      35.473 -24.274 -14.554  0.00  0.00    -0.263 N 
ATOM     10  N   UNL     1      35.545 -24.988 -12.391  0.00  0.00    -0.305 N 
ATOM     11  C   UNL     1      36.752 -24.803 -14.298  0.00  0.00    +0.083 A 
ATOM     12  C   UNL     1      34.693 -24.382 -13.356  0.00  0.00    +0.332 A 
ATOM     13  C   UNL     1      36.786 -25.236 -12.973  0.00  0.00    +0.076 A 
ATOM     14  C   UNL     1      37.856 -24.927 -15.117  0.00  0.00    +0.019 C 
ATOM     15  C   UNL     1      37.905 -25.807 -12.407  0.00  0.00    +0.019 C 
ATOM     16  C   UNL     1      39.005 -25.504 -14.565  0.00  0.00    +0.002 C 
ATOM     17  C   UNL     1      39.029 -25.939 -13.224  0.00  0.00    +0.002 C 
ATOM     18  H   UNL     1      35.298 -25.198 -11.461  0.00  0.00    +0.170 HD
ENDBRANCH   5   9
BRANCH   1  19
ATOM     19  C   UNL     1      33.562 -22.036 -19.342  0.00  0.00    -0.076 C 
BRANCH  19  20
ATOM     20  C   UNL     1      34.755 -21.366 -20.027  0.00  0.00    -0.015 C 
BRANCH  20  21
ATOM     21  C   UNL     1      34.326 -20.242 -20.974  0.00  0.00    +0.067 C 
BRANCH  21  23
ATOM     22  O   UNL     1      36.573 -19.364 -20.890  0.00  0.00    -0.291 OA
ATOM     23  C   UNL     1      35.487 -19.389 -21.465  0.00  0.00    +0.173 C 
BRANCH  23  25
ATOM     24  F   UNL     1      34.789 -16.327 -26.081  0.00  0.00    -0.204 F 
ATOM     25  C   UNL     1      35.302 -18.573 -22.699  0.00  0.00    +0.035 C 
ATOM     26  C   UNL     1      35.630 -17.236 -22.660  0.00  0.00    +0.005 C 
ATOM     27  C   UNL     1      34.809 -19.184 -23.829  0.00  0.00    +0.005 C 
ATOM     28  C   UNL     1      35.455 -16.470 -23.813  0.00  0.00    +0.030 C 
ATOM     29  C   UNL     1      34.634 -18.419 -24.982  0.00  0.00    +0.030 C 
ATOM     30  C   UNL     1      34.957 -17.061 -24.974  0.00  0.00    +0.140 C 
ENDBRANCH  23  25
ENDBRANCH  21  23
ENDBRANCH  20  21
ENDBRANCH  19  20
ENDBRANCH   1  19
TORSDOF 6
ENDMDL
MODEL 7
REMARK VINA RESULT:     -10.4      4.427      7.588
REMARK  Name = 3168
REMARK  6 active torsions:
REMARK  status: ('A' for Active; 'I' for Inactive)
REMARK    1  A    between atoms: N_1  and  C_19
REMARK    2  A    between atoms: C_5  and  N_9
REMARK    3  A    between atoms: C_19  and  C_20
REMARK    4  A    between atoms: C_20  and  C_21
REMARK    5  A    between atoms: C_21  and  C_23
REMARK    6  A    between atoms: C_23  and  C_25
REMARK                            x       y       z     vdW  Elec       q    Type
REMARK                         _______ _______ _______ _____ _____    ______ ____
ROOT
ATOM      1  N   UNL     1      31.930  -9.068 -20.650  0.00  0.00    +0.390 N 
ATOM      2  C   UNL     1      33.073  -8.166 -20.470  0.00  0.00    -0.071 C 
ATOM      3  C   UNL     1      32.784  -6.803 -21.118  0.00  0.00    +0.021 C 
ATOM      4  C   UNL     1      31.694  -9.336 -22.079  0.00  0.00    -0.049 C 
ATOM      5  C   UNL     1      32.188  -6.931 -22.492  0.00  0.00    +0.037 C 
ATOM      6  C   UNL     1      31.702  -8.100 -22.936  0.00  0.00    -0.036 C 
ATOM      7  H   UNL     1      31.104  -8.606 -20.271  0.00  0.00    -0.079 HD
ENDROOT
BRANCH   5   9
ATOM      8  O   UNL     1      30.277  -4.629 -22.429  0.00  0.00    -0.246 OA
ATOM      9  N   UNL     1      32.177  -5.811 -23.273  0.00  0.00    -0.263 N 
ATOM     10  N   UNL     1      31.613  -3.802 -24.191  0.00  0.00    -0.305 N 
ATOM     11  C   UNL     1      33.097  -5.510 -24.296  0.00  0.00    +0.083 A 
ATOM     12  C   UNL     1      31.228  -4.739 -23.191  0.00  0.00    +0.332 A 
ATOM     13  C   UNL     1      32.743  -4.281 -24.850  0.00  0.00    +0.076 A 
ATOM     14  C   UNL     1      34.188  -6.215 -24.762  0.00  0.00    +0.019 C 
ATOM     15  C   UNL     1      33.449  -3.701 -25.882  0.00  0.00    +0.019 C 
ATOM     16  C   UNL     1      34.921  -5.647 -25.810  0.00  0.00    +0.002 C 
ATOM     17  C   UNL     1      34.555  -4.403 -26.363  0.00  0.00    +0.002 C 
ATOM     18  H   UNL     1      31.155  -2.952 -24.385  0.00  0.00    +0.170 HD
ENDBRANCH   5   9
BRANCH   1  19
ATOM     19  C   UNL     1      32.125 -10.317 -19.915  0.00  0.00    -0.076 C 
BRANCH  19  20
ATOM     20  C   UNL     1      31.461 -11.477 -20.659  0.00  0.00    -0.015 C 
BRANCH  20  21
ATOM     21  C   UNL     1      32.344 -12.727 -20.693  0.00  0.00    +0.067 C 
BRANCH  21  23
ATOM     22  O   UNL     1      32.946 -12.134 -22.954  0.00  0.00    -0.291 OA
ATOM     23  C   UNL     1      33.039 -12.940 -22.031  0.00  0.00    +0.173 C 
BRANCH  23  25
ATOM     24  F   UNL     1      36.175 -17.507 -22.720  0.00  0.00    -0.204 F 
ATOM     25  C   UNL     1      33.875 -14.160 -22.216  0.00  0.00    +0.035 C 
ATOM     26  C   UNL     1      34.249 -14.879 -21.102  0.00  0.00    +0.005 C 
ATOM     27  C   UNL     1      34.243 -14.522 -23.491  0.00  0.00    +0.005 C 
ATOM     28  C   UNL     1      35.034 -16.020 -21.274  0.00  0.00    +0.030 C 
ATOM     29  C   UNL     1      35.027 -15.663 -23.664  0.00  0.00    +0.030 C 
ATOM     30  C   UNL     1      35.423 -16.412 -22.555  0.00  0.00    +0.140 C 
ENDBRANCH  23  25
ENDBRANCH  21  23
ENDBRANCH  20  21
ENDBRANCH  19  20
ENDBRANCH   1  19
TORSDOF 6
ENDMDL
MODEL 8
REMARK VINA RESULT:     -10.3      6.329     12.131
REMARK  Name = 3168
REMARK  6 active torsions:
REMARK  status: ('A' for Active; 'I' for Inactive)
REMARK    1  A    between atoms: N_1  and  C_19
REMARK    2  A    between atoms: C_5  and  N_9
REMARK    3  A    between atoms: C_19  and  C_20
REMARK    4  A    between atoms: C_20  and  C_21
REMARK    5  A    between atoms: C_21  and  C_23
REMARK    6  A    between atoms: C_23  and  C_25
REMARK                            x       y       z     vdW  Elec       q    Type
REMARK                         _______ _______ _______ _____ _____    ______ ____
ROOT
ATOM      1  N   UNL     1      34.033 -22.964 -17.999  0.00  0.00    +0.390 N 
ATOM      2  C   UNL     1      35.274 -22.303 -17.578  0.00  0.00    -0.071 C 
ATOM      3  C   UNL     1      36.223 -23.319 -16.923  0.00  0.00    +0.021 C 
ATOM      4  C   UNL     1      33.311 -23.510 -16.838  0.00  0.00    -0.049 C 
ATOM      5  C   UNL     1      35.523 -24.214 -15.939  0.00  0.00    +0.037 C 
ATOM      6  C   UNL     1      34.184 -24.287 -15.892  0.00  0.00    -0.036 C 
ATOM      7  H   UNL     1      34.284 -23.738 -18.613  0.00  0.00    -0.079 HD
ENDROOT
BRANCH   5   9
ATOM      8  O   UNL     1      36.397 -27.067 -16.163  0.00  0.00    -0.246 OA
ATOM      9  N   UNL     1      36.308 -24.934 -15.084  0.00  0.00    -0.263 N 
ATOM     10  N   UNL     1      37.502 -26.622 -14.125  0.00  0.00    -0.305 N 
ATOM     11  C   UNL     1      36.879 -24.457 -13.889  0.00  0.00    +0.083 A 
ATOM     12  C   UNL     1      36.691 -26.305 -15.251  0.00  0.00    +0.332 A 
ATOM     13  C   UNL     1      37.606 -25.496 -13.311  0.00  0.00    +0.076 A 
ATOM     14  C   UNL     1      36.810 -23.216 -13.291  0.00  0.00    +0.019 C 
ATOM     15  C   UNL     1      38.291 -25.352 -12.124  0.00  0.00    +0.019 C 
ATOM     16  C   UNL     1      37.496 -23.044 -12.083  0.00  0.00    +0.002 C 
ATOM     17  C   UNL     1      38.229 -24.102 -11.507  0.00  0.00    +0.002 C 
ATOM     18  H   UNL     1      37.921 -27.496 -13.949  0.00  0.00    +0.170 HD
ENDBRANCH   5   9
BRANCH   1  19
ATOM     19  C   UNL     1      33.180 -22.047 -18.755  0.00  0.00    -0.076 C 
BRANCH  19  20
ATOM     20  C   UNL     1      33.709 -21.890 -20.182  0.00  0.00    -0.015 C 
BRANCH  20  21
ATOM     21  C   UNL     1      33.668 -20.435 -20.659  0.00  0.00    +0.067 C 
BRANCH  21  23
ATOM     22  O   UNL     1      36.063 -20.190 -20.474  0.00  0.00    -0.291 OA
ATOM     23  C   UNL     1      35.031 -19.897 -21.074  0.00  0.00    +0.173 C 
BRANCH  23  25
ATOM     24  F   UNL     1      35.334 -16.533 -25.519  0.00  0.00    -0.204 F 
ATOM     25  C   UNL     1      35.113 -19.000 -22.262  0.00  0.00    +0.035 C 
ATOM     26  C   UNL     1      35.597 -17.722 -22.092  0.00  0.00    +0.005 C 
ATOM     27  C   UNL     1      34.700 -19.481 -23.484  0.00  0.00    +0.005 C 
ATOM     28  C   UNL     1      35.672 -16.881 -23.202  0.00  0.00    +0.030 C 
ATOM     29  C   UNL     1      34.775 -18.640 -24.595  0.00  0.00    +0.030 C 
ATOM     30  C   UNL     1      35.261 -17.340 -24.453  0.00  0.00    +0.140 C 
ENDBRANCH  23  25
ENDBRANCH  21  23
ENDBRANCH  20  21
ENDBRANCH  19  20
ENDBRANCH   1  19
TORSDOF 6
ENDMDL
MODEL 9
REMARK VINA RESULT:     -10.2      4.552      7.927
REMARK  Name = 3168
REMARK  6 active torsions:
REMARK  status: ('A' for Active; 'I' for Inactive)
REMARK    1  A    between atoms: N_1  and  C_19
REMARK    2  A    between atoms: C_5  and  N_9
REMARK    3  A    between atoms: C_19  and  C_20
REMARK    4  A    between atoms: C_20  and  C_21
REMARK    5  A    between atoms: C_21  and  C_23
REMARK    6  A    between atoms: C_23  and  C_25
REMARK                            x       y       z     vdW  Elec       q    Type
REMARK                         _______ _______ _______ _____ _____    ______ ____
ROOT
ATOM      1  N   UNL     1      32.430  -9.359 -21.666  0.00  0.00    +0.390 N 
ATOM      2  C   UNL     1      31.392  -9.198 -22.691  0.00  0.00    -0.071 C 
ATOM      3  C   UNL     1      31.765  -8.059 -23.653  0.00  0.00    +0.021 C 
ATOM      4  C   UNL     1      32.544  -8.145 -20.840  0.00  0.00    -0.049 C 
ATOM      5  C   UNL     1      32.254  -6.832 -22.936  0.00  0.00    +0.037 C 
ATOM      6  C   UNL     1      32.596  -6.872 -21.640  0.00  0.00    -0.036 C 
ATOM      7  H   UNL     1      33.319  -9.506 -22.143  0.00  0.00    -0.079 HD
ENDROOT
BRANCH   5   9
ATOM      8  O   UNL     1      30.472  -4.434 -22.779  0.00  0.00    -0.246 OA
ATOM      9  N   UNL     1      32.319  -5.674 -23.657  0.00  0.00    -0.263 N 
ATOM     10  N   UNL     1      31.881  -3.592 -24.474  0.00  0.00    -0.305 N 
ATOM     11  C   UNL     1      33.271  -5.372 -24.649  0.00  0.00    +0.083 A 
ATOM     12  C   UNL     1      31.428  -4.557 -23.532  0.00  0.00    +0.332 A 
ATOM     13  C   UNL     1      32.994  -4.098 -25.142  0.00  0.00    +0.076 A 
ATOM     14  C   UNL     1      34.329  -6.111 -25.135  0.00  0.00    +0.019 C 
ATOM     15  C   UNL     1      33.748  -3.505 -26.131  0.00  0.00    +0.019 C 
ATOM     16  C   UNL     1      35.111  -5.531 -26.141  0.00  0.00    +0.002 C 
ATOM     17  C   UNL     1      34.823  -4.241 -26.633  0.00  0.00    +0.002 C 
ATOM     18  H   UNL     1      31.473  -2.709 -24.630  0.00  0.00    +0.170 HD
ENDBRANCH   5   9
BRANCH   1  19
ATOM     19  C   UNL     1      32.167 -10.530 -20.831  0.00  0.00    -0.076 C 
BRANCH  19  20
ATOM     20  C   UNL     1      31.604 -11.669 -21.681  0.00  0.00    -0.015 C 
BRANCH  20  21
ATOM     21  C   UNL     1      32.628 -12.784 -21.911  0.00  0.00    +0.067 C 
BRANCH  21  23
ATOM     22  O   UNL     1      33.601 -11.572 -23.758  0.00  0.00    -0.291 OA
ATOM     23  C   UNL     1      33.370 -12.659 -23.235  0.00  0.00    +0.173 C 
BRANCH  23  25
ATOM     24  F   UNL     1      35.146 -17.316 -25.751  0.00  0.00    -0.204 F 
ATOM     25  C   UNL     1      33.846 -13.902 -23.907  0.00  0.00    +0.035 C 
ATOM     26  C   UNL     1      33.401 -14.175 -25.181  0.00  0.00    +0.005 C 
ATOM     27  C   UNL     1      34.710 -14.732 -23.228  0.00  0.00    +0.005 C 
ATOM     28  C   UNL     1      33.844 -15.339 -25.810  0.00  0.00    +0.030 C 
ATOM     29  C   UNL     1      35.153 -15.896 -23.856  0.00  0.00    +0.030 C 
ATOM     30  C   UNL     1      34.720 -16.199 -25.148  0.00  0.00    +0.140 C 
ENDBRANCH  23  25
ENDBRANCH  21  23
ENDBRANCH  20  21
ENDBRANCH  19  20
ENDBRANCH   1  19
TORSDOF 6
ENDMDL
