MODEL 1
REMARK VINA RESULT:     -11.1      0.000      0.000
REMARK  Name = 9887812
REMARK  11 active torsions:
REMARK  status: ('A' for Active; 'I' for Inactive)
REMARK    1  A    between atoms: N_1  and  C_3
REMARK    2  A    between atoms: N_1  and  C_19
REMARK    3  A    between atoms: C_4  and  C_9
REMARK    4  A    between atoms: C_12  and  C_16
REMARK    5  A    between atoms: C_16  and  O_17
REMARK    6  A    between atoms: C_19  and  C_20
REMARK    7  A    between atoms: C_20  and  N_21
REMARK    8  A    between atoms: N_21  and  C_24
REMARK    9  A    between atoms: C_24  and  C_25
REMARK   10  A    between atoms: C_25  and  C_27
REMARK   11  A    between atoms: C_25  and  O_33
REMARK                            x       y       z     vdW  Elec       q    Type
REMARK                         _______ _______ _______ _____ _____    ______ ____
ROOT
ATOM      1  N   UNL     1      35.076 -22.480 -19.459  0.00  0.00    -0.335 N 
ATOM      2  H   UNL     1      34.866 -23.176 -20.122  0.00  0.00    +0.147 HD
ENDROOT
BRANCH   1   3
ATOM      3  C   UNL     1      34.749 -22.715 -18.108  0.00  0.00    +0.045 C 
ATOM      4  C   UNL     1      33.126 -23.313 -16.421  0.00  0.00    +0.001 C 
ATOM      5  C   UNL     1      33.449 -23.081 -17.758  0.00  0.00    +0.014 C 
ATOM      6  C   UNL     1      35.725 -22.582 -17.120  0.00  0.00    +0.014 C 
ATOM      7  C   UNL     1      34.102 -23.180 -15.433  0.00  0.00    +0.000 C 
ATOM      8  C   UNL     1      35.402 -22.813 -15.784  0.00  0.00    +0.001 C 
BRANCH   4   9
ATOM      9  C   UNL     1      31.778 -23.692 -16.059  0.00  0.00    +0.000 C 
ATOM     10  C   UNL     1      30.692 -23.160 -16.755  0.00  0.00    +0.006 C 
ATOM     11  C   UNL     1      31.564 -24.590 -15.013  0.00  0.00    +0.000 C 
ATOM     12  C   UNL     1      29.393 -23.526 -16.404  0.00  0.00    +0.075 C 
ATOM     13  C   UNL     1      30.263 -24.955 -14.662  0.00  0.00    +0.000 C 
ATOM     14  C   UNL     1      29.178 -24.423 -15.359  0.00  0.00    +0.006 C 
BRANCH  12  16
ATOM     15  O   UNL     1      27.826 -21.822 -17.011  0.00  0.00    -0.245 OA
ATOM     16  C   UNL     1      28.260 -22.972 -17.131  0.00  0.00    +0.338 C 
BRANCH  16  17
ATOM     17  O   UNL     1      27.700 -23.872 -17.986  0.00  0.00    -0.477 OA
ATOM     18  H   UNL     1      27.607 -24.768 -17.728  0.00  0.00    +0.295 HD
ENDBRANCH  16  17
ENDBRANCH  12  16
ENDBRANCH   4   9
ENDBRANCH   1   3
BRANCH   1  19
ATOM     19  C   UNL     1      35.702 -21.274 -19.908  0.00  0.00    +0.064 C 
BRANCH  19  20
ATOM     20  C   UNL     1      34.685 -20.413 -20.645  0.00  0.00    -0.060 C 
BRANCH  20  21
ATOM     21  N   UNL     1      35.361 -19.375 -21.414  0.00  0.00    +0.387 N 
ATOM     22  H   UNL     1      35.122 -18.463 -21.024  0.00  0.00    -0.084 HD
ATOM     23  H   UNL     1      36.367 -19.533 -21.360  0.00  0.00    -0.084 HD
BRANCH  21  24
ATOM     24  C   UNL     1      34.955 -19.417 -22.812  0.00  0.00    -0.047 C 
BRANCH  24  25
ATOM     25  C   UNL     1      35.913 -18.594 -23.682  0.00  0.00    +0.112 C 
BRANCH  25  27
ATOM     26 CL   UNL     1      34.708 -13.607 -22.830  0.00  0.00    -0.082 Cl
ATOM     27  C   UNL     1      35.260 -17.319 -24.170  0.00  0.00    +0.003 C 
ATOM     28  C   UNL     1      35.287 -16.194 -23.364  0.00  0.00    +0.009 C 
ATOM     29  C   UNL     1      34.650 -17.305 -25.413  0.00  0.00    -0.002 C 
ATOM     30  C   UNL     1      34.686 -15.019 -23.815  0.00  0.00    +0.057 C 
ATOM     31  C   UNL     1      34.049 -16.131 -25.863  0.00  0.00    +0.001 C 
ATOM     32  C   UNL     1      34.067 -14.987 -25.065  0.00  0.00    +0.011 C 
ENDBRANCH  25  27
BRANCH  25  33
ATOM     33  O   UNL     1      37.077 -18.241 -22.938  0.00  0.00    -0.382 OA
ATOM     34  H   UNL     1      37.765 -18.912 -23.075  0.00  0.00    +0.211 HD
ENDBRANCH  25  33
ENDBRANCH  24  25
ENDBRANCH  21  24
ENDBRANCH  20  21
ENDBRANCH  19  20
ENDBRANCH   1  19
TORSDOF 11
ENDMDL
MODEL 2
REMARK VINA RESULT:     -11.0      7.845     11.562
REMARK  Name = 9887812
REMARK  11 active torsions:
REMARK  status: ('A' for Active; 'I' for Inactive)
REMARK    1  A    between atoms: N_1  and  C_3
REMARK    2  A    between atoms: N_1  and  C_19
REMARK    3  A    between atoms: C_4  and  C_9
REMARK    4  A    between atoms: C_12  and  C_16
REMARK    5  A    between atoms: C_16  and  O_17
REMARK    6  A    between atoms: C_19  and  C_20
REMARK    7  A    between atoms: C_20  and  N_21
REMARK    8  A    between atoms: N_21  and  C_24
REMARK    9  A    between atoms: C_24  and  C_25
REMARK   10  A    between atoms: C_25  and  C_27
REMARK   11  A    between atoms: C_25  and  O_33
REMARK                            x       y       z     vdW  Elec       q    Type
REMARK                         _______ _______ _______ _____ _____    ______ ____
ROOT
ATOM      1  N   UNL     1      31.334 -11.790 -21.401  0.00  0.00    -0.335 N 
ATOM      2  H   UNL     1      30.414 -11.545 -21.651  0.00  0.00    +0.147 HD
ENDROOT
BRANCH   1   3
ATOM      3  C   UNL     1      32.293 -11.940 -22.425  0.00  0.00    +0.045 C 
ATOM      4  C   UNL     1      33.707 -13.357 -23.777  0.00  0.00    +0.001 C 
ATOM      5  C   UNL     1      32.758 -13.209 -22.765  0.00  0.00    +0.014 C 
ATOM      6  C   UNL     1      32.777 -10.817 -23.097  0.00  0.00    +0.014 C 
ATOM      7  C   UNL     1      34.191 -12.235 -24.449  0.00  0.00    +0.000 C 
ATOM      8  C   UNL     1      33.726 -10.964 -24.108  0.00  0.00    +0.001 C 
BRANCH   4   9
ATOM      9  C   UNL     1      34.189 -14.675 -24.129  0.00  0.00    +0.000 C 
ATOM     10  C   UNL     1      34.856 -15.451 -23.180  0.00  0.00    +0.006 C 
ATOM     11  C   UNL     1      33.987 -15.169 -25.417  0.00  0.00    +0.000 C 
ATOM     12  C   UNL     1      35.321 -16.720 -23.521  0.00  0.00    +0.075 C 
ATOM     13  C   UNL     1      34.453 -16.440 -25.758  0.00  0.00    +0.000 C 
ATOM     14  C   UNL     1      35.120 -17.216 -24.809  0.00  0.00    +0.006 C 
BRANCH  12  16
ATOM     15  O   UNL     1      35.759 -17.561 -21.323  0.00  0.00    -0.245 OA
ATOM     16  C   UNL     1      36.015 -17.531 -22.532  0.00  0.00    +0.338 C 
BRANCH  16  17
ATOM     17  O   UNL     1      37.011 -18.281 -23.080  0.00  0.00    -0.477 OA
ATOM     18  H   UNL     1      36.912 -18.632 -23.942  0.00  0.00    +0.295 HD
ENDBRANCH  16  17
ENDBRANCH  12  16
ENDBRANCH   4   9
ENDBRANCH   1   3
BRANCH   1  19
ATOM     19  C   UNL     1      31.640 -11.975 -20.016  0.00  0.00    +0.064 C 
BRANCH  19  20
ATOM     20  C   UNL     1      31.236 -10.733 -19.233  0.00  0.00    -0.060 C 
BRANCH  20  21
ATOM     21  N   UNL     1      32.316  -9.753 -19.244  0.00  0.00    +0.387 N 
ATOM     22  H   UNL     1      32.496  -9.445 -18.288  0.00  0.00    -0.084 HD
ATOM     23  H   UNL     1      33.148 -10.189 -19.639  0.00  0.00    -0.084 HD
BRANCH  21  24
ATOM     24  C   UNL     1      31.962  -8.599 -20.059  0.00  0.00    -0.047 C 
BRANCH  24  25
ATOM     25  C   UNL     1      33.211  -7.981 -20.700  0.00  0.00    +0.112 C 
BRANCH  25  27
ATOM     26 CL   UNL     1      34.899  -5.696 -25.056  0.00  0.00    -0.082 Cl
ATOM     27  C   UNL     1      32.890  -7.345 -22.035  0.00  0.00    +0.003 C 
ATOM     28  C   UNL     1      33.924  -6.874 -22.825  0.00  0.00    +0.009 C 
ATOM     29  C   UNL     1      31.569  -7.249 -22.438  0.00  0.00    -0.002 C 
ATOM     30  C   UNL     1      33.628  -6.288 -24.056  0.00  0.00    +0.057 C 
ATOM     31  C   UNL     1      31.274  -6.663 -23.668  0.00  0.00    +0.001 C 
ATOM     32  C   UNL     1      32.303  -6.183 -24.478  0.00  0.00    +0.011 C 
ENDBRANCH  25  27
BRANCH  25  33
ATOM     33  O   UNL     1      33.759  -6.977 -19.848  0.00  0.00    -0.382 OA
ATOM     34  H   UNL     1      33.612  -6.103 -20.241  0.00  0.00    +0.211 HD
ENDBRANCH  25  33
ENDBRANCH  24  25
ENDBRANCH  21  24
ENDBRANCH  20  21
ENDBRANCH  19  20
ENDBRANCH   1  19
TORSDOF 11
ENDMDL
MODEL 3
REMARK VINA RESULT:     -10.9      3.488      4.778
REMARK  Name = 9887812
REMARK  11 active torsions:
REMARK  status: ('A' for Active; 'I' for Inactive)
REMARK    1  A    between atoms: N_1  and  C_3
REMARK    2  A    between atoms: N_1  and  C_19
REMARK    3  A    between atoms: C_4  and  C_9
REMARK    4  A    between atoms: C_12  and  C_16
REMARK    5  A    between atoms: C_16  and  O_17
REMARK    6  A    between atoms: C_19  and  C_20
REMARK    7  A    between atoms: C_20  and  N_21
REMARK    8  A    between atoms: N_21  and  C_24
REMARK    9  A    between atoms: C_24  and  C_25
REMARK   10  A    between atoms: C_25  and  C_27
REMARK   11  A    between atoms: C_25  and  O_33
REMARK                            x       y       z     vdW  Elec       q    Type
REMARK                         _______ _______ _______ _____ _____    ______ ____
ROOT
ATOM      1  N   UNL     1      32.985 -22.677 -18.785  0.00  0.00    -0.335 N 
ATOM      2  H   UNL     1      32.222 -22.801 -19.394  0.00  0.00    +0.147 HD
ENDROOT
BRANCH   1   3
ATOM      3  C   UNL     1      32.836 -23.050 -17.434  0.00  0.00    +0.045 C 
ATOM      4  C   UNL     1      33.772 -23.942 -15.393  0.00  0.00    +0.001 C 
ATOM      5  C   UNL     1      33.921 -23.573 -16.730  0.00  0.00    +0.014 C 
ATOM      6  C   UNL     1      31.602 -22.899 -16.800  0.00  0.00    +0.014 C 
ATOM      7  C   UNL     1      32.539 -23.790 -14.759  0.00  0.00    +0.000 C 
ATOM      8  C   UNL     1      31.453 -23.269 -15.464  0.00  0.00    +0.001 C 
BRANCH   4   9
ATOM      9  C   UNL     1      34.898 -24.484 -14.663  0.00  0.00    +0.000 C 
ATOM     10  C   UNL     1      34.955 -24.360 -13.275  0.00  0.00    +0.006 C 
ATOM     11  C   UNL     1      35.926 -25.131 -15.349  0.00  0.00    +0.000 C 
ATOM     12  C   UNL     1      36.041 -24.883 -12.573  0.00  0.00    +0.075 C 
ATOM     13  C   UNL     1      37.012 -25.653 -14.646  0.00  0.00    +0.000 C 
ATOM     14  C   UNL     1      37.070 -25.529 -13.258  0.00  0.00    +0.006 C 
BRANCH  12  16
ATOM     15  O   UNL     1      35.362 -25.337 -10.324  0.00  0.00    -0.245 OA
ATOM     16  C   UNL     1      36.101 -24.755 -11.125  0.00  0.00    +0.338 C 
BRANCH  16  17
ATOM     17  O   UNL     1      37.082 -23.903 -10.717  0.00  0.00    -0.477 OA
ATOM     18  H   UNL     1      37.067 -23.554  -9.849  0.00  0.00    +0.295 HD
ENDBRANCH  16  17
ENDBRANCH  12  16
ENDBRANCH   4   9
ENDBRANCH   1   3
BRANCH   1  19
ATOM     19  C   UNL     1      34.198 -22.129 -19.311  0.00  0.00    +0.064 C 
BRANCH  19  20
ATOM     20  C   UNL     1      33.872 -20.969 -20.243  0.00  0.00    -0.060 C 
BRANCH  20  21
ATOM     21  N   UNL     1      35.100 -20.356 -20.737  0.00  0.00    +0.387 N 
ATOM     22  H   UNL     1      35.411 -19.650 -20.070  0.00  0.00    -0.084 HD
ATOM     23  H   UNL     1      35.807 -21.083 -20.842  0.00  0.00    -0.084 HD
BRANCH  21  24
ATOM     24  C   UNL     1      34.881 -19.727 -22.032  0.00  0.00    -0.047 C 
BRANCH  24  25
ATOM     25  C   UNL     1      35.867 -18.572 -22.250  0.00  0.00    +0.112 C 
BRANCH  25  27
ATOM     26 CL   UNL     1      34.756 -13.695 -23.671  0.00  0.00    -0.082 Cl
ATOM     27  C   UNL     1      35.372 -17.615 -23.312  0.00  0.00    +0.003 C 
ATOM     28  C   UNL     1      35.304 -16.263 -23.025  0.00  0.00    +0.009 C 
ATOM     29  C   UNL     1      34.999 -18.113 -24.549  0.00  0.00    -0.002 C 
ATOM     30  C   UNL     1      34.848 -15.381 -24.006  0.00  0.00    +0.057 C 
ATOM     31  C   UNL     1      34.543 -17.231 -25.529  0.00  0.00    +0.001 C 
ATOM     32  C   UNL     1      34.468 -15.865 -25.257  0.00  0.00    +0.011 C 
ENDBRANCH  25  27
BRANCH  25  33
ATOM     33  O   UNL     1      36.046 -17.840 -21.039  0.00  0.00    -0.382 OA
ATOM     34  H   UNL     1      36.291 -16.925 -21.247  0.00  0.00    +0.211 HD
ENDBRANCH  25  33
ENDBRANCH  24  25
ENDBRANCH  21  24
ENDBRANCH  20  21
ENDBRANCH  19  20
ENDBRANCH   1  19
TORSDOF 11
ENDMDL
MODEL 4
REMARK VINA RESULT:     -10.9      4.794      8.117
REMARK  Name = 9887812
REMARK  11 active torsions:
REMARK  status: ('A' for Active; 'I' for Inactive)
REMARK    1  A    between atoms: N_1  and  C_3
REMARK    2  A    between atoms: N_1  and  C_19
REMARK    3  A    between atoms: C_4  and  C_9
REMARK    4  A    between atoms: C_12  and  C_16
REMARK    5  A    between atoms: C_16  and  O_17
REMARK    6  A    between atoms: C_19  and  C_20
REMARK    7  A    between atoms: C_20  and  N_21
REMARK    8  A    between atoms: N_21  and  C_24
REMARK    9  A    between atoms: C_24  and  C_25
REMARK   10  A    between atoms: C_25  and  C_27
REMARK   11  A    between atoms: C_25  and  O_33
REMARK                            x       y       z     vdW  Elec       q    Type
REMARK                         _______ _______ _______ _____ _____    ______ ____
ROOT
ATOM      1  N   UNL     1      35.331 -15.298 -23.437  0.00  0.00    -0.335 N 
ATOM      2  H   UNL     1      36.236 -14.915 -23.396  0.00  0.00    +0.147 HD
ENDROOT
BRANCH   1   3
ATOM      3  C   UNL     1      35.197 -16.693 -23.595  0.00  0.00    +0.045 C 
ATOM      4  C   UNL     1      35.313 -18.925 -22.677  0.00  0.00    +0.001 C 
ATOM      5  C   UNL     1      35.445 -17.545 -22.519  0.00  0.00    +0.014 C 
ATOM      6  C   UNL     1      34.818 -17.222 -24.829  0.00  0.00    +0.014 C 
ATOM      7  C   UNL     1      34.934 -19.453 -23.911  0.00  0.00    +0.000 C 
ATOM      8  C   UNL     1      34.687 -18.601 -24.988  0.00  0.00    +0.001 C 
BRANCH   4   9
ATOM      9  C   UNL     1      35.571 -19.808 -21.561  0.00  0.00    +0.000 C 
ATOM     10  C   UNL     1      34.550 -20.619 -21.062  0.00  0.00    +0.006 C 
ATOM     11  C   UNL     1      36.839 -19.848 -20.983  0.00  0.00    +0.000 C 
ATOM     12  C   UNL     1      34.800 -21.469 -19.985  0.00  0.00    +0.075 C 
ATOM     13  C   UNL     1      37.088 -20.699 -19.905  0.00  0.00    +0.000 C 
ATOM     14  C   UNL     1      36.068 -21.510 -19.407  0.00  0.00    +0.006 C 
BRANCH  12  16
ATOM     15  O   UNL     1      32.661 -21.916 -19.010  0.00  0.00    -0.245 OA
ATOM     16  C   UNL     1      33.737 -22.316 -19.466  0.00  0.00    +0.338 C 
BRANCH  16  17
ATOM     17  O   UNL     1      34.048 -23.640 -19.529  0.00  0.00    -0.477 OA
ATOM     18  H   UNL     1      33.422 -24.253 -19.860  0.00  0.00    +0.295 HD
ENDBRANCH  16  17
ENDBRANCH  12  16
ENDBRANCH   4   9
ENDBRANCH   1   3
BRANCH   1  19
ATOM     19  C   UNL     1      34.209 -14.417 -23.329  0.00  0.00    +0.064 C 
BRANCH  19  20
ATOM     20  C   UNL     1      34.096 -13.904 -21.900  0.00  0.00    -0.060 C 
BRANCH  20  21
ATOM     21  N   UNL     1      32.707 -13.601 -21.578  0.00  0.00    +0.387 N 
ATOM     22  H   UNL     1      32.112 -14.352 -21.928  0.00  0.00    -0.084 HD
ATOM     23  H   UNL     1      32.618 -13.519 -20.565  0.00  0.00    -0.084 HD
BRANCH  21  24
ATOM     24  C   UNL     1      32.296 -12.343 -22.186  0.00  0.00    -0.047 C 
BRANCH  24  25
ATOM     25  C   UNL     1      31.644 -11.423 -21.146  0.00  0.00    +0.112 C 
BRANCH  25  27
ATOM     26 CL   UNL     1      31.576  -7.481 -24.537  0.00  0.00    -0.082 Cl
ATOM     27  C   UNL     1      31.925  -9.966 -21.442  0.00  0.00    +0.003 C 
ATOM     28  C   UNL     1      31.651  -9.467 -22.703  0.00  0.00    +0.009 C 
ATOM     29  C   UNL     1      32.449  -9.163 -20.443  0.00  0.00    -0.002 C 
ATOM     30  C   UNL     1      31.910  -8.123 -22.975  0.00  0.00    +0.057 C 
ATOM     31  C   UNL     1      32.709  -7.820 -20.715  0.00  0.00    +0.001 C 
ATOM     32  C   UNL     1      32.438  -7.300 -21.981  0.00  0.00    +0.011 C 
ENDBRANCH  25  27
BRANCH  25  33
ATOM     33  O   UNL     1      30.230 -11.611 -21.137  0.00  0.00    -0.382 OA
ATOM     34  H   UNL     1      29.788 -10.752 -21.233  0.00  0.00    +0.211 HD
ENDBRANCH  25  33
ENDBRANCH  24  25
ENDBRANCH  21  24
ENDBRANCH  20  21
ENDBRANCH  19  20
ENDBRANCH   1  19
TORSDOF 11
ENDMDL
MODEL 5
REMARK VINA RESULT:     -10.9      3.557      4.886
REMARK  Name = 9887812
REMARK  11 active torsions:
REMARK  status: ('A' for Active; 'I' for Inactive)
REMARK    1  A    between atoms: N_1  and  C_3
REMARK    2  A    between atoms: N_1  and  C_19
REMARK    3  A    between atoms: C_4  and  C_9
REMARK    4  A    between atoms: C_12  and  C_16
REMARK    5  A    between atoms: C_16  and  O_17
REMARK    6  A    between atoms: C_19  and  C_20
REMARK    7  A    between atoms: C_20  and  N_21
REMARK    8  A    between atoms: N_21  and  C_24
REMARK    9  A    between atoms: C_24  and  C_25
REMARK   10  A    between atoms: C_25  and  C_27
REMARK   11  A    between atoms: C_25  and  O_33
REMARK                            x       y       z     vdW  Elec       q    Type
REMARK                         _______ _______ _______ _____ _____    ______ ____
ROOT
ATOM      1  N   UNL     1      33.026 -22.841 -18.922  0.00  0.00    -0.335 N 
ATOM      2  H   UNL     1      32.633 -23.479 -19.560  0.00  0.00    +0.147 HD
ENDROOT
BRANCH   1   3
ATOM      3  C   UNL     1      32.860 -23.082 -17.542  0.00  0.00    +0.045 C 
ATOM      4  C   UNL     1      33.730 -23.896 -15.440  0.00  0.00    +0.001 C 
ATOM      5  C   UNL     1      33.895 -23.658 -16.805  0.00  0.00    +0.014 C 
ATOM      6  C   UNL     1      31.661 -22.745 -16.914  0.00  0.00    +0.014 C 
ATOM      7  C   UNL     1      32.531 -23.559 -14.812  0.00  0.00    +0.000 C 
ATOM      8  C   UNL     1      31.496 -22.984 -15.550  0.00  0.00    +0.001 C 
BRANCH   4   9
ATOM      9  C   UNL     1      34.803 -24.494 -14.676  0.00  0.00    +0.000 C 
ATOM     10  C   UNL     1      35.716 -25.344 -15.301  0.00  0.00    +0.006 C 
ATOM     11  C   UNL     1      34.925 -24.220 -13.314  0.00  0.00    +0.000 C 
ATOM     12  C   UNL     1      36.750 -25.920 -14.564  0.00  0.00    +0.075 C 
ATOM     13  C   UNL     1      35.959 -24.797 -12.576  0.00  0.00    +0.000 C 
ATOM     14  C   UNL     1      36.872 -25.647 -13.202  0.00  0.00    +0.006 C 
BRANCH  12  16
ATOM     15  O   UNL     1      38.845 -27.049 -14.812  0.00  0.00    -0.245 OA
ATOM     16  C   UNL     1      37.703 -26.805 -15.215  0.00  0.00    +0.338 C 
BRANCH  16  17
ATOM     17  O   UNL     1      37.203 -27.362 -16.353  0.00  0.00    -0.477 OA
ATOM     18  H   UNL     1      37.493 -28.209 -16.626  0.00  0.00    +0.295 HD
ENDBRANCH  16  17
ENDBRANCH  12  16
ENDBRANCH   4   9
ENDBRANCH   1   3
BRANCH   1  19
ATOM     19  C   UNL     1      33.742 -21.714 -19.434  0.00  0.00    +0.064 C 
BRANCH  19  20
ATOM     20  C   UNL     1      35.228 -22.038 -19.498  0.00  0.00    -0.060 C 
BRANCH  20  21
ATOM     21  N   UNL     1      35.987 -20.864 -19.912  0.00  0.00    +0.387 N 
ATOM     22  H   UNL     1      36.041 -20.210 -19.132  0.00  0.00    -0.084 HD
ATOM     23  H   UNL     1      36.921 -21.161 -20.193  0.00  0.00    -0.084 HD
BRANCH  21  24
ATOM     24  C   UNL     1      35.348 -20.206 -21.043  0.00  0.00    -0.047 C 
BRANCH  24  25
ATOM     25  C   UNL     1      36.348 -19.317 -21.793  0.00  0.00    +0.112 C 
BRANCH  25  27
ATOM     26 CL   UNL     1      35.056 -14.848 -24.117  0.00  0.00    -0.082 Cl
ATOM     27  C   UNL     1      35.694 -18.607 -22.957  0.00  0.00    +0.003 C 
ATOM     28  C   UNL     1      35.683 -17.223 -22.986  0.00  0.00    +0.009 C 
ATOM     29  C   UNL     1      35.121 -19.356 -23.971  0.00  0.00    -0.002 C 
ATOM     30  C   UNL     1      35.080 -16.569 -24.060  0.00  0.00    +0.057 C 
ATOM     31  C   UNL     1      34.518 -18.702 -25.044  0.00  0.00    +0.001 C 
ATOM     32  C   UNL     1      34.498 -17.308 -25.090  0.00  0.00    +0.011 C 
ENDBRANCH  25  27
BRANCH  25  33
ATOM     33  O   UNL     1      36.888 -18.331 -20.915  0.00  0.00    -0.382 OA
ATOM     34  H   UNL     1      37.256 -18.764 -20.129  0.00  0.00    +0.211 HD
ENDBRANCH  25  33
ENDBRANCH  24  25
ENDBRANCH  21  24
ENDBRANCH  20  21
ENDBRANCH  19  20
ENDBRANCH   1  19
TORSDOF 11
ENDMDL
MODEL 6
REMARK VINA RESULT:     -10.6      7.466     11.291
REMARK  Name = 9887812
REMARK  11 active torsions:
REMARK  status: ('A' for Active; 'I' for Inactive)
REMARK    1  A    between atoms: N_1  and  C_3
REMARK    2  A    between atoms: N_1  and  C_19
REMARK    3  A    between atoms: C_4  and  C_9
REMARK    4  A    between atoms: C_12  and  C_16
REMARK    5  A    between atoms: C_16  and  O_17
REMARK    6  A    between atoms: C_19  and  C_20
REMARK    7  A    between atoms: C_20  and  N_21
REMARK    8  A    between atoms: N_21  and  C_24
REMARK    9  A    between atoms: C_24  and  C_25
REMARK   10  A    between atoms: C_25  and  C_27
REMARK   11  A    between atoms: C_25  and  O_33
REMARK                            x       y       z     vdW  Elec       q    Type
REMARK                         _______ _______ _______ _____ _____    ______ ____
ROOT
ATOM      1  N   UNL     1      34.422 -12.248 -23.749  0.00  0.00    -0.335 N 
ATOM      2  H   UNL     1      35.043 -12.333 -22.991  0.00  0.00    +0.147 HD
ENDROOT
BRANCH   1   3
ATOM      3  C   UNL     1      34.237 -13.359 -24.597  0.00  0.00    +0.045 C 
ATOM      4  C   UNL     1      34.428 -15.732 -25.009  0.00  0.00    +0.001 C 
ATOM      5  C   UNL     1      34.610 -14.633 -24.170  0.00  0.00    +0.014 C 
ATOM      6  C   UNL     1      33.682 -13.185 -25.865  0.00  0.00    +0.014 C 
ATOM      7  C   UNL     1      33.873 -15.558 -26.277  0.00  0.00    +0.000 C 
ATOM      8  C   UNL     1      33.500 -14.283 -26.705  0.00  0.00    +0.001 C 
BRANCH   4   9
ATOM      9  C   UNL     1      34.815 -17.053 -24.565  0.00  0.00    +0.000 C 
ATOM     10  C   UNL     1      35.746 -17.199 -23.536  0.00  0.00    +0.006 C 
ATOM     11  C   UNL     1      34.257 -18.182 -25.166  0.00  0.00    +0.000 C 
ATOM     12  C   UNL     1      36.119 -18.473 -23.109  0.00  0.00    +0.075 C 
ATOM     13  C   UNL     1      34.631 -19.456 -24.739  0.00  0.00    +0.000 C 
ATOM     14  C   UNL     1      35.562 -19.602 -23.710  0.00  0.00    +0.006 C 
BRANCH  12  16
ATOM     15  O   UNL     1      36.816 -18.837 -20.849  0.00  0.00    -0.245 OA
ATOM     16  C   UNL     1      37.089 -18.626 -22.036  0.00  0.00    +0.338 C 
BRANCH  16  17
ATOM     17  O   UNL     1      38.373 -18.511 -22.474  0.00  0.00    -0.477 OA
ATOM     18  H   UNL     1      38.563 -18.572 -23.389  0.00  0.00    +0.295 HD
ENDBRANCH  16  17
ENDBRANCH  12  16
ENDBRANCH   4   9
ENDBRANCH   1   3
BRANCH   1  19
ATOM     19  C   UNL     1      33.745 -11.003 -23.941  0.00  0.00    +0.064 C 
BRANCH  19  20
ATOM     20  C   UNL     1      32.683 -10.827 -22.864  0.00  0.00    -0.060 C 
BRANCH  20  21
ATOM     21  N   UNL     1      32.236  -9.440 -22.813  0.00  0.00    +0.387 N 
ATOM     22  H   UNL     1      32.809  -8.882 -23.447  0.00  0.00    -0.084 HD
ATOM     23  H   UNL     1      31.256  -9.403 -23.094  0.00  0.00    -0.084 HD
BRANCH  21  24
ATOM     24  C   UNL     1      32.356  -8.905 -21.464  0.00  0.00    -0.047 C 
BRANCH  24  25
ATOM     25  C   UNL     1      33.462  -7.844 -21.395  0.00  0.00    +0.112 C 
BRANCH  25  27
ATOM     26 CL   UNL     1      35.066  -5.587 -25.797  0.00  0.00    -0.082 Cl
ATOM     27  C   UNL     1      33.267  -6.772 -22.445  0.00  0.00    +0.003 C 
ATOM     28  C   UNL     1      34.155  -6.693 -23.504  0.00  0.00    +0.009 C 
ATOM     29  C   UNL     1      32.204  -5.894 -22.324  0.00  0.00    -0.002 C 
ATOM     30  C   UNL     1      33.974  -5.704 -24.471  0.00  0.00    +0.057 C 
ATOM     31  C   UNL     1      32.023  -4.906 -23.291  0.00  0.00    +0.001 C 
ATOM     32  C   UNL     1      32.908  -4.811 -24.365  0.00  0.00    +0.011 C 
ENDBRANCH  25  27
BRANCH  25  33
ATOM     33  O   UNL     1      33.468  -7.219 -20.114  0.00  0.00    -0.382 OA
ATOM     34  H   UNL     1      32.591  -6.845 -19.932  0.00  0.00    +0.211 HD
ENDBRANCH  25  33
ENDBRANCH  24  25
ENDBRANCH  21  24
ENDBRANCH  20  21
ENDBRANCH  19  20
ENDBRANCH   1  19
TORSDOF 11
ENDMDL
MODEL 7
REMARK VINA RESULT:     -10.6      4.088      6.352
REMARK  Name = 9887812
REMARK  11 active torsions:
REMARK  status: ('A' for Active; 'I' for Inactive)
REMARK    1  A    between atoms: N_1  and  C_3
REMARK    2  A    between atoms: N_1  and  C_19
REMARK    3  A    between atoms: C_4  and  C_9
REMARK    4  A    between atoms: C_12  and  C_16
REMARK    5  A    between atoms: C_16  and  O_17
REMARK    6  A    between atoms: C_19  and  C_20
REMARK    7  A    between atoms: C_20  and  N_21
REMARK    8  A    between atoms: N_21  and  C_24
REMARK    9  A    between atoms: C_24  and  C_25
REMARK   10  A    between atoms: C_25  and  C_27
REMARK   11  A    between atoms: C_25  and  O_33
REMARK                            x       y       z     vdW  Elec       q    Type
REMARK                         _______ _______ _______ _____ _____    ______ ____
ROOT
ATOM      1  N   UNL     1      34.401 -18.926 -24.223  0.00  0.00    -0.335 N 
ATOM      2  H   UNL     1      33.487 -19.287 -24.168  0.00  0.00    +0.147 HD
ENDROOT
BRANCH   1   3
ATOM      3  C   UNL     1      35.282 -19.155 -23.146  0.00  0.00    +0.045 C 
ATOM      4  C   UNL     1      35.774 -20.225 -21.036  0.00  0.00    +0.001 C 
ATOM      5  C   UNL     1      34.903 -19.998 -22.102  0.00  0.00    +0.014 C 
ATOM      6  C   UNL     1      36.532 -18.538 -23.124  0.00  0.00    +0.014 C 
ATOM      7  C   UNL     1      37.025 -19.607 -21.014  0.00  0.00    +0.000 C 
ATOM      8  C   UNL     1      37.404 -18.763 -22.059  0.00  0.00    +0.001 C 
BRANCH   4   9
ATOM      9  C   UNL     1      35.381 -21.099 -19.953  0.00  0.00    +0.000 C 
ATOM     10  C   UNL     1      36.284 -21.398 -18.933  0.00  0.00    +0.006 C 
ATOM     11  C   UNL     1      34.097 -21.644 -19.930  0.00  0.00    +0.000 C 
ATOM     12  C   UNL     1      35.904 -22.242 -17.890  0.00  0.00    +0.075 C 
ATOM     13  C   UNL     1      33.717 -22.488 -18.886  0.00  0.00    +0.000 C 
ATOM     14  C   UNL     1      34.620 -22.787 -17.866  0.00  0.00    +0.006 C 
BRANCH  12  16
ATOM     15  O   UNL     1      36.906 -23.625 -16.214  0.00  0.00    -0.245 OA
ATOM     16  C   UNL     1      36.845 -22.553 -16.826  0.00  0.00    +0.338 C 
BRANCH  16  17
ATOM     17  O   UNL     1      37.685 -21.516 -16.553  0.00  0.00    -0.477 OA
ATOM     18  H   UNL     1      37.415 -20.637 -16.729  0.00  0.00    +0.295 HD
ENDBRANCH  16  17
ENDBRANCH  12  16
ENDBRANCH   4   9
ENDBRANCH   1   3
BRANCH   1  19
ATOM     19  C   UNL     1      34.777 -18.193 -25.393  0.00  0.00    +0.064 C 
BRANCH  19  20
ATOM     20  C   UNL     1      33.972 -16.903 -25.469  0.00  0.00    -0.060 C 
BRANCH  20  21
ATOM     21  N   UNL     1      34.857 -15.747 -25.404  0.00  0.00    +0.387 N 
ATOM     22  H   UNL     1      35.803 -16.038 -25.651  0.00  0.00    -0.084 HD
ATOM     23  H   UNL     1      34.520 -15.040 -26.057  0.00  0.00    -0.084 HD
BRANCH  21  24
ATOM     24  C   UNL     1      34.868 -15.176 -24.064  0.00  0.00    -0.047 C 
BRANCH  24  25
ATOM     25  C   UNL     1      33.959 -13.943 -23.990  0.00  0.00    +0.112 C 
BRANCH  25  27
ATOM     26 CL   UNL     1      30.723 -11.389 -20.820  0.00  0.00    -0.082 Cl
ATOM     27  C   UNL     1      33.371 -13.772 -22.607  0.00  0.00    +0.003 C 
ATOM     28  C   UNL     1      32.433 -12.777 -22.389  0.00  0.00    +0.009 C 
ATOM     29  C   UNL     1      33.781 -14.615 -21.589  0.00  0.00    -0.002 C 
ATOM     30  C   UNL     1      31.891 -12.620 -21.113  0.00  0.00    +0.057 C 
ATOM     31  C   UNL     1      33.239 -14.458 -20.314  0.00  0.00    +0.001 C 
ATOM     32  C   UNL     1      32.293 -13.461 -20.076  0.00  0.00    +0.011 C 
ENDBRANCH  25  27
BRANCH  25  33
ATOM     33  O   UNL     1      34.696 -12.765 -24.310  0.00  0.00    -0.382 OA
ATOM     34  H   UNL     1      35.578 -13.011 -24.630  0.00  0.00    +0.211 HD
ENDBRANCH  25  33
ENDBRANCH  24  25
ENDBRANCH  21  24
ENDBRANCH  20  21
ENDBRANCH  19  20
ENDBRANCH   1  19
TORSDOF 11
ENDMDL
MODEL 8
REMARK VINA RESULT:     -10.6      3.562      9.958
REMARK  Name = 9887812
REMARK  11 active torsions:
REMARK  status: ('A' for Active; 'I' for Inactive)
REMARK    1  A    between atoms: N_1  and  C_3
REMARK    2  A    between atoms: N_1  and  C_19
REMARK    3  A    between atoms: C_4  and  C_9
REMARK    4  A    between atoms: C_12  and  C_16
REMARK    5  A    between atoms: C_16  and  O_17
REMARK    6  A    between atoms: C_19  and  C_20
REMARK    7  A    between atoms: C_20  and  N_21
REMARK    8  A    between atoms: N_21  and  C_24
REMARK    9  A    between atoms: C_24  and  C_25
REMARK   10  A    between atoms: C_25  and  C_27
REMARK   11  A    between atoms: C_25  and  O_33
REMARK                            x       y       z     vdW  Elec       q    Type
REMARK                         _______ _______ _______ _____ _____    ______ ____
ROOT
ATOM      1  N   UNL     1      33.103 -22.258 -19.012  0.00  0.00    -0.335 N 
ATOM      2  H   UNL     1      32.232 -22.029 -19.408  0.00  0.00    +0.147 HD
ENDROOT
BRANCH   1   3
ATOM      3  C   UNL     1      34.264 -21.661 -19.545  0.00  0.00    +0.045 C 
ATOM      4  C   UNL     1      35.310 -20.168 -21.131  0.00  0.00    +0.001 C 
ATOM      5  C   UNL     1      34.161 -20.759 -20.603  0.00  0.00    +0.014 C 
ATOM      6  C   UNL     1      35.516 -21.973 -19.015  0.00  0.00    +0.014 C 
ATOM      7  C   UNL     1      36.562 -20.480 -20.600  0.00  0.00    +0.000 C 
ATOM      8  C   UNL     1      36.664 -21.384 -19.542  0.00  0.00    +0.001 C 
BRANCH   4   9
ATOM      9  C   UNL     1      35.203 -19.232 -22.229  0.00  0.00    +0.000 C 
ATOM     10  C   UNL     1      35.230 -17.859 -21.981  0.00  0.00    +0.006 C 
ATOM     11  C   UNL     1      35.072 -19.703 -23.535  0.00  0.00    +0.000 C 
ATOM     12  C   UNL     1      35.126 -16.958 -23.041  0.00  0.00    +0.075 C 
ATOM     13  C   UNL     1      34.968 -18.801 -24.595  0.00  0.00    +0.000 C 
ATOM     14  C   UNL     1      34.995 -17.428 -24.347  0.00  0.00    +0.006 C 
BRANCH  12  16
ATOM     15  O   UNL     1      35.317 -14.649 -23.639  0.00  0.00    -0.245 OA
ATOM     16  C   UNL     1      35.156 -15.527 -22.784  0.00  0.00    +0.338 C 
BRANCH  16  17
ATOM     17  O   UNL     1      34.984 -15.230 -21.466  0.00  0.00    -0.477 OA
ATOM     18  H   UNL     1      35.404 -14.480 -21.096  0.00  0.00    +0.295 HD
ENDBRANCH  16  17
ENDBRANCH  12  16
ENDBRANCH   4   9
ENDBRANCH   1   3
BRANCH   1  19
ATOM     19  C   UNL     1      33.136 -23.181 -17.919  0.00  0.00    +0.064 C 
BRANCH  19  20
ATOM     20  C   UNL     1      31.875 -23.023 -17.079  0.00  0.00    -0.060 C 
BRANCH  20  21
ATOM     21  N   UNL     1      32.078 -23.584 -15.749  0.00  0.00    +0.387 N 
ATOM     22  H   UNL     1      31.301 -23.309 -15.149  0.00  0.00    -0.084 HD
ATOM     23  H   UNL     1      32.125 -24.600 -15.827  0.00  0.00    -0.084 HD
BRANCH  21  24
ATOM     24  C   UNL     1      33.324 -23.104 -15.167  0.00  0.00    -0.047 C 
BRANCH  24  25
ATOM     25  C   UNL     1      33.941 -24.166 -14.247  0.00  0.00    +0.112 C 
BRANCH  25  27
ATOM     26 CL   UNL     1      38.241 -22.483 -16.637  0.00  0.00    -0.082 Cl
ATOM     27  C   UNL     1      35.428 -24.307 -14.484  0.00  0.00    +0.003 C 
ATOM     28  C   UNL     1      36.061 -23.431 -15.349  0.00  0.00    +0.009 C 
ATOM     29  C   UNL     1      36.124 -25.309 -13.830  0.00  0.00    -0.002 C 
ATOM     30  C   UNL     1      37.433 -23.561 -15.566  0.00  0.00    +0.057 C 
ATOM     31  C   UNL     1      37.496 -25.439 -14.048  0.00  0.00    +0.001 C 
ATOM     32  C   UNL     1      38.150 -24.566 -14.915  0.00  0.00    +0.011 C 
ENDBRANCH  25  27
BRANCH  25  33
ATOM     33  O   UNL     1      33.739 -23.813 -12.880  0.00  0.00    -0.382 OA
ATOM     34  H   UNL     1      34.558 -23.441 -12.517  0.00  0.00    +0.211 HD
ENDBRANCH  25  33
ENDBRANCH  24  25
ENDBRANCH  21  24
ENDBRANCH  20  21
ENDBRANCH  19  20
ENDBRANCH   1  19
TORSDOF 11
ENDMDL
MODEL 9
REMARK VINA RESULT:     -10.5      7.539     13.297
REMARK  Name = 9887812
REMARK  11 active torsions:
REMARK  status: ('A' for Active; 'I' for Inactive)
REMARK    1  A    between atoms: N_1  and  C_3
REMARK    2  A    between atoms: N_1  and  C_19
REMARK    3  A    between atoms: C_4  and  C_9
REMARK    4  A    between atoms: C_12  and  C_16
REMARK    5  A    between atoms: C_16  and  O_17
REMARK    6  A    between atoms: C_19  and  C_20
REMARK    7  A    between atoms: C_20  and  N_21
REMARK    8  A    between atoms: N_21  and  C_24
REMARK    9  A    between atoms: C_24  and  C_25
REMARK   10  A    between atoms: C_25  and  C_27
REMARK   11  A    between atoms: C_25  and  O_33
REMARK                            x       y       z     vdW  Elec       q    Type
REMARK                         _______ _______ _______ _____ _____    ______ ____
ROOT
ATOM      1  N   UNL     1      31.542 -12.275 -22.030  0.00  0.00    -0.335 N 
ATOM      2  H   UNL     1      30.752 -12.380 -22.608  0.00  0.00    +0.147 HD
ENDROOT
BRANCH   1   3
ATOM      3  C   UNL     1      31.780 -11.019 -21.436  0.00  0.00    +0.045 C 
ATOM      4  C   UNL     1      32.295  -8.668 -21.648  0.00  0.00    +0.001 C 
ATOM      5  C   UNL     1      32.058  -9.911 -22.236  0.00  0.00    +0.014 C 
ATOM      6  C   UNL     1      31.740 -10.884 -20.049  0.00  0.00    +0.014 C 
ATOM      7  C   UNL     1      32.255  -8.533 -20.260  0.00  0.00    +0.000 C 
ATOM      8  C   UNL     1      31.978  -9.642 -19.460  0.00  0.00    +0.001 C 
BRANCH   4   9
ATOM      9  C   UNL     1      32.583  -7.519 -22.478  0.00  0.00    +0.000 C 
ATOM     10  C   UNL     1      31.696  -6.442 -22.513  0.00  0.00    +0.006 C 
ATOM     11  C   UNL     1      33.749  -7.487 -23.244  0.00  0.00    +0.000 C 
ATOM     12  C   UNL     1      31.975  -5.335 -23.314  0.00  0.00    +0.075 C 
ATOM     13  C   UNL     1      34.027  -6.380 -24.046  0.00  0.00    +0.000 C 
ATOM     14  C   UNL     1      33.140  -5.303 -24.081  0.00  0.00    +0.006 C 
BRANCH  12  16
ATOM     15  O   UNL     1      30.850  -3.482 -24.327  0.00  0.00    -0.245 OA
ATOM     16  C   UNL     1      31.051  -4.212 -23.350  0.00  0.00    +0.338 C 
BRANCH  16  17
ATOM     17  O   UNL     1      30.405  -4.031 -22.166  0.00  0.00    -0.477 OA
ATOM     18  H   UNL     1      30.615  -3.295 -21.626  0.00  0.00    +0.295 HD
ENDBRANCH  16  17
ENDBRANCH  12  16
ENDBRANCH   4   9
ENDBRANCH   1   3
BRANCH   1  19
ATOM     19  C   UNL     1      32.395 -13.406 -21.827  0.00  0.00    +0.064 C 
BRANCH  19  20
ATOM     20  C   UNL     1      33.588 -13.321 -22.770  0.00  0.00    -0.060 C 
BRANCH  20  21
ATOM     21  N   UNL     1      33.385 -14.191 -23.923  0.00  0.00    +0.387 N 
ATOM     22  H   UNL     1      32.928 -15.050 -23.616  0.00  0.00    -0.084 HD
ATOM     23  H   UNL     1      32.803 -13.701 -24.602  0.00  0.00    -0.084 HD
BRANCH  21  24
ATOM     24  C   UNL     1      34.656 -14.524 -24.552  0.00  0.00    -0.047 C 
BRANCH  24  25
ATOM     25  C   UNL     1      34.489 -15.692 -25.532  0.00  0.00    +0.112 C 
BRANCH  25  27
ATOM     26 CL   UNL     1      36.665 -18.363 -21.637  0.00  0.00    -0.082 Cl
ATOM     27  C   UNL     1      34.734 -17.022 -24.855  0.00  0.00    +0.003 C 
ATOM     28  C   UNL     1      35.496 -17.062 -23.700  0.00  0.00    +0.009 C 
ATOM     29  C   UNL     1      34.190 -18.171 -25.403  0.00  0.00    -0.002 C 
ATOM     30  C   UNL     1      35.721 -18.289 -23.075  0.00  0.00    +0.057 C 
ATOM     31  C   UNL     1      34.415 -19.397 -24.779  0.00  0.00    +0.001 C 
ATOM     32  C   UNL     1      35.180 -19.456 -23.615  0.00  0.00    +0.011 C 
ENDBRANCH  25  27
BRANCH  25  33
ATOM     33  O   UNL     1      33.167 -15.702 -26.069  0.00  0.00    -0.382 OA
ATOM     34  H   UNL     1      33.211 -15.716 -27.038  0.00  0.00    +0.211 HD
ENDBRANCH  25  33
ENDBRANCH  24  25
ENDBRANCH  21  24
ENDBRANCH  20  21
ENDBRANCH  19  20
ENDBRANCH   1  19
TORSDOF 11
ENDMDL
