MODEL 1
REMARK VINA RESULT:     -11.3      0.000      0.000
REMARK  Name = 24779724
REMARK  3 active torsions:
REMARK  status: ('A' for Active; 'I' for Inactive)
REMARK    1  A    between atoms: C_5  and  C_12
REMARK    2  A    between atoms: C_7  and  S_16
REMARK    3  A    between atoms: S_16  and  C_19
REMARK                            x       y       z     vdW  Elec       q    Type
REMARK                         _______ _______ _______ _____ _____    ______ ____
ROOT
ATOM      1  N   UNL     1      34.772 -21.699 -19.184  0.00  0.00    -0.186 N 
ATOM      2  N   UNL     1      35.789 -22.051 -18.358  0.00  0.00    -0.162 NA
ATOM      3  N   UNL     1      32.772 -21.511 -20.073  0.00  0.00    -0.126 NA
ATOM      4  N   UNL     1      33.662 -20.786 -20.839  0.00  0.00    -0.120 NA
ATOM      5  C   UNL     1      35.420 -22.810 -17.365  0.00  0.00    +0.104 C 
ATOM      6  C   UNL     1      33.448 -22.055 -19.082  0.00  0.00    +0.187 A 
ATOM      7  C   UNL     1      34.852 -20.911 -20.295  0.00  0.00    +0.217 A 
ATOM      8  C   UNL     1      34.018 -23.290 -17.138  0.00  0.00    +0.024 C 
ATOM      9  C   UNL     1      33.082 -22.890 -18.008  0.00  0.00    +0.042 C 
ENDROOT
BRANCH   5  12
ATOM     10  N   UNL     1      37.465 -24.316 -14.769  0.00  0.00    -0.208 N 
ATOM     11  N   UNL     1      38.393 -23.451 -15.210  0.00  0.00    -0.176 NA
ATOM     12  C   UNL     1      36.443 -23.259 -16.385  0.00  0.00    +0.056 C 
ATOM     13  C   UNL     1      36.278 -24.241 -15.439  0.00  0.00    +0.087 C 
ATOM     14  C   UNL     1      37.764 -22.808 -16.198  0.00  0.00    +0.121 C 
ATOM     15  C   UNL     1      37.777 -25.209 -13.678  0.00  0.00    +0.140 C 
ENDBRANCH   5  12
BRANCH   7  16
ATOM     16  S   UNL     1      36.374 -20.179 -20.878  0.00  0.00    -0.051 S 
BRANCH  16  19
ATOM     17  N   UNL     1      34.452 -17.147 -25.621  0.00  0.00    -0.248 NA
ATOM     18  C   UNL     1      35.275 -17.145 -23.357  0.00  0.00    -0.003 C 
ATOM     19  C   UNL     1      35.801 -19.262 -22.293  0.00  0.00    +0.011 C 
ATOM     20  C   UNL     1      34.890 -17.814 -24.537  0.00  0.00    +0.060 C 
ATOM     21  C   UNL     1      35.728 -17.873 -22.244  0.00  0.00    +0.060 C 
ATOM     22  C   UNL     1      35.422 -19.927 -23.452  0.00  0.00    -0.017 C 
ATOM     23  C   UNL     1      34.973 -19.204 -24.559  0.00  0.00    +0.072 C 
ATOM     24  C   UNL     1      35.192 -15.746 -23.335  0.00  0.00    -0.001 C 
ATOM     25  C   UNL     1      34.741 -15.055 -24.451  0.00  0.00    +0.020 C 
ATOM     26  C   UNL     1      34.387 -15.798 -25.559  0.00  0.00    +0.098 C 
ENDBRANCH  16  19
ENDBRANCH   7  16
TORSDOF 3
ENDMDL
MODEL 2
REMARK VINA RESULT:     -10.9      0.986      1.640
REMARK  Name = 24779724
REMARK  3 active torsions:
REMARK  status: ('A' for Active; 'I' for Inactive)
REMARK    1  A    between atoms: C_5  and  C_12
REMARK    2  A    between atoms: C_7  and  S_16
REMARK    3  A    between atoms: S_16  and  C_19
REMARK                            x       y       z     vdW  Elec       q    Type
REMARK                         _______ _______ _______ _____ _____    ______ ____
ROOT
ATOM      1  N   UNL     1      34.792 -22.180 -18.636  0.00  0.00    -0.186 N 
ATOM      2  N   UNL     1      35.765 -22.585 -17.782  0.00  0.00    -0.162 NA
ATOM      3  N   UNL     1      32.825 -21.839 -19.552  0.00  0.00    -0.126 NA
ATOM      4  N   UNL     1      33.788 -21.258 -20.352  0.00  0.00    -0.120 NA
ATOM      5  C   UNL     1      35.317 -23.241 -16.748  0.00  0.00    +0.104 C 
ATOM      6  C   UNL     1      33.438 -22.389 -18.525  0.00  0.00    +0.187 A 
ATOM      7  C   UNL     1      34.957 -21.472 -19.792  0.00  0.00    +0.217 A 
ATOM      8  C   UNL     1      33.872 -23.558 -16.506  0.00  0.00    +0.024 C 
ATOM      9  C   UNL     1      32.985 -23.116 -17.406  0.00  0.00    +0.042 C 
ENDROOT
BRANCH   5  12
ATOM     10  N   UNL     1      37.375 -25.008 -14.334  0.00  0.00    -0.208 N 
ATOM     11  N   UNL     1      37.995 -23.821 -14.223  0.00  0.00    -0.176 NA
ATOM     12  C   UNL     1      36.285 -23.734 -15.735  0.00  0.00    +0.056 C 
ATOM     13  C   UNL     1      36.343 -25.008 -15.227  0.00  0.00    +0.087 C 
ATOM     14  C   UNL     1      37.326 -23.047 -15.081  0.00  0.00    +0.121 C 
ATOM     15  C   UNL     1      37.824 -26.129 -13.544  0.00  0.00    +0.140 C 
ENDBRANCH   5  12
BRANCH   7  16
ATOM     16  S   UNL     1      36.548 -20.939 -20.404  0.00  0.00    -0.051 S 
BRANCH  16  19
ATOM     17  N   UNL     1      34.994 -16.420 -23.946  0.00  0.00    -0.248 NA
ATOM     18  C   UNL     1      35.124 -18.794 -23.555  0.00  0.00    -0.003 C 
ATOM     19  C   UNL     1      36.078 -19.593 -21.472  0.00  0.00    +0.011 C 
ATOM     20  C   UNL     1      35.337 -17.457 -23.160  0.00  0.00    +0.060 C 
ATOM     21  C   UNL     1      35.496 -19.852 -22.709  0.00  0.00    +0.060 C 
ATOM     22  C   UNL     1      36.291 -18.279 -21.076  0.00  0.00    -0.017 C 
ATOM     23  C   UNL     1      35.922 -17.227 -21.917  0.00  0.00    +0.072 C 
ATOM     24  C   UNL     1      34.536 -19.025 -24.806  0.00  0.00    -0.001 C 
ATOM     25  C   UNL     1      34.181 -17.959 -25.619  0.00  0.00    +0.020 C 
ATOM     26  C   UNL     1      34.429 -16.686 -25.145  0.00  0.00    +0.098 C 
ENDBRANCH  16  19
ENDBRANCH   7  16
TORSDOF 3
ENDMDL
MODEL 3
REMARK VINA RESULT:     -10.4      6.329     11.936
REMARK  Name = 24779724
REMARK  3 active torsions:
REMARK  status: ('A' for Active; 'I' for Inactive)
REMARK    1  A    between atoms: C_5  and  C_12
REMARK    2  A    between atoms: C_7  and  S_16
REMARK    3  A    between atoms: S_16  and  C_19
REMARK                            x       y       z     vdW  Elec       q    Type
REMARK                         _______ _______ _______ _____ _____    ______ ____
ROOT
ATOM      1  N   UNL     1      32.737 -11.607 -22.402  0.00  0.00    -0.186 N 
ATOM      2  N   UNL     1      32.920 -10.368 -22.921  0.00  0.00    -0.162 NA
ATOM      3  N   UNL     1      32.111 -13.248 -21.084  0.00  0.00    -0.126 NA
ATOM      4  N   UNL     1      32.806 -13.783 -22.149  0.00  0.00    -0.120 NA
ATOM      5  C   UNL     1      32.385  -9.415 -22.210  0.00  0.00    +0.104 C 
ATOM      6  C   UNL     1      32.075 -11.942 -21.244  0.00  0.00    +0.187 A 
ATOM      7  C   UNL     1      33.174 -12.789 -22.926  0.00  0.00    +0.217 A 
ATOM      8  C   UNL     1      31.651  -9.630 -20.920  0.00  0.00    +0.024 C 
ATOM      9  C   UNL     1      31.522 -10.891 -20.487  0.00  0.00    +0.042 C 
ENDROOT
BRANCH   5  12
ATOM     10  N   UNL     1      32.051  -5.974 -23.321  0.00  0.00    -0.208 N 
ATOM     11  N   UNL     1      33.393  -6.022 -23.376  0.00  0.00    -0.176 NA
ATOM     12  C   UNL     1      32.512  -8.011 -22.677  0.00  0.00    +0.056 C 
ATOM     13  C   UNL     1      31.475  -7.140 -22.908  0.00  0.00    +0.087 C 
ATOM     14  C   UNL     1      33.669  -7.268 -22.981  0.00  0.00    +0.121 C 
ATOM     15  C   UNL     1      31.362  -4.759 -23.683  0.00  0.00    +0.140 C 
ENDBRANCH   5  12
BRANCH   7  16
ATOM     16  S   UNL     1      34.102 -12.911 -24.447  0.00  0.00    -0.051 S 
BRANCH  16  19
ATOM     17  N   UNL     1      34.736 -18.802 -24.981  0.00  0.00    -0.248 NA
ATOM     18  C   UNL     1      35.164 -16.777 -23.747  0.00  0.00    -0.003 C 
ATOM     19  C   UNL     1      34.297 -14.675 -24.597  0.00  0.00    +0.011 C 
ATOM     20  C   UNL     1      34.604 -17.470 -24.841  0.00  0.00    +0.060 C 
ATOM     21  C   UNL     1      35.006 -15.385 -23.633  0.00  0.00    +0.060 C 
ATOM     22  C   UNL     1      33.743 -15.351 -25.677  0.00  0.00    -0.017 C 
ATOM     23  C   UNL     1      33.900 -16.734 -25.791  0.00  0.00    +0.072 C 
ATOM     24  C   UNL     1      35.873 -17.517 -22.792  0.00  0.00    -0.001 C 
ATOM     25  C   UNL     1      36.011 -18.890 -22.933  0.00  0.00    +0.020 C 
ATOM     26  C   UNL     1      35.428 -19.479 -24.036  0.00  0.00    +0.098 C 
ENDBRANCH  16  19
ENDBRANCH   7  16
TORSDOF 3
ENDMDL
MODEL 4
REMARK VINA RESULT:     -10.2      2.277      9.398
REMARK  Name = 24779724
REMARK  3 active torsions:
REMARK  status: ('A' for Active; 'I' for Inactive)
REMARK    1  A    between atoms: C_5  and  C_12
REMARK    2  A    between atoms: C_7  and  S_16
REMARK    3  A    between atoms: S_16  and  C_19
REMARK                            x       y       z     vdW  Elec       q    Type
REMARK                         _______ _______ _______ _____ _____    ______ ____
ROOT
ATOM      1  N   UNL     1      35.564 -20.055 -21.076  0.00  0.00    -0.186 N 
ATOM      2  N   UNL     1      34.883 -19.541 -22.130  0.00  0.00    -0.162 NA
ATOM      3  N   UNL     1      37.163 -20.494 -19.636  0.00  0.00    -0.126 NA
ATOM      4  N   UNL     1      36.037 -21.202 -19.269  0.00  0.00    -0.120 NA
ATOM      5  C   UNL     1      35.584 -18.719 -22.859  0.00  0.00    +0.104 C 
ATOM      6  C   UNL     1      36.870 -19.809 -20.721  0.00  0.00    +0.187 A 
ATOM      7  C   UNL     1      35.092 -20.930 -20.141  0.00  0.00    +0.217 A 
ATOM      8  C   UNL     1      37.019 -18.372 -22.603  0.00  0.00    +0.024 C 
ATOM      9  C   UNL     1      37.608 -18.930 -21.538  0.00  0.00    +0.042 C 
ENDROOT
BRANCH   5  12
ATOM     10  N   UNL     1      34.253 -16.616 -25.503  0.00  0.00    -0.208 N 
ATOM     11  N   UNL     1      33.791 -17.781 -25.988  0.00  0.00    -0.176 NA
ATOM     12  C   UNL     1      34.946 -18.084 -24.041  0.00  0.00    +0.056 C 
ATOM     13  C   UNL     1      34.952 -16.743 -24.338  0.00  0.00    +0.087 C 
ATOM     14  C   UNL     1      34.217 -18.674 -25.092  0.00  0.00    +0.121 C 
ATOM     15  C   UNL     1      33.989 -15.387 -26.214  0.00  0.00    +0.140 C 
ENDBRANCH   5  12
BRANCH   7  16
ATOM     16  S   UNL     1      33.427 -21.576 -20.146  0.00  0.00    -0.051 S 
BRANCH  16  19
ATOM     17  N   UNL     1      33.219 -24.213 -14.818  0.00  0.00    -0.248 NA
ATOM     18  C   UNL     1      32.080 -23.075 -16.610  0.00  0.00    -0.003 C 
ATOM     19  C   UNL     1      33.353 -22.364 -18.550  0.00  0.00    +0.011 C 
ATOM     20  C   UNL     1      33.244 -23.613 -16.022  0.00  0.00    +0.060 C 
ATOM     21  C   UNL     1      32.143 -22.455 -17.869  0.00  0.00    +0.060 C 
ATOM     22  C   UNL     1      34.503 -22.891 -17.977  0.00  0.00    -0.017 C 
ATOM     23  C   UNL     1      34.441 -23.508 -16.725  0.00  0.00    +0.072 C 
ATOM     24  C   UNL     1      30.875 -23.180 -15.903  0.00  0.00    -0.001 C 
ATOM     25  C   UNL     1      30.846 -23.798 -14.661  0.00  0.00    +0.020 C 
ATOM     26  C   UNL     1      32.036 -24.294 -14.168  0.00  0.00    +0.098 C 
ENDBRANCH  16  19
ENDBRANCH   7  16
TORSDOF 3
ENDMDL
MODEL 5
REMARK VINA RESULT:     -10.2      3.648      6.230
REMARK  Name = 24779724
REMARK  3 active torsions:
REMARK  status: ('A' for Active; 'I' for Inactive)
REMARK    1  A    between atoms: C_5  and  C_12
REMARK    2  A    between atoms: C_7  and  S_16
REMARK    3  A    between atoms: S_16  and  C_19
REMARK                            x       y       z     vdW  Elec       q    Type
REMARK                         _______ _______ _______ _____ _____    ______ ____
ROOT
ATOM      1  N   UNL     1      32.862 -23.232 -16.693  0.00  0.00    -0.186 N 
ATOM      2  N   UNL     1      31.568 -23.123 -17.083  0.00  0.00    -0.162 NA
ATOM      3  N   UNL     1      34.663 -23.353 -15.442  0.00  0.00    -0.126 NA
ATOM      4  N   UNL     1      35.041 -23.457 -16.766  0.00  0.00    -0.120 NA
ATOM      5  C   UNL     1      30.729 -22.998 -16.094  0.00  0.00    +0.104 C 
ATOM      6  C   UNL     1      33.354 -23.219 -15.409  0.00  0.00    +0.187 A 
ATOM      7  C   UNL     1      33.953 -23.381 -17.499  0.00  0.00    +0.217 A 
ATOM      8  C   UNL     1      31.123 -22.949 -14.648  0.00  0.00    +0.024 C 
ATOM      9  C   UNL     1      32.426 -23.064 -14.361  0.00  0.00    +0.042 C 
ENDROOT
BRANCH   5  12
ATOM     10  N   UNL     1      27.144 -22.436 -16.235  0.00  0.00    -0.208 N 
ATOM     11  N   UNL     1      27.259 -22.988 -17.455  0.00  0.00    -0.176 NA
ATOM     12  C   UNL     1      29.279 -22.875 -16.392  0.00  0.00    +0.056 C 
ATOM     13  C   UNL     1      28.325 -22.346 -15.557  0.00  0.00    +0.087 C 
ATOM     14  C   UNL     1      28.565 -23.254 -17.545  0.00  0.00    +0.121 C 
ATOM     15  C   UNL     1      25.850 -22.005 -15.762  0.00  0.00    +0.140 C 
ENDBRANCH   5  12
BRANCH   7  16
ATOM     16  S   UNL     1      33.860 -23.458 -19.281  0.00  0.00    -0.051 S 
BRANCH  16  19
ATOM     17  N   UNL     1      37.482 -18.993 -20.808  0.00  0.00    -0.248 NA
ATOM     18  C   UNL     1      35.417 -20.190 -21.140  0.00  0.00    -0.003 C 
ATOM     19  C   UNL     1      34.937 -22.118 -19.745  0.00  0.00    +0.011 C 
ATOM     20  C   UNL     1      36.647 -19.997 -20.478  0.00  0.00    +0.060 C 
ATOM     21  C   UNL     1      34.571 -21.249 -20.769  0.00  0.00    +0.060 C 
ATOM     22  C   UNL     1      36.147 -21.934 -19.090  0.00  0.00    -0.017 C 
ATOM     23  C   UNL     1      36.989 -20.881 -19.458  0.00  0.00    +0.072 C 
ATOM     24  C   UNL     1      35.074 -19.300 -22.166  0.00  0.00    -0.001 C 
ATOM     25  C   UNL     1      35.931 -18.265 -22.509  0.00  0.00    +0.020 C 
ATOM     26  C   UNL     1      37.113 -18.156 -21.804  0.00  0.00    +0.098 C 
ENDBRANCH  16  19
ENDBRANCH   7  16
TORSDOF 3
ENDMDL
MODEL 6
REMARK VINA RESULT:     -10.1      2.638      9.416
REMARK  Name = 24779724
REMARK  3 active torsions:
REMARK  status: ('A' for Active; 'I' for Inactive)
REMARK    1  A    between atoms: C_5  and  C_12
REMARK    2  A    between atoms: C_7  and  S_16
REMARK    3  A    between atoms: S_16  and  C_19
REMARK                            x       y       z     vdW  Elec       q    Type
REMARK                         _______ _______ _______ _____ _____    ______ ____
ROOT
ATOM      1  N   UNL     1      35.066 -17.858 -24.085  0.00  0.00    -0.186 N 
ATOM      2  N   UNL     1      35.050 -16.601 -23.575  0.00  0.00    -0.162 NA
ATOM      3  N   UNL     1      34.760 -19.574 -25.421  0.00  0.00    -0.126 NA
ATOM      4  N   UNL     1      35.442 -20.006 -24.301  0.00  0.00    -0.120 NA
ATOM      5  C   UNL     1      34.461 -15.729 -24.344  0.00  0.00    +0.104 C 
ATOM      6  C   UNL     1      34.540 -18.284 -25.282  0.00  0.00    +0.187 A 
ATOM      7  C   UNL     1      35.615 -18.969 -23.513  0.00  0.00    +0.217 A 
ATOM      8  C   UNL     1      33.827 -16.053 -25.663  0.00  0.00    +0.024 C 
ATOM      9  C   UNL     1      33.894 -17.322 -26.084  0.00  0.00    +0.042 C 
ENDROOT
BRANCH   5  12
ATOM     10  N   UNL     1      34.172 -12.139 -23.878  0.00  0.00    -0.208 N 
ATOM     11  N   UNL     1      34.380 -12.444 -22.586  0.00  0.00    -0.176 NA
ATOM     12  C   UNL     1      34.383 -14.314 -23.898  0.00  0.00    +0.056 C 
ATOM     13  C   UNL     1      34.165 -13.224 -24.705  0.00  0.00    +0.087 C 
ATOM     14  C   UNL     1      34.508 -13.773 -22.604  0.00  0.00    +0.121 C 
ATOM     15  C   UNL     1      33.984 -10.763 -24.269  0.00  0.00    +0.140 C 
ENDBRANCH   5  12
BRANCH   7  16
ATOM     16  S   UNL     1      36.438 -18.959 -21.928  0.00  0.00    -0.051 S 
BRANCH  16  19
ATOM     17  N   UNL     1      32.819 -22.450 -18.750  0.00  0.00    -0.248 NA
ATOM     18  C   UNL     1      35.044 -21.647 -19.210  0.00  0.00    -0.003 C 
ATOM     19  C   UNL     1      35.363 -20.007 -20.970  0.00  0.00    +0.011 C 
ATOM     20  C   UNL     1      33.655 -21.667 -19.457  0.00  0.00    +0.060 C 
ATOM     21  C   UNL     1      35.887 -20.818 -19.968  0.00  0.00    +0.060 C 
ATOM     22  C   UNL     1      33.997 -20.022 -21.219  0.00  0.00    -0.017 C 
ATOM     23  C   UNL     1      33.158 -20.847 -20.466  0.00  0.00    +0.072 C 
ATOM     24  C   UNL     1      35.544 -22.473 -18.194  0.00  0.00    -0.001 C 
ATOM     25  C   UNL     1      34.685 -23.281 -17.464  0.00  0.00    +0.020 C 
ATOM     26  C   UNL     1      33.342 -23.232 -17.779  0.00  0.00    +0.098 C 
ENDBRANCH  16  19
ENDBRANCH   7  16
TORSDOF 3
ENDMDL
MODEL 7
REMARK VINA RESULT:      -9.9      6.522     12.494
REMARK  Name = 24779724
REMARK  3 active torsions:
REMARK  status: ('A' for Active; 'I' for Inactive)
REMARK    1  A    between atoms: C_5  and  C_12
REMARK    2  A    between atoms: C_7  and  S_16
REMARK    3  A    between atoms: S_16  and  C_19
REMARK                            x       y       z     vdW  Elec       q    Type
REMARK                         _______ _______ _______ _____ _____    ______ ____
ROOT
ATOM      1  N   UNL     1      32.580 -10.884 -22.225  0.00  0.00    -0.186 N 
ATOM      2  N   UNL     1      33.072  -9.914 -23.035  0.00  0.00    -0.162 NA
ATOM      3  N   UNL     1      31.572 -11.906 -20.563  0.00  0.00    -0.126 NA
ATOM      4  N   UNL     1      32.077 -12.860 -21.422  0.00  0.00    -0.120 NA
ATOM      5  C   UNL     1      32.824  -8.705 -22.617  0.00  0.00    +0.104 C 
ATOM      6  C   UNL     1      31.879 -10.723 -21.053  0.00  0.00    +0.187 A 
ATOM      7  C   UNL     1      32.677 -12.234 -22.408  0.00  0.00    +0.217 A 
ATOM      8  C   UNL     1      32.088  -8.379 -21.351  0.00  0.00    +0.024 C 
ATOM      9  C   UNL     1      31.641  -9.405 -20.617  0.00  0.00    +0.042 C 
ENDROOT
BRANCH   5  12
ATOM     10  N   UNL     1      33.379  -5.786 -24.704  0.00  0.00    -0.208 N 
ATOM     11  N   UNL     1      34.673  -6.026 -24.431  0.00  0.00    -0.176 NA
ATOM     12  C   UNL     1      33.306  -7.552 -23.420  0.00  0.00    +0.056 C 
ATOM     13  C   UNL     1      32.520  -6.672 -24.123  0.00  0.00    +0.087 C 
ATOM     14  C   UNL     1      34.622  -7.105 -23.646  0.00  0.00    +0.121 C 
ATOM     15  C   UNL     1      33.019  -4.670 -25.546  0.00  0.00    +0.140 C 
ENDBRANCH   5  12
BRANCH   7  16
ATOM     16  S   UNL     1      33.505 -12.983 -23.802  0.00  0.00    -0.051 S 
BRANCH  16  19
ATOM     17  N   UNL     1      35.917 -17.778 -21.239  0.00  0.00    -0.248 NA
ATOM     18  C   UNL     1      35.205 -16.637 -23.238  0.00  0.00    -0.003 C 
ATOM     19  C   UNL     1      34.229 -14.423 -23.045  0.00  0.00    +0.011 C 
ATOM     20  C   UNL     1      35.374 -16.703 -21.839  0.00  0.00    +0.060 C 
ATOM     21  C   UNL     1      34.634 -15.498 -23.830  0.00  0.00    +0.060 C 
ATOM     22  C   UNL     1      34.392 -14.481 -21.667  0.00  0.00    -0.017 C 
ATOM     23  C   UNL     1      34.960 -15.613 -21.077  0.00  0.00    +0.072 C 
ATOM     24  C   UNL     1      35.622 -17.733 -24.004  0.00  0.00    -0.001 C 
ATOM     25  C   UNL     1      36.182 -18.843 -23.389  0.00  0.00    +0.020 C 
ATOM     26  C   UNL     1      36.306 -18.815 -22.015  0.00  0.00    +0.098 C 
ENDBRANCH  16  19
ENDBRANCH   7  16
TORSDOF 3
ENDMDL
MODEL 8
REMARK VINA RESULT:      -9.9      3.082      9.925
REMARK  Name = 24779724
REMARK  3 active torsions:
REMARK  status: ('A' for Active; 'I' for Inactive)
REMARK    1  A    between atoms: C_5  and  C_12
REMARK    2  A    between atoms: C_7  and  S_16
REMARK    3  A    between atoms: S_16  and  C_19
REMARK                            x       y       z     vdW  Elec       q    Type
REMARK                         _______ _______ _______ _____ _____    ______ ____
ROOT
ATOM      1  N   UNL     1      34.801 -16.165 -24.349  0.00  0.00    -0.186 N 
ATOM      2  N   UNL     1      34.713 -14.887 -23.906  0.00  0.00    -0.162 NA
ATOM      3  N   UNL     1      34.568 -17.971 -25.577  0.00  0.00    -0.126 NA
ATOM      4  N   UNL     1      35.324 -18.290 -24.467  0.00  0.00    -0.120 NA
ATOM      5  C   UNL     1      34.031 -14.103 -24.693  0.00  0.00    +0.104 C 
ATOM      6  C   UNL     1      34.258 -16.694 -25.496  0.00  0.00    +0.187 A 
ATOM      7  C   UNL     1      35.453 -17.201 -23.744  0.00  0.00    +0.217 A 
ATOM      8  C   UNL     1      33.369 -14.545 -25.964  0.00  0.00    +0.024 C 
ATOM      9  C   UNL     1      33.511 -15.828 -26.318  0.00  0.00    +0.042 C 
ENDROOT
BRANCH   5  12
ATOM     10  N   UNL     1      33.219 -10.833 -23.337  0.00  0.00    -0.208 N 
ATOM     11  N   UNL     1      34.080 -10.400 -24.275  0.00  0.00    -0.176 NA
ATOM     12  C   UNL     1      33.867 -12.675 -24.320  0.00  0.00    +0.056 C 
ATOM     13  C   UNL     1      33.056 -12.188 -23.323  0.00  0.00    +0.087 C 
ATOM     14  C   UNL     1      34.473 -11.529 -24.871  0.00  0.00    +0.121 C 
ATOM     15  C   UNL     1      32.569  -9.883 -22.467  0.00  0.00    +0.140 C 
ENDBRANCH   5  12
BRANCH   7  16
ATOM     16  S   UNL     1      36.336 -17.043 -22.200  0.00  0.00    -0.051 S 
BRANCH  16  19
ATOM     17  N   UNL     1      35.426 -22.391 -19.758  0.00  0.00    -0.248 NA
ATOM     18  C   UNL     1      34.525 -20.352 -20.674  0.00  0.00    -0.003 C 
ATOM     19  C   UNL     1      36.053 -18.643 -21.470  0.00  0.00    +0.011 C 
ATOM     20  C   UNL     1      35.610 -21.178 -20.313  0.00  0.00    +0.060 C 
ATOM     21  C   UNL     1      34.754 -19.092 -21.250  0.00  0.00    +0.060 C 
ATOM     22  C   UNL     1      37.126 -19.450 -21.116  0.00  0.00    -0.017 C 
ATOM     23  C   UNL     1      36.899 -20.704 -20.543  0.00  0.00    +0.072 C 
ATOM     24  C   UNL     1      33.228 -20.830 -20.442  0.00  0.00    -0.001 C 
ATOM     25  C   UNL     1      33.035 -22.079 -19.872  0.00  0.00    +0.020 C 
ATOM     26  C   UNL     1      34.158 -22.814 -19.551  0.00  0.00    +0.098 C 
ENDBRANCH  16  19
ENDBRANCH   7  16
TORSDOF 3
ENDMDL
MODEL 9
REMARK VINA RESULT:      -9.8      2.027      9.565
REMARK  Name = 24779724
REMARK  3 active torsions:
REMARK  status: ('A' for Active; 'I' for Inactive)
REMARK    1  A    between atoms: C_5  and  C_12
REMARK    2  A    between atoms: C_7  and  S_16
REMARK    3  A    between atoms: S_16  and  C_19
REMARK                            x       y       z     vdW  Elec       q    Type
REMARK                         _______ _______ _______ _____ _____    ______ ____
ROOT
ATOM      1  N   UNL     1      35.361 -21.915 -18.727  0.00  0.00    -0.186 N 
ATOM      2  N   UNL     1      35.935 -20.997 -19.544  0.00  0.00    -0.162 NA
ATOM      3  N   UNL     1      33.908 -23.302 -17.838  0.00  0.00    -0.126 NA
ATOM      4  N   UNL     1      35.073 -23.355 -17.100  0.00  0.00    -0.120 NA
ATOM      5  C   UNL     1      35.158 -20.593 -20.509  0.00  0.00    +0.104 C 
ATOM      6  C   UNL     1      34.091 -22.435 -18.812  0.00  0.00    +0.187 A 
ATOM      7  C   UNL     1      35.929 -22.520 -17.643  0.00  0.00    +0.217 A 
ATOM      8  C   UNL     1      33.747 -21.059 -20.714  0.00  0.00    +0.024 C 
ATOM      9  C   UNL     1      33.268 -21.968 -19.855  0.00  0.00    +0.042 C 
ENDROOT
BRANCH   5  12
ATOM     10  N   UNL     1      35.826 -18.164 -23.124  0.00  0.00    -0.208 N 
ATOM     11  N   UNL     1      37.054 -18.143 -22.580  0.00  0.00    -0.176 NA
ATOM     12  C   UNL     1      35.674 -19.591 -21.476  0.00  0.00    +0.056 C 
ATOM     13  C   UNL     1      34.962 -19.016 -22.501  0.00  0.00    +0.087 C 
ATOM     14  C   UNL     1      36.955 -19.015 -21.574  0.00  0.00    +0.121 C 
ATOM     15  C   UNL     1      35.533 -17.330 -24.265  0.00  0.00    +0.140 C 
ENDBRANCH   5  12
BRANCH   7  16
ATOM     16  S   UNL     1      37.596 -22.189 -17.091  0.00  0.00    -0.051 S 
BRANCH  16  19
ATOM     17  N   UNL     1      37.955 -25.650 -12.266  0.00  0.00    -0.248 NA
ATOM     18  C   UNL     1      36.897 -23.825 -13.431  0.00  0.00    -0.003 C 
ATOM     19  C   UNL     1      37.694 -23.220 -15.643  0.00  0.00    +0.011 C 
ATOM     20  C   UNL     1      37.856 -24.856 -13.349  0.00  0.00    +0.060 C 
ATOM     21  C   UNL     1      36.823 -23.015 -14.577  0.00  0.00    +0.060 C 
ATOM     22  C   UNL     1      38.641 -24.234 -15.568  0.00  0.00    -0.017 C 
ATOM     23  C   UNL     1      38.715 -25.039 -14.429  0.00  0.00    +0.072 C 
ATOM     24  C   UNL     1      36.033 -23.641 -12.344  0.00  0.00    -0.001 C 
ATOM     25  C   UNL     1      36.131 -24.458 -11.227  0.00  0.00    +0.020 C 
ATOM     26  C   UNL     1      37.101 -25.439 -11.239  0.00  0.00    +0.098 C 
ENDBRANCH  16  19
ENDBRANCH   7  16
TORSDOF 3
ENDMDL
