MODEL 1
REMARK VINA RESULT:     -11.4      0.000      0.000
REMARK  Name = 447994
REMARK  10 active torsions:
REMARK  status: ('A' for Active; 'I' for Inactive)
REMARK    1  A    between atoms: C_2  and  C_10
REMARK    2  A    between atoms: C_3  and  C_17
REMARK    3  A    between atoms: C_12  and  C_14
REMARK    4  A    between atoms: C_14  and  O_15
REMARK    5  A    between atoms: C_18  and  C_19
REMARK    6  A    between atoms: C_19  and  O_20
REMARK    7  A    between atoms: O_20  and  C_21
REMARK    8  A    between atoms: C_22  and  C_30
REMARK    9  A    between atoms: C_23  and  O_27
REMARK   10  A    between atoms: C_30  and  O_31
REMARK                            x       y       z     vdW  Elec       q    Type
REMARK                         _______ _______ _______ _____ _____    ______ ____
ROOT
ATOM      1  F   UNL     1      37.881 -18.208 -22.793  0.00  0.00    -0.204 F 
ATOM      2  C   UNL     1      35.638 -18.933 -22.479  0.00  0.00    +0.065 C 
ATOM      3  C   UNL     1      35.151 -20.494 -20.701  0.00  0.00    +0.000 C 
ATOM      4  C   UNL     1      34.721 -19.707 -21.769  0.00  0.00    +0.005 C 
ATOM      5  C   UNL     1      36.987 -18.946 -22.121  0.00  0.00    +0.143 C 
ATOM      6  C   UNL     1      36.500 -20.508 -20.343  0.00  0.00    +0.002 C 
ATOM      7  C   UNL     1      37.418 -19.733 -21.053  0.00  0.00    +0.030 C 
ENDROOT
BRANCH   2  10
ATOM      8  O   UNL     1      34.795 -18.803 -24.682  0.00  0.00    -0.353 OA
ATOM      9  N   UNL     1      34.391 -17.896 -25.656  0.00  0.00    -0.070 NA
ATOM     10  C   UNL     1      35.189 -18.119 -23.582  0.00  0.00    +0.179 C 
ATOM     11  C   UNL     1      35.061 -16.777 -23.789  0.00  0.00    +0.069 C 
ATOM     12  C   UNL     1      34.559 -16.694 -25.099  0.00  0.00    +0.198 C 
BRANCH  12  14
ATOM     13  O   UNL     1      33.856 -15.488 -27.022  0.00  0.00    -0.243 OA
ATOM     14  C   UNL     1      34.233 -15.510 -25.840  0.00  0.00    +0.359 C 
BRANCH  14  15
ATOM     15  O   UNL     1      34.364 -14.334 -25.143  0.00  0.00    -0.476 OA
ATOM     16  H   UNL     1      35.198 -14.084 -24.798  0.00  0.00    +0.295 HD
ENDBRANCH  14  15
ENDBRANCH  12  14
ENDBRANCH   2  10
BRANCH   3  17
ATOM     17  C   UNL     1      34.195 -21.302 -19.960  0.00  0.00    -0.001 C 
ATOM     18  C   UNL     1      34.497 -22.327 -19.131  0.00  0.00    +0.021 C 
BRANCH  18  19
ATOM     19  C   UNL     1      33.477 -23.120 -18.379  0.00  0.00    +0.232 C 
BRANCH  19  20
ATOM     20  O   UNL     1      34.136 -23.861 -17.362  0.00  0.00    -0.470 OA
BRANCH  20  21
ATOM     21  C   UNL     1      33.571 -23.838 -16.113  0.00  0.00    +0.148 C 
ATOM     22  C   UNL     1      34.241 -24.376 -15.020  0.00  0.00    +0.143 C 
ATOM     23  C   UNL     1      33.648 -24.340 -13.759  0.00  0.00    +0.143 C 
ATOM     24  C   UNL     1      32.313 -23.264 -15.959  0.00  0.00    +0.037 C 
ATOM     25  C   UNL     1      32.387 -23.766 -13.597  0.00  0.00    +0.037 C 
ATOM     26  C   UNL     1      31.720 -23.228 -14.697  0.00  0.00    +0.006 C 
BRANCH  23  27
ATOM     27  O   UNL     1      34.283 -24.859 -12.670  0.00  0.00    -0.505 OA
ATOM     28  H   UNL     1      33.801 -25.037 -11.886  0.00  0.00    +0.292 HD
ENDBRANCH  23  27
BRANCH  22  30
ATOM     29  O   UNL     1      35.766 -26.063 -15.740  0.00  0.00    -0.245 OA
ATOM     30  C   UNL     1      35.561 -24.976 -15.189  0.00  0.00    +0.347 C 
BRANCH  30  31
ATOM     31  O   UNL     1      36.540 -24.183 -14.661  0.00  0.00    -0.441 OA
ATOM     32  C   UNL     1      37.246 -23.339 -15.576  0.00  0.00    +0.256 C 
ENDBRANCH  30  31
ENDBRANCH  22  30
ENDBRANCH  20  21
ENDBRANCH  19  20
ENDBRANCH  18  19
ENDBRANCH   3  17
TORSDOF 10
ENDMDL
MODEL 2
REMARK VINA RESULT:     -11.3      7.150      8.454
REMARK  Name = 447994
REMARK  10 active torsions:
REMARK  status: ('A' for Active; 'I' for Inactive)
REMARK    1  A    between atoms: C_2  and  C_10
REMARK    2  A    between atoms: C_3  and  C_17
REMARK    3  A    between atoms: C_12  and  C_14
REMARK    4  A    between atoms: C_14  and  O_15
REMARK    5  A    between atoms: C_18  and  C_19
REMARK    6  A    between atoms: C_19  and  O_20
REMARK    7  A    between atoms: O_20  and  C_21
REMARK    8  A    between atoms: C_22  and  C_30
REMARK    9  A    between atoms: C_23  and  O_27
REMARK   10  A    between atoms: C_30  and  O_31
REMARK                            x       y       z     vdW  Elec       q    Type
REMARK                         _______ _______ _______ _____ _____    ______ ____
ROOT
ATOM      1  F   UNL     1      29.593 -25.354 -14.277  0.00  0.00    -0.204 F 
ATOM      2  C   UNL     1      30.827 -23.747 -15.523  0.00  0.00    +0.065 C 
ATOM      3  C   UNL     1      33.217 -23.598 -15.198  0.00  0.00    +0.000 C 
ATOM      4  C   UNL     1      32.054 -23.158 -15.829  0.00  0.00    +0.005 C 
ATOM      5  C   UNL     1      30.764 -24.777 -14.583  0.00  0.00    +0.143 C 
ATOM      6  C   UNL     1      33.153 -24.628 -14.259  0.00  0.00    +0.002 C 
ATOM      7  C   UNL     1      31.927 -25.217 -13.951  0.00  0.00    +0.030 C 
ENDROOT
BRANCH   2  10
ATOM      8  O   UNL     1      29.390 -23.832 -17.396  0.00  0.00    -0.353 OA
ATOM      9  N   UNL     1      28.209 -23.302 -17.903  0.00  0.00    -0.070 NA
ATOM     10  C   UNL     1      29.627 -23.290 -16.179  0.00  0.00    +0.179 C 
ATOM     11  C   UNL     1      28.637 -22.410 -15.852  0.00  0.00    +0.069 C 
ATOM     12  C   UNL     1      27.778 -22.456 -16.963  0.00  0.00    +0.198 C 
BRANCH  12  14
ATOM     13  O   UNL     1      26.361 -20.903 -18.071  0.00  0.00    -0.243 OA
ATOM     14  C   UNL     1      26.561 -21.725 -17.163  0.00  0.00    +0.359 C 
BRANCH  14  15
ATOM     15  O   UNL     1      25.569 -21.988 -16.251  0.00  0.00    -0.476 OA
ATOM     16  H   UNL     1      25.330 -21.339 -15.617  0.00  0.00    +0.295 HD
ENDBRANCH  14  15
ENDBRANCH  12  14
ENDBRANCH   2  10
BRANCH   3  17
ATOM     17  C   UNL     1      34.496 -22.984 -15.518  0.00  0.00    -0.001 C 
ATOM     18  C   UNL     1      35.606 -23.636 -15.933  0.00  0.00    +0.021 C 
BRANCH  18  19
ATOM     19  C   UNL     1      36.897 -22.958 -16.265  0.00  0.00    +0.232 C 
BRANCH  19  20
ATOM     20  O   UNL     1      37.940 -23.579 -15.528  0.00  0.00    -0.470 OA
BRANCH  20  21
ATOM     21  C   UNL     1      37.657 -23.936 -14.235  0.00  0.00    +0.148 C 
ATOM     22  C   UNL     1      37.628 -25.275 -13.858  0.00  0.00    +0.143 C 
ATOM     23  C   UNL     1      37.340 -25.616 -12.538  0.00  0.00    +0.143 C 
ATOM     24  C   UNL     1      37.401 -22.935 -13.304  0.00  0.00    +0.037 C 
ATOM     25  C   UNL     1      37.082 -24.616 -11.599  0.00  0.00    +0.037 C 
ATOM     26  C   UNL     1      37.113 -23.276 -11.983  0.00  0.00    +0.006 C 
BRANCH  23  27
ATOM     27  O   UNL     1      37.306 -26.920 -12.141  0.00  0.00    -0.505 OA
ATOM     28  H   UNL     1      37.809 -27.197 -11.400  0.00  0.00    +0.292 HD
ENDBRANCH  23  27
BRANCH  22  30
ATOM     29  O   UNL     1      37.126 -26.638 -15.750  0.00  0.00    -0.245 OA
ATOM     30  C   UNL     1      37.899 -26.321 -14.839  0.00  0.00    +0.347 C 
BRANCH  30  31
ATOM     31  O   UNL     1      39.116 -26.903 -14.624  0.00  0.00    -0.441 OA
ATOM     32  C   UNL     1      40.266 -26.164 -15.049  0.00  0.00    +0.256 C 
ENDBRANCH  30  31
ENDBRANCH  22  30
ENDBRANCH  20  21
ENDBRANCH  19  20
ENDBRANCH  18  19
ENDBRANCH   3  17
TORSDOF 10
ENDMDL
MODEL 3
REMARK VINA RESULT:     -11.3      2.726      3.597
REMARK  Name = 447994
REMARK  10 active torsions:
REMARK  status: ('A' for Active; 'I' for Inactive)
REMARK    1  A    between atoms: C_2  and  C_10
REMARK    2  A    between atoms: C_3  and  C_17
REMARK    3  A    between atoms: C_12  and  C_14
REMARK    4  A    between atoms: C_14  and  O_15
REMARK    5  A    between atoms: C_18  and  C_19
REMARK    6  A    between atoms: C_19  and  O_20
REMARK    7  A    between atoms: O_20  and  C_21
REMARK    8  A    between atoms: C_22  and  C_30
REMARK    9  A    between atoms: C_23  and  O_27
REMARK   10  A    between atoms: C_30  and  O_31
REMARK                            x       y       z     vdW  Elec       q    Type
REMARK                         _______ _______ _______ _____ _____    ______ ____
ROOT
ATOM      1  F   UNL     1      32.585 -20.400 -21.680  0.00  0.00    -0.204 F 
ATOM      2  C   UNL     1      34.852 -20.169 -21.002  0.00  0.00    +0.065 C 
ATOM      3  C   UNL     1      35.710 -21.620 -19.271  0.00  0.00    +0.000 C 
ATOM      4  C   UNL     1      35.904 -20.585 -20.185  0.00  0.00    +0.005 C 
ATOM      5  C   UNL     1      33.606 -20.788 -20.903  0.00  0.00    +0.143 C 
ATOM      6  C   UNL     1      34.464 -22.239 -19.172  0.00  0.00    +0.002 C 
ATOM      7  C   UNL     1      33.411 -21.823 -19.988  0.00  0.00    +0.030 C 
ENDROOT
BRANCH   2  10
ATOM      8  O   UNL     1      35.544 -17.949 -21.423  0.00  0.00    -0.353 OA
ATOM      9  N   UNL     1      35.690 -17.016 -22.442  0.00  0.00    -0.070 NA
ATOM     10  C   UNL     1      35.057 -19.099 -21.947  0.00  0.00    +0.179 C 
ATOM     11  C   UNL     1      34.871 -18.964 -23.291  0.00  0.00    +0.069 C 
ATOM     12  C   UNL     1      35.281 -17.644 -23.548  0.00  0.00    +0.198 C 
BRANCH  12  14
ATOM     13  O   UNL     1      34.794 -17.385 -25.860  0.00  0.00    -0.243 OA
ATOM     14  C   UNL     1      35.300 -16.961 -24.808  0.00  0.00    +0.359 C 
BRANCH  14  15
ATOM     15  O   UNL     1      35.940 -15.747 -24.801  0.00  0.00    -0.476 OA
ATOM     16  H   UNL     1      35.953 -15.227 -24.021  0.00  0.00    +0.295 HD
ENDBRANCH  14  15
ENDBRANCH  12  14
ENDBRANCH   2  10
BRANCH   3  17
ATOM     17  C   UNL     1      36.807 -22.054 -18.420  0.00  0.00    -0.001 C 
ATOM     18  C   UNL     1      36.795 -22.090 -17.068  0.00  0.00    +0.021 C 
BRANCH  18  19
ATOM     19  C   UNL     1      37.944 -22.559 -16.235  0.00  0.00    +0.232 C 
BRANCH  19  20
ATOM     20  O   UNL     1      37.712 -23.907 -15.855  0.00  0.00    -0.470 OA
BRANCH  20  21
ATOM     21  C   UNL     1      37.453 -24.142 -14.529  0.00  0.00    +0.148 C 
ATOM     22  C   UNL     1      37.395 -25.441 -14.036  0.00  0.00    +0.143 C 
ATOM     23  C   UNL     1      37.132 -25.656 -12.684  0.00  0.00    +0.143 C 
ATOM     24  C   UNL     1      37.251 -23.055 -13.685  0.00  0.00    +0.037 C 
ATOM     25  C   UNL     1      36.929 -24.571 -11.831  0.00  0.00    +0.037 C 
ATOM     26  C   UNL     1      36.988 -23.271 -12.332  0.00  0.00    +0.006 C 
BRANCH  23  27
ATOM     27  O   UNL     1      37.071 -26.919 -12.173  0.00  0.00    -0.505 OA
ATOM     28  H   UNL     1      36.329 -27.184 -11.667  0.00  0.00    +0.292 HD
ENDBRANCH  23  27
BRANCH  22  30
ATOM     29  O   UNL     1      36.790 -26.967 -15.766  0.00  0.00    -0.245 OA
ATOM     30  C   UNL     1      37.610 -26.577 -14.927  0.00  0.00    +0.347 C 
BRANCH  30  31
ATOM     31  O   UNL     1      38.831 -27.151 -14.718  0.00  0.00    -0.441 OA
ATOM     32  C   UNL     1      39.974 -26.301 -14.860  0.00  0.00    +0.256 C 
ENDBRANCH  30  31
ENDBRANCH  22  30
ENDBRANCH  20  21
ENDBRANCH  19  20
ENDBRANCH  18  19
ENDBRANCH   3  17
TORSDOF 10
ENDMDL
MODEL 4
REMARK VINA RESULT:     -11.0      2.126      3.894
REMARK  Name = 447994
REMARK  10 active torsions:
REMARK  status: ('A' for Active; 'I' for Inactive)
REMARK    1  A    between atoms: C_2  and  C_10
REMARK    2  A    between atoms: C_3  and  C_17
REMARK    3  A    between atoms: C_12  and  C_14
REMARK    4  A    between atoms: C_14  and  O_15
REMARK    5  A    between atoms: C_18  and  C_19
REMARK    6  A    between atoms: C_19  and  O_20
REMARK    7  A    between atoms: O_20  and  C_21
REMARK    8  A    between atoms: C_22  and  C_30
REMARK    9  A    between atoms: C_23  and  O_27
REMARK   10  A    between atoms: C_30  and  O_31
REMARK                            x       y       z     vdW  Elec       q    Type
REMARK                         _______ _______ _______ _____ _____    ______ ____
ROOT
ATOM      1  F   UNL     1      32.517 -20.375 -21.512  0.00  0.00    -0.204 F 
ATOM      2  C   UNL     1      34.842 -20.152 -21.066  0.00  0.00    +0.065 C 
ATOM      3  C   UNL     1      35.841 -21.523 -19.346  0.00  0.00    +0.000 C 
ATOM      4  C   UNL     1      35.961 -20.544 -20.331  0.00  0.00    +0.005 C 
ATOM      5  C   UNL     1      33.602 -20.740 -20.815  0.00  0.00    +0.143 C 
ATOM      6  C   UNL     1      34.601 -22.112 -19.095  0.00  0.00    +0.002 C 
ATOM      7  C   UNL     1      33.481 -21.720 -19.830  0.00  0.00    +0.030 C 
ENDROOT
BRANCH   2  10
ATOM      8  O   UNL     1      35.400 -17.931 -21.648  0.00  0.00    -0.353 OA
ATOM      9  N   UNL     1      35.476 -17.062 -22.730  0.00  0.00    -0.070 NA
ATOM     10  C   UNL     1      34.971 -19.139 -22.084  0.00  0.00    +0.179 C 
ATOM     11  C   UNL     1      34.757 -19.106 -23.431  0.00  0.00    +0.069 C 
ATOM     12  C   UNL     1      35.088 -17.786 -23.783  0.00  0.00    +0.198 C 
BRANCH  12  14
ATOM     13  O   UNL     1      34.432 -17.645 -26.063  0.00  0.00    -0.243 OA
ATOM     14  C   UNL     1      35.048 -17.190 -25.087  0.00  0.00    +0.359 C 
BRANCH  14  15
ATOM     15  O   UNL     1      35.765 -16.026 -25.215  0.00  0.00    -0.476 OA
ATOM     16  H   UNL     1      35.648 -15.332 -24.596  0.00  0.00    +0.295 HD
ENDBRANCH  14  15
ENDBRANCH  12  14
ENDBRANCH   2  10
BRANCH   3  17
ATOM     17  C   UNL     1      37.008 -21.932 -18.579  0.00  0.00    -0.001 C 
ATOM     18  C   UNL     1      37.141 -21.853 -17.236  0.00  0.00    +0.021 C 
BRANCH  18  19
ATOM     19  C   UNL     1      38.357 -22.301 -16.490  0.00  0.00    +0.232 C 
BRANCH  19  20
ATOM     20  O   UNL     1      37.951 -22.855 -15.247  0.00  0.00    -0.470 OA
BRANCH  20  21
ATOM     21  C   UNL     1      38.039 -24.217 -15.117  0.00  0.00    +0.148 C 
ATOM     22  C   UNL     1      36.906 -25.016 -15.222  0.00  0.00    +0.143 C 
ATOM     23  C   UNL     1      37.020 -26.398 -15.088  0.00  0.00    +0.143 C 
ATOM     24  C   UNL     1      39.286 -24.786 -14.878  0.00  0.00    +0.037 C 
ATOM     25  C   UNL     1      38.266 -26.976 -14.849  0.00  0.00    +0.037 C 
ATOM     26  C   UNL     1      39.399 -26.169 -14.744  0.00  0.00    +0.006 C 
BRANCH  23  27
ATOM     27  O   UNL     1      35.925 -27.205 -15.189  0.00  0.00    -0.505 OA
ATOM     28  H   UNL     1      36.002 -28.051 -15.585  0.00  0.00    +0.292 HD
ENDBRANCH  23  27
BRANCH  22  30
ATOM     29  O   UNL     1      34.958 -24.555 -16.520  0.00  0.00    -0.245 OA
ATOM     30  C   UNL     1      35.602 -24.411 -15.474  0.00  0.00    +0.347 C 
BRANCH  30  31
ATOM     31  O   UNL     1      35.182 -23.669 -14.407  0.00  0.00    -0.441 OA
ATOM     32  C   UNL     1      34.597 -24.386 -13.315  0.00  0.00    +0.256 C 
ENDBRANCH  30  31
ENDBRANCH  22  30
ENDBRANCH  20  21
ENDBRANCH  19  20
ENDBRANCH  18  19
ENDBRANCH   3  17
TORSDOF 10
ENDMDL
MODEL 5
REMARK VINA RESULT:     -10.8      5.014     11.309
REMARK  Name = 447994
REMARK  10 active torsions:
REMARK  status: ('A' for Active; 'I' for Inactive)
REMARK    1  A    between atoms: C_2  and  C_10
REMARK    2  A    between atoms: C_3  and  C_17
REMARK    3  A    between atoms: C_12  and  C_14
REMARK    4  A    between atoms: C_14  and  O_15
REMARK    5  A    between atoms: C_18  and  C_19
REMARK    6  A    between atoms: C_19  and  O_20
REMARK    7  A    between atoms: O_20  and  C_21
REMARK    8  A    between atoms: C_22  and  C_30
REMARK    9  A    between atoms: C_23  and  O_27
REMARK   10  A    between atoms: C_30  and  O_31
REMARK                            x       y       z     vdW  Elec       q    Type
REMARK                         _______ _______ _______ _____ _____    ______ ____
ROOT
ATOM      1  F   UNL     1      35.002 -19.805 -24.672  0.00  0.00    -0.204 F 
ATOM      2  C   UNL     1      35.295 -18.018 -23.131  0.00  0.00    +0.065 C 
ATOM      3  C   UNL     1      34.852 -15.758 -23.861  0.00  0.00    +0.000 C 
ATOM      4  C   UNL     1      35.243 -16.650 -22.863  0.00  0.00    +0.005 C 
ATOM      5  C   UNL     1      34.957 -18.494 -24.398  0.00  0.00    +0.143 C 
ATOM      6  C   UNL     1      34.514 -16.234 -25.128  0.00  0.00    +0.002 C 
ATOM      7  C   UNL     1      34.566 -17.602 -25.397  0.00  0.00    +0.030 C 
ENDROOT
BRANCH   2  10
ATOM      8  O   UNL     1      36.914 -18.697 -21.549  0.00  0.00    -0.353 OA
ATOM      9  N   UNL     1      37.168 -19.654 -20.574  0.00  0.00    -0.070 NA
ATOM     10  C   UNL     1      35.699 -18.937 -22.095  0.00  0.00    +0.179 C 
ATOM     11  C   UNL     1      35.128 -20.030 -21.513  0.00  0.00    +0.069 C 
ATOM     12  C   UNL     1      36.087 -20.439 -20.571  0.00  0.00    +0.198 C 
BRANCH  12  14
ATOM     13  O   UNL     1      35.302 -22.555 -19.826  0.00  0.00    -0.243 OA
ATOM     14  C   UNL     1      36.011 -21.549 -19.666  0.00  0.00    +0.359 C 
BRANCH  14  15
ATOM     15  O   UNL     1      36.803 -21.443 -18.549  0.00  0.00    -0.476 OA
ATOM     16  H   UNL     1      36.705 -22.055 -17.846  0.00  0.00    +0.295 HD
ENDBRANCH  14  15
ENDBRANCH  12  14
ENDBRANCH   2  10
BRANCH   3  17
ATOM     17  C   UNL     1      34.797 -14.331 -23.582  0.00  0.00    -0.001 C 
ATOM     18  C   UNL     1      33.734 -13.523 -23.793  0.00  0.00    +0.021 C 
BRANCH  18  19
ATOM     19  C   UNL     1      33.720 -12.062 -23.476  0.00  0.00    +0.232 C 
BRANCH  19  20
ATOM     20  O   UNL     1      32.413 -11.698 -23.058  0.00  0.00    -0.470 OA
BRANCH  20  21
ATOM     21  C   UNL     1      32.244 -11.415 -21.727  0.00  0.00    +0.148 C 
ATOM     22  C   UNL     1      32.179 -10.099 -21.283  0.00  0.00    +0.143 C 
ATOM     23  C   UNL     1      32.005  -9.835 -19.926  0.00  0.00    +0.143 C 
ATOM     24  C   UNL     1      32.136 -12.471 -20.828  0.00  0.00    +0.037 C 
ATOM     25  C   UNL     1      31.896 -10.888 -19.018  0.00  0.00    +0.037 C 
ATOM     26  C   UNL     1      31.962 -12.206 -19.470  0.00  0.00    +0.006 C 
BRANCH  23  27
ATOM     27  O   UNL     1      31.937  -8.554 -19.463  0.00  0.00    -0.505 OA
ATOM     28  H   UNL     1      31.180  -8.266 -18.991  0.00  0.00    +0.292 HD
ENDBRANCH  23  27
BRANCH  22  30
ATOM     29  O   UNL     1      31.464  -8.753 -23.118  0.00  0.00    -0.245 OA
ATOM     30  C   UNL     1      32.291  -8.996 -22.233  0.00  0.00    +0.347 C 
BRANCH  30  31
ATOM     31  O   UNL     1      33.426  -8.267 -22.018  0.00  0.00    -0.441 OA
ATOM     32  C   UNL     1      33.872  -7.440 -23.097  0.00  0.00    +0.256 C 
ENDBRANCH  30  31
ENDBRANCH  22  30
ENDBRANCH  20  21
ENDBRANCH  19  20
ENDBRANCH  18  19
ENDBRANCH   3  17
TORSDOF 10
ENDMDL
MODEL 6
REMARK VINA RESULT:     -10.7      2.408      3.570
REMARK  Name = 447994
REMARK  10 active torsions:
REMARK  status: ('A' for Active; 'I' for Inactive)
REMARK    1  A    between atoms: C_2  and  C_10
REMARK    2  A    between atoms: C_3  and  C_17
REMARK    3  A    between atoms: C_12  and  C_14
REMARK    4  A    between atoms: C_14  and  O_15
REMARK    5  A    between atoms: C_18  and  C_19
REMARK    6  A    between atoms: C_19  and  O_20
REMARK    7  A    between atoms: O_20  and  C_21
REMARK    8  A    between atoms: C_22  and  C_30
REMARK    9  A    between atoms: C_23  and  O_27
REMARK   10  A    between atoms: C_30  and  O_31
REMARK                            x       y       z     vdW  Elec       q    Type
REMARK                         _______ _______ _______ _____ _____    ______ ____
ROOT
ATOM      1  F   UNL     1      37.917 -18.723 -21.514  0.00  0.00    -0.204 F 
ATOM      2  C   UNL     1      35.649 -19.431 -21.622  0.00  0.00    +0.065 C 
ATOM      3  C   UNL     1      34.896 -21.178 -20.134  0.00  0.00    +0.000 C 
ATOM      4  C   UNL     1      34.633 -20.263 -21.152  0.00  0.00    +0.005 C 
ATOM      5  C   UNL     1      36.929 -19.515 -21.074  0.00  0.00    +0.143 C 
ATOM      6  C   UNL     1      36.176 -21.262 -19.585  0.00  0.00    +0.002 C 
ATOM      7  C   UNL     1      37.193 -20.431 -20.055  0.00  0.00    +0.030 C 
ENDROOT
BRANCH   2  10
ATOM      8  O   UNL     1      35.542 -17.183 -22.344  0.00  0.00    -0.353 OA
ATOM      9  N   UNL     1      35.243 -16.394 -23.448  0.00  0.00    -0.070 NA
ATOM     10  C   UNL     1      35.373 -18.485 -22.676  0.00  0.00    +0.179 C 
ATOM     11  C   UNL     1      34.970 -18.593 -23.974  0.00  0.00    +0.069 C 
ATOM     12  C   UNL     1      34.904 -17.258 -24.409  0.00  0.00    +0.198 C 
BRANCH  12  14
ATOM     13  O   UNL     1      35.134 -15.896 -26.343  0.00  0.00    -0.243 OA
ATOM     14  C   UNL     1      34.532 -16.776 -25.707  0.00  0.00    +0.359 C 
BRANCH  14  15
ATOM     15  O   UNL     1      33.414 -17.362 -26.246  0.00  0.00    -0.476 OA
ATOM     16  H   UNL     1      33.198 -17.220 -27.147  0.00  0.00    +0.295 HD
ENDBRANCH  14  15
ENDBRANCH  12  14
ENDBRANCH   2  10
BRANCH   3  17
ATOM     17  C   UNL     1      33.836 -22.046 -19.643  0.00  0.00    -0.001 C 
ATOM     18  C   UNL     1      33.784 -22.619 -18.419  0.00  0.00    +0.021 C 
BRANCH  18  19
ATOM     19  C   UNL     1      32.665 -23.493 -17.954  0.00  0.00    +0.232 C 
BRANCH  19  20
ATOM     20  O   UNL     1      31.998 -22.848 -16.879  0.00  0.00    -0.470 OA
BRANCH  20  21
ATOM     21  C   UNL     1      31.691 -23.619 -15.788  0.00  0.00    +0.148 C 
ATOM     22  C   UNL     1      30.397 -24.089 -15.591  0.00  0.00    +0.143 C 
ATOM     23  C   UNL     1      30.107 -24.872 -14.475  0.00  0.00    +0.143 C 
ATOM     24  C   UNL     1      32.699 -23.925 -14.879  0.00  0.00    +0.037 C 
ATOM     25  C   UNL     1      31.113 -25.183 -13.561  0.00  0.00    +0.037 C 
ATOM     26  C   UNL     1      32.409 -24.709 -13.764  0.00  0.00    +0.006 C 
BRANCH  23  27
ATOM     27  O   UNL     1      28.847 -25.347 -14.260  0.00  0.00    -0.505 OA
ATOM     28  H   UNL     1      28.715 -26.255 -14.068  0.00  0.00    +0.292 HD
ENDBRANCH  23  27
BRANCH  22  30
ATOM     29  O   UNL     1      28.938 -24.537 -17.425  0.00  0.00    -0.245 OA
ATOM     30  C   UNL     1      29.344 -23.765 -16.549  0.00  0.00    +0.347 C 
BRANCH  30  31
ATOM     31  O   UNL     1      28.864 -22.501 -16.352  0.00  0.00    -0.441 OA
ATOM     32  C   UNL     1      27.494 -22.389 -15.951  0.00  0.00    +0.256 C 
ENDBRANCH  30  31
ENDBRANCH  22  30
ENDBRANCH  20  21
ENDBRANCH  19  20
ENDBRANCH  18  19
ENDBRANCH   3  17
TORSDOF 10
ENDMDL
MODEL 7
REMARK VINA RESULT:     -10.6      2.295      3.343
REMARK  Name = 447994
REMARK  10 active torsions:
REMARK  status: ('A' for Active; 'I' for Inactive)
REMARK    1  A    between atoms: C_2  and  C_10
REMARK    2  A    between atoms: C_3  and  C_17
REMARK    3  A    between atoms: C_12  and  C_14
REMARK    4  A    between atoms: C_14  and  O_15
REMARK    5  A    between atoms: C_18  and  C_19
REMARK    6  A    between atoms: C_19  and  O_20
REMARK    7  A    between atoms: O_20  and  C_21
REMARK    8  A    between atoms: C_22  and  C_30
REMARK    9  A    between atoms: C_23  and  O_27
REMARK   10  A    between atoms: C_30  and  O_31
REMARK                            x       y       z     vdW  Elec       q    Type
REMARK                         _______ _______ _______ _____ _____    ______ ____
ROOT
ATOM      1  F   UNL     1      32.551 -20.365 -21.538  0.00  0.00    -0.204 F 
ATOM      2  C   UNL     1      34.845 -20.167 -20.942  0.00  0.00    +0.065 C 
ATOM      3  C   UNL     1      35.740 -21.622 -19.234  0.00  0.00    +0.000 C 
ATOM      4  C   UNL     1      35.917 -20.595 -20.160  0.00  0.00    +0.005 C 
ATOM      5  C   UNL     1      33.593 -20.765 -20.795  0.00  0.00    +0.143 C 
ATOM      6  C   UNL     1      34.488 -22.220 -19.087  0.00  0.00    +0.002 C 
ATOM      7  C   UNL     1      33.414 -21.791 -19.868  0.00  0.00    +0.030 C 
ENDROOT
BRANCH   2  10
ATOM      8  O   UNL     1      35.453 -17.926 -21.383  0.00  0.00    -0.353 OA
ATOM      9  N   UNL     1      35.590 -17.005 -22.414  0.00  0.00    -0.070 NA
ATOM     10  C   UNL     1      35.033 -19.105 -21.900  0.00  0.00    +0.179 C 
ATOM     11  C   UNL     1      34.885 -19.002 -23.252  0.00  0.00    +0.069 C 
ATOM     12  C   UNL     1      35.246 -17.670 -23.520  0.00  0.00    +0.198 C 
BRANCH  12  14
ATOM     13  O   UNL     1      34.721 -17.418 -25.824  0.00  0.00    -0.243 OA
ATOM     14  C   UNL     1      35.275 -17.008 -24.792  0.00  0.00    +0.359 C 
BRANCH  14  15
ATOM     15  O   UNL     1      35.987 -15.835 -24.819  0.00  0.00    -0.476 OA
ATOM     16  H   UNL     1      36.670 -15.685 -24.196  0.00  0.00    +0.295 HD
ENDBRANCH  14  15
ENDBRANCH  12  14
ENDBRANCH   2  10
BRANCH   3  17
ATOM     17  C   UNL     1      36.859 -22.069 -18.419  0.00  0.00    -0.001 C 
ATOM     18  C   UNL     1      36.821 -22.322 -17.091  0.00  0.00    +0.021 C 
BRANCH  18  19
ATOM     19  C   UNL     1      37.997 -22.795 -16.298  0.00  0.00    +0.232 C 
BRANCH  19  20
ATOM     20  O   UNL     1      37.716 -22.618 -14.917  0.00  0.00    -0.470 OA
BRANCH  20  21
ATOM     21  C   UNL     1      36.601 -23.245 -14.426  0.00  0.00    +0.148 C 
ATOM     22  C   UNL     1      36.603 -23.804 -13.152  0.00  0.00    +0.143 C 
ATOM     23  C   UNL     1      35.457 -24.437 -12.673  0.00  0.00    +0.143 C 
ATOM     24  C   UNL     1      35.464 -23.312 -15.225  0.00  0.00    +0.037 C 
ATOM     25  C   UNL     1      34.314 -24.507 -13.468  0.00  0.00    +0.037 C 
ATOM     26  C   UNL     1      34.318 -23.944 -14.745  0.00  0.00    +0.006 C 
BRANCH  23  27
ATOM     27  O   UNL     1      35.431 -24.991 -11.428  0.00  0.00    -0.505 OA
ATOM     28  H   UNL     1      35.076 -24.509 -10.707  0.00  0.00    +0.292 HD
ENDBRANCH  23  27
BRANCH  22  30
ATOM     29  O   UNL     1      37.870 -23.096 -11.260  0.00  0.00    -0.245 OA
ATOM     30  C   UNL     1      37.798 -23.730 -12.318  0.00  0.00    +0.347 C 
BRANCH  30  31
ATOM     31  O   UNL     1      38.827 -24.450 -12.857  0.00  0.00    -0.441 OA
ATOM     32  C   UNL     1      38.617 -25.859 -13.003  0.00  0.00    +0.256 C 
ENDBRANCH  30  31
ENDBRANCH  22  30
ENDBRANCH  20  21
ENDBRANCH  19  20
ENDBRANCH  18  19
ENDBRANCH   3  17
TORSDOF 10
ENDMDL
MODEL 8
REMARK VINA RESULT:     -10.6      2.692     10.806
REMARK  Name = 447994
REMARK  10 active torsions:
REMARK  status: ('A' for Active; 'I' for Inactive)
REMARK    1  A    between atoms: C_2  and  C_10
REMARK    2  A    between atoms: C_3  and  C_17
REMARK    3  A    between atoms: C_12  and  C_14
REMARK    4  A    between atoms: C_14  and  O_15
REMARK    5  A    between atoms: C_18  and  C_19
REMARK    6  A    between atoms: C_19  and  O_20
REMARK    7  A    between atoms: O_20  and  C_21
REMARK    8  A    between atoms: C_22  and  C_30
REMARK    9  A    between atoms: C_23  and  O_27
REMARK   10  A    between atoms: C_30  and  O_31
REMARK                            x       y       z     vdW  Elec       q    Type
REMARK                         _______ _______ _______ _____ _____    ______ ____
ROOT
ATOM      1  F   UNL     1      37.343 -20.593 -19.382  0.00  0.00    -0.204 F 
ATOM      2  C   UNL     1      35.408 -20.462 -20.758  0.00  0.00    +0.065 C 
ATOM      3  C   UNL     1      35.494 -19.137 -22.776  0.00  0.00    +0.000 C 
ATOM      4  C   UNL     1      34.788 -19.966 -21.905  0.00  0.00    +0.005 C 
ATOM      5  C   UNL     1      36.733 -20.126 -20.481  0.00  0.00    +0.143 C 
ATOM      6  C   UNL     1      36.819 -18.801 -22.499  0.00  0.00    +0.002 C 
ATOM      7  C   UNL     1      37.439 -19.296 -21.352  0.00  0.00    +0.030 C 
ENDROOT
BRANCH   2  10
ATOM      8  O   UNL     1      33.327 -21.264 -19.976  0.00  0.00    -0.353 OA
ATOM      9  N   UNL     1      32.758 -22.137 -19.056  0.00  0.00    -0.070 NA
ATOM     10  C   UNL     1      34.675 -21.320 -19.859  0.00  0.00    +0.179 C 
ATOM     11  C   UNL     1      35.028 -22.208 -18.886  0.00  0.00    +0.069 C 
ATOM     12  C   UNL     1      33.794 -22.689 -18.417  0.00  0.00    +0.198 C 
BRANCH  12  14
ATOM     13  O   UNL     1      34.438 -24.365 -16.861  0.00  0.00    -0.243 OA
ATOM     14  C   UNL     1      33.564 -23.656 -17.384  0.00  0.00    +0.359 C 
BRANCH  14  15
ATOM     15  O   UNL     1      32.258 -23.770 -16.975  0.00  0.00    -0.476 OA
ATOM     16  H   UNL     1      32.060 -24.142 -16.138  0.00  0.00    +0.295 HD
ENDBRANCH  14  15
ENDBRANCH  12  14
ENDBRANCH   2  10
BRANCH   3  17
ATOM     17  C   UNL     1      34.848 -18.621 -23.973  0.00  0.00    -0.001 C 
ATOM     18  C   UNL     1      35.048 -17.399 -24.518  0.00  0.00    +0.021 C 
BRANCH  18  19
ATOM     19  C   UNL     1      34.371 -16.918 -25.760  0.00  0.00    +0.232 C 
BRANCH  19  20
ATOM     20  O   UNL     1      33.373 -15.974 -25.400  0.00  0.00    -0.470 OA
BRANCH  20  21
ATOM     21  C   UNL     1      33.632 -14.659 -25.687  0.00  0.00    +0.148 C 
ATOM     22  C   UNL     1      33.895 -13.747 -24.671  0.00  0.00    +0.143 C 
ATOM     23  C   UNL     1      34.156 -12.415 -24.987  0.00  0.00    +0.143 C 
ATOM     24  C   UNL     1      33.627 -14.252 -27.018  0.00  0.00    +0.037 C 
ATOM     25  C   UNL     1      34.154 -12.000 -26.318  0.00  0.00    +0.037 C 
ATOM     26  C   UNL     1      33.889 -12.919 -27.334  0.00  0.00    +0.006 C 
BRANCH  23  27
ATOM     27  O   UNL     1      34.419 -11.501 -24.010  0.00  0.00    -0.505 OA
ATOM     28  H   UNL     1      34.339 -11.743 -23.108  0.00  0.00    +0.292 HD
ENDBRANCH  23  27
BRANCH  22  30
ATOM     29  O   UNL     1      34.838 -14.775 -22.736  0.00  0.00    -0.245 OA
ATOM     30  C   UNL     1      33.899 -14.181 -23.277  0.00  0.00    +0.347 C 
BRANCH  30  31
ATOM     31  O   UNL     1      32.734 -13.846 -22.648  0.00  0.00    -0.441 OA
ATOM     32  C   UNL     1      32.787 -13.718 -21.223  0.00  0.00    +0.256 C 
ENDBRANCH  30  31
ENDBRANCH  22  30
ENDBRANCH  20  21
ENDBRANCH  19  20
ENDBRANCH  18  19
ENDBRANCH   3  17
TORSDOF 10
ENDMDL
MODEL 9
REMARK VINA RESULT:     -10.5      4.924     11.315
REMARK  Name = 447994
REMARK  10 active torsions:
REMARK  status: ('A' for Active; 'I' for Inactive)
REMARK    1  A    between atoms: C_2  and  C_10
REMARK    2  A    between atoms: C_3  and  C_17
REMARK    3  A    between atoms: C_12  and  C_14
REMARK    4  A    between atoms: C_14  and  O_15
REMARK    5  A    between atoms: C_18  and  C_19
REMARK    6  A    between atoms: C_19  and  O_20
REMARK    7  A    between atoms: O_20  and  C_21
REMARK    8  A    between atoms: C_22  and  C_30
REMARK    9  A    between atoms: C_23  and  O_27
REMARK   10  A    between atoms: C_30  and  O_31
REMARK                            x       y       z     vdW  Elec       q    Type
REMARK                         _______ _______ _______ _____ _____    ______ ____
ROOT
ATOM      1  F   UNL     1      34.935 -19.519 -24.769  0.00  0.00    -0.204 F 
ATOM      2  C   UNL     1      35.305 -17.716 -23.263  0.00  0.00    +0.065 C 
ATOM      3  C   UNL     1      34.875 -15.459 -24.011  0.00  0.00    +0.000 C 
ATOM      4  C   UNL     1      35.283 -16.344 -23.013  0.00  0.00    +0.005 C 
ATOM      5  C   UNL     1      34.919 -18.203 -24.512  0.00  0.00    +0.143 C 
ATOM      6  C   UNL     1      34.489 -15.947 -25.260  0.00  0.00    +0.002 C 
ATOM      7  C   UNL     1      34.511 -17.319 -25.511  0.00  0.00    +0.030 C 
ENDROOT
BRANCH   2  10
ATOM      8  O   UNL     1      36.901 -18.319 -21.628  0.00  0.00    -0.353 OA
ATOM      9  N   UNL     1      37.178 -19.277 -20.660  0.00  0.00    -0.070 NA
ATOM     10  C   UNL     1      35.727 -18.628 -22.228  0.00  0.00    +0.179 C 
ATOM     11  C   UNL     1      35.207 -19.768 -21.690  0.00  0.00    +0.069 C 
ATOM     12  C   UNL     1      36.152 -20.131 -20.716  0.00  0.00    +0.198 C 
BRANCH  12  14
ATOM     13  O   UNL     1      35.416 -22.274 -20.001  0.00  0.00    -0.243 OA
ATOM     14  C   UNL     1      36.114 -21.262 -19.835  0.00  0.00    +0.359 C 
BRANCH  14  15
ATOM     15  O   UNL     1      36.931 -21.169 -18.735  0.00  0.00    -0.476 OA
ATOM     16  H   UNL     1      37.325 -20.349 -18.511  0.00  0.00    +0.295 HD
ENDBRANCH  14  15
ENDBRANCH  12  14
ENDBRANCH   2  10
BRANCH   3  17
ATOM     17  C   UNL     1      34.852 -14.028 -23.750  0.00  0.00    -0.001 C 
ATOM     18  C   UNL     1      34.082 -13.118 -24.390  0.00  0.00    +0.021 C 
BRANCH  18  19
ATOM     19  C   UNL     1      34.082 -11.657 -24.076  0.00  0.00    +0.232 C 
BRANCH  19  20
ATOM     20  O   UNL     1      32.856 -11.327 -23.441  0.00  0.00    -0.470 OA
BRANCH  20  21
ATOM     21  C   UNL     1      32.829 -10.167 -22.709  0.00  0.00    +0.148 C 
ATOM     22  C   UNL     1      32.268 -10.142 -21.438  0.00  0.00    +0.143 C 
ATOM     23  C   UNL     1      32.253  -8.952 -20.711  0.00  0.00    +0.143 C 
ATOM     24  C   UNL     1      33.376  -9.014 -23.264  0.00  0.00    +0.037 C 
ATOM     25  C   UNL     1      32.800  -7.793 -21.260  0.00  0.00    +0.037 C 
ATOM     26  C   UNL     1      33.362  -7.824 -22.537  0.00  0.00    +0.006 C 
BRANCH  23  27
ATOM     27  O   UNL     1      31.710  -8.900 -19.462  0.00  0.00    -0.505 OA
ATOM     28  H   UNL     1      32.266  -8.934 -18.708  0.00  0.00    +0.292 HD
ENDBRANCH  23  27
BRANCH  22  30
ATOM     29  O   UNL     1      30.485 -11.596 -20.807  0.00  0.00    -0.245 OA
ATOM     30  C   UNL     1      31.696 -11.356 -20.862  0.00  0.00    +0.347 C 
BRANCH  30  31
ATOM     31  O   UNL     1      32.670 -12.191 -20.392  0.00  0.00    -0.441 OA
ATOM     32  C   UNL     1      32.594 -13.560 -20.802  0.00  0.00    +0.256 C 
ENDBRANCH  30  31
ENDBRANCH  22  30
ENDBRANCH  20  21
ENDBRANCH  19  20
ENDBRANCH  18  19
ENDBRANCH   3  17
TORSDOF 10
ENDMDL
