MODEL 1
REMARK VINA RESULT:     -11.5      0.000      0.000
REMARK  Name = 46937054
REMARK  4 active torsions:
REMARK  status: ('A' for Active; 'I' for Inactive)
REMARK    1  A    between atoms: C_5  and  C_18
REMARK    2  A    between atoms: C_11  and  O_19
REMARK    3  A    between atoms: O_19  and  C_20
REMARK    4  A    between atoms: C_20  and  C_22
REMARK                            x       y       z     vdW  Elec       q    Type
REMARK                         _______ _______ _______ _____ _____    ______ ____
ROOT
ATOM      1 CL   UNL     1      30.433 -23.488 -16.499  0.00  0.00    -0.047 Cl
ATOM      2  O   UNL     1      36.025 -22.800 -17.561  0.00  0.00    -0.263 OA
ATOM      3  N   UNL     1      34.376 -23.449 -16.043  0.00  0.00    -0.240 N 
ATOM      4  N   UNL     1      32.500 -22.985 -18.054  0.00  0.00    -0.351 NA
ATOM      5  C   UNL     1      35.155 -23.710 -14.831  0.00  0.00    +0.161 C 
ATOM      6  C   UNL     1      34.067 -23.986 -13.833  0.00  0.00    +0.057 C 
ATOM      7  C   UNL     1      33.025 -23.576 -15.800  0.00  0.00    +0.091 C 
ATOM      8  C   UNL     1      32.859 -23.920 -14.413  0.00  0.00    -0.005 C 
ATOM      9  C   UNL     1      34.864 -23.017 -17.254  0.00  0.00    +0.320 C 
ATOM     10  C   UNL     1      32.137 -23.351 -16.778  0.00  0.00    +0.206 C 
ATOM     11  C   UNL     1      33.766 -22.824 -18.273  0.00  0.00    +0.335 C 
ENDROOT
BRANCH   5  18
ATOM     12  O   UNL     1      35.572 -25.849 -15.791  0.00  0.00    -0.273 OA
ATOM     13  N   UNL     1      37.115 -25.059 -14.263  0.00  0.00    -0.278 N 
ATOM     14  C   UNL     1      37.628 -24.058 -13.333  0.00  0.00    +0.094 C 
ATOM     15  C   UNL     1      37.996 -26.216 -14.323  0.00  0.00    +0.094 C 
ATOM     16  C   UNL     1      38.748 -24.770 -12.588  0.00  0.00    +0.023 C 
ATOM     17  C   UNL     1      39.266 -25.764 -13.620  0.00  0.00    +0.023 C 
ATOM     18  C   UNL     1      35.957 -24.972 -15.016  0.00  0.00    +0.244 C 
ENDBRANCH   5  18
BRANCH  11  19
ATOM     19  O   UNL     1      34.234 -22.463 -19.477  0.00  0.00    -0.444 OA
BRANCH  19  20
ATOM     20  C   UNL     1      33.678 -21.253 -19.976  0.00  0.00    +0.235 C 
BRANCH  20  22
ATOM     21  F   UNL     1      37.679 -18.379 -22.700  0.00  0.00    -0.204 F 
ATOM     22  C   UNL     1      34.744 -20.487 -20.702  0.00  0.00    +0.021 C 
ATOM     23  C   UNL     1      34.411 -19.702 -21.806  0.00  0.00    +0.002 C 
ATOM     24  C   UNL     1      36.069 -20.560 -20.274  0.00  0.00    +0.002 C 
ATOM     25  C   UNL     1      35.401 -18.990 -22.481  0.00  0.00    +0.029 C 
ATOM     26  C   UNL     1      37.061 -19.848 -20.949  0.00  0.00    +0.029 C 
ATOM     27  C   UNL     1      36.727 -19.062 -22.053  0.00  0.00    +0.140 C 
ENDBRANCH  20  22
ENDBRANCH  19  20
ENDBRANCH  11  19
TORSDOF 4
ENDMDL
MODEL 2
REMARK VINA RESULT:     -10.8      2.552      4.992
REMARK  Name = 46937054
REMARK  4 active torsions:
REMARK  status: ('A' for Active; 'I' for Inactive)
REMARK    1  A    between atoms: C_5  and  C_18
REMARK    2  A    between atoms: C_11  and  O_19
REMARK    3  A    between atoms: O_19  and  C_20
REMARK    4  A    between atoms: C_20  and  C_22
REMARK                            x       y       z     vdW  Elec       q    Type
REMARK                         _______ _______ _______ _____ _____    ______ ____
ROOT
ATOM      1 CL   UNL     1      37.532 -23.277 -14.626  0.00  0.00    -0.047 Cl
ATOM      2  O   UNL     1      32.988 -23.346 -18.121  0.00  0.00    -0.263 OA
ATOM      3  N   UNL     1      33.825 -23.717 -15.975  0.00  0.00    -0.240 N 
ATOM      4  N   UNL     1      36.286 -22.783 -16.895  0.00  0.00    -0.351 NA
ATOM      5  C   UNL     1      32.666 -24.284 -15.283  0.00  0.00    +0.161 C 
ATOM      6  C   UNL     1      33.263 -24.646 -13.953  0.00  0.00    +0.057 C 
ATOM      7  C   UNL     1      34.938 -23.723 -15.162  0.00  0.00    +0.091 C 
ATOM      8  C   UNL     1      34.558 -24.301 -13.900  0.00  0.00    -0.005 C 
ATOM      9  C   UNL     1      33.883 -23.327 -17.292  0.00  0.00    +0.320 C 
ATOM     10  C   UNL     1      36.113 -23.269 -15.619  0.00  0.00    +0.206 C 
ATOM     11  C   UNL     1      35.252 -22.815 -17.673  0.00  0.00    +0.335 C 
ENDROOT
BRANCH   5  18
ATOM     12  O   UNL     1      31.917 -22.206 -14.391  0.00  0.00    -0.273 OA
ATOM     13  N   UNL     1      30.406 -23.421 -15.647  0.00  0.00    -0.278 N 
ATOM     14  C   UNL     1      30.015 -24.574 -16.453  0.00  0.00    +0.094 C 
ATOM     15  C   UNL     1      29.307 -22.476 -15.521  0.00  0.00    +0.094 C 
ATOM     16  C   UNL     1      28.506 -24.440 -16.599  0.00  0.00    +0.023 C 
ATOM     17  C   UNL     1      28.291 -22.933 -16.555  0.00  0.00    +0.023 C 
ATOM     18  C   UNL     1      31.640 -23.202 -15.061  0.00  0.00    +0.244 C 
ENDBRANCH   5  18
BRANCH  11  19
ATOM     19  O   UNL     1      35.307 -22.373 -18.938  0.00  0.00    -0.444 OA
BRANCH  19  20
ATOM     20  C   UNL     1      36.491 -21.649 -19.250  0.00  0.00    +0.235 C 
BRANCH  20  22
ATOM     21  F   UNL     1      35.332 -17.866 -23.253  0.00  0.00    -0.204 F 
ATOM     22  C   UNL     1      36.182 -20.641 -20.316  0.00  0.00    +0.021 C 
ATOM     23  C   UNL     1      37.167 -19.749 -20.739  0.00  0.00    +0.002 C 
ATOM     24  C   UNL     1      34.910 -20.595 -20.886  0.00  0.00    +0.002 C 
ATOM     25  C   UNL     1      36.880 -18.811 -21.731  0.00  0.00    +0.029 C 
ATOM     26  C   UNL     1      34.622 -19.657 -21.878  0.00  0.00    +0.029 C 
ATOM     27  C   UNL     1      35.608 -18.765 -22.301  0.00  0.00    +0.140 C 
ENDBRANCH  20  22
ENDBRANCH  19  20
ENDBRANCH  11  19
TORSDOF 4
ENDMDL
MODEL 3
REMARK VINA RESULT:     -10.4      6.697     11.143
REMARK  Name = 46937054
REMARK  4 active torsions:
REMARK  status: ('A' for Active; 'I' for Inactive)
REMARK    1  A    between atoms: C_5  and  C_18
REMARK    2  A    between atoms: C_11  and  O_19
REMARK    3  A    between atoms: O_19  and  C_20
REMARK    4  A    between atoms: C_20  and  C_22
REMARK                            x       y       z     vdW  Elec       q    Type
REMARK                         _______ _______ _______ _____ _____    ______ ____
ROOT
ATOM      1 CL   UNL     1      34.942 -16.450 -25.926  0.00  0.00    -0.047 Cl
ATOM      2  O   UNL     1      35.077 -15.391 -20.293  0.00  0.00    -0.263 OA
ATOM      3  N   UNL     1      34.496 -14.637 -22.423  0.00  0.00    -0.240 N 
ATOM      4  N   UNL     1      35.335 -17.109 -23.405  0.00  0.00    -0.351 NA
ATOM      5  C   UNL     1      34.048 -13.269 -22.158  0.00  0.00    +0.161 C 
ATOM      6  C   UNL     1      33.815 -12.757 -23.550  0.00  0.00    +0.057 C 
ATOM      7  C   UNL     1      34.503 -14.901 -23.776  0.00  0.00    +0.091 C 
ATOM      8  C   UNL     1      34.066 -13.712 -24.458  0.00  0.00    -0.005 C 
ATOM      9  C   UNL     1      34.968 -15.539 -21.499  0.00  0.00    +0.320 C 
ATOM     10  C   UNL     1      34.908 -16.095 -24.231  0.00  0.00    +0.206 C 
ATOM     11  C   UNL     1      35.368 -16.849 -22.137  0.00  0.00    +0.335 C 
ENDROOT
BRANCH   5  18
ATOM     12  O   UNL     1      32.127 -14.375 -21.289  0.00  0.00    -0.273 OA
ATOM     13  N   UNL     1      32.249 -12.087 -20.995  0.00  0.00    -0.278 N 
ATOM     14  C   UNL     1      32.905 -10.791 -21.140  0.00  0.00    +0.094 C 
ATOM     15  C   UNL     1      30.982 -11.955 -20.291  0.00  0.00    +0.094 C 
ATOM     16  C   UNL     1      31.843  -9.780 -20.733  0.00  0.00    +0.023 C 
ATOM     17  C   UNL     1      31.012 -10.549 -19.713  0.00  0.00    +0.023 C 
ATOM     18  C   UNL     1      32.722 -13.308 -21.441  0.00  0.00    +0.244 C 
ENDBRANCH   5  18
BRANCH  11  19
ATOM     19  O   UNL     1      35.773 -17.760 -21.239  0.00  0.00    -0.444 OA
BRANCH  19  20
ATOM     20  C   UNL     1      36.061 -19.036 -21.798  0.00  0.00    +0.235 C 
BRANCH  20  22
ATOM     21  F   UNL     1      33.465 -22.999 -18.758  0.00  0.00    -0.204 F 
ATOM     22  C   UNL     1      35.369 -20.092 -20.987  0.00  0.00    +0.021 C 
ATOM     23  C   UNL     1      33.976 -20.163 -20.977  0.00  0.00    +0.002 C 
ATOM     24  C   UNL     1      36.118 -21.003 -20.244  0.00  0.00    +0.002 C 
ATOM     25  C   UNL     1      33.332 -21.144 -20.224  0.00  0.00    +0.029 C 
ATOM     26  C   UNL     1      35.475 -21.986 -19.490  0.00  0.00    +0.029 C 
ATOM     27  C   UNL     1      34.082 -22.056 -19.481  0.00  0.00    +0.140 C 
ENDBRANCH  20  22
ENDBRANCH  19  20
ENDBRANCH  11  19
TORSDOF 4
ENDMDL
MODEL 4
REMARK VINA RESULT:     -10.4      9.739     13.470
REMARK  Name = 46937054
REMARK  4 active torsions:
REMARK  status: ('A' for Active; 'I' for Inactive)
REMARK    1  A    between atoms: C_5  and  C_18
REMARK    2  A    between atoms: C_11  and  O_19
REMARK    3  A    between atoms: O_19  and  C_20
REMARK    4  A    between atoms: C_20  and  C_22
REMARK                            x       y       z     vdW  Elec       q    Type
REMARK                         _______ _______ _______ _____ _____    ______ ____
ROOT
ATOM      1 CL   UNL     1      32.355 -14.641 -19.198  0.00  0.00    -0.047 Cl
ATOM      2  O   UNL     1      32.501 -10.949 -23.582  0.00  0.00    -0.263 OA
ATOM      3  N   UNL     1      32.016 -11.309 -21.328  0.00  0.00    -0.240 N 
ATOM      4  N   UNL     1      32.974 -13.908 -21.653  0.00  0.00    -0.351 NA
ATOM      5  C   UNL     1      31.425 -10.030 -20.929  0.00  0.00    +0.161 C 
ATOM      6  C   UNL     1      30.992 -10.329 -19.522  0.00  0.00    +0.057 C 
ATOM      7  C   UNL     1      31.959 -12.222 -20.297  0.00  0.00    +0.091 C 
ATOM      8  C   UNL     1      31.322 -11.583 -19.177  0.00  0.00    -0.005 C 
ATOM      9  C   UNL     1      32.471 -11.646 -22.581  0.00  0.00    +0.320 C 
ATOM     10  C   UNL     1      32.426 -13.467 -20.469  0.00  0.00    +0.206 C 
ATOM     11  C   UNL     1      32.989 -13.064 -22.634  0.00  0.00    +0.335 C 
ENDROOT
BRANCH   5  18
ATOM     12  O   UNL     1      33.317  -8.963 -19.952  0.00  0.00    -0.273 OA
ATOM     13  N   UNL     1      32.493  -8.061 -21.913  0.00  0.00    -0.278 N 
ATOM     14  C   UNL     1      31.562  -8.024 -23.036  0.00  0.00    +0.094 C 
ATOM     15  C   UNL     1      33.463  -6.980 -22.004  0.00  0.00    +0.094 C 
ATOM     16  C   UNL     1      31.823  -6.681 -23.702  0.00  0.00    +0.023 C 
ATOM     17  C   UNL     1      33.299  -6.439 -23.415  0.00  0.00    +0.023 C 
ATOM     18  C   UNL     1      32.503  -8.977 -20.877  0.00  0.00    +0.244 C 
ENDBRANCH   5  18
BRANCH  11  19
ATOM     19  O   UNL     1      33.494 -13.386 -23.835  0.00  0.00    -0.444 OA
BRANCH  19  20
ATOM     20  C   UNL     1      34.837 -13.852 -23.793  0.00  0.00    +0.235 C 
BRANCH  20  22
ATOM     21  F   UNL     1      34.903 -19.368 -24.911  0.00  0.00    -0.204 F 
ATOM     22  C   UNL     1      34.855 -15.322 -24.091  0.00  0.00    +0.021 C 
ATOM     23  C   UNL     1      35.388 -16.215 -23.162  0.00  0.00    +0.002 C 
ATOM     24  C   UNL     1      34.339 -15.795 -25.297  0.00  0.00    +0.002 C 
ATOM     25  C   UNL     1      35.405 -17.583 -23.439  0.00  0.00    +0.029 C 
ATOM     26  C   UNL     1      34.355 -17.163 -25.574  0.00  0.00    +0.029 C 
ATOM     27  C   UNL     1      34.888 -18.057 -24.645  0.00  0.00    +0.140 C 
ENDBRANCH  20  22
ENDBRANCH  19  20
ENDBRANCH  11  19
TORSDOF 4
ENDMDL
MODEL 5
REMARK VINA RESULT:      -9.9      1.623      2.419
REMARK  Name = 46937054
REMARK  4 active torsions:
REMARK  status: ('A' for Active; 'I' for Inactive)
REMARK    1  A    between atoms: C_5  and  C_18
REMARK    2  A    between atoms: C_11  and  O_19
REMARK    3  A    between atoms: O_19  and  C_20
REMARK    4  A    between atoms: C_20  and  C_22
REMARK                            x       y       z     vdW  Elec       q    Type
REMARK                         _______ _______ _______ _____ _____    ______ ____
ROOT
ATOM      1 CL   UNL     1      31.507 -24.056 -13.644  0.00  0.00    -0.047 Cl
ATOM      2  O   UNL     1      36.532 -23.840 -16.395  0.00  0.00    -0.263 OA
ATOM      3  N   UNL     1      35.408 -24.135 -14.372  0.00  0.00    -0.240 N 
ATOM      4  N   UNL     1      33.020 -23.932 -15.798  0.00  0.00    -0.351 NA
ATOM      5  C   UNL     1      36.511 -24.222 -13.413  0.00  0.00    +0.161 C 
ATOM      6  C   UNL     1      35.767 -24.268 -12.109  0.00  0.00    +0.057 C 
ATOM      7  C   UNL     1      34.190 -24.151 -13.727  0.00  0.00    +0.091 C 
ATOM      8  C   UNL     1      34.442 -24.243 -12.313  0.00  0.00    -0.005 C 
ATOM      9  C   UNL     1      35.515 -23.943 -15.729  0.00  0.00    +0.320 C 
ATOM     10  C   UNL     1      33.051 -24.054 -14.427  0.00  0.00    +0.206 C 
ATOM     11  C   UNL     1      34.164 -23.874 -16.401  0.00  0.00    +0.335 C 
ENDROOT
BRANCH   5  18
ATOM     12  O   UNL     1      36.719 -26.584 -13.194  0.00  0.00    -0.273 OA
ATOM     13  N   UNL     1      38.459 -25.463 -14.219  0.00  0.00    -0.278 N 
ATOM     14  C   UNL     1      39.114 -24.258 -14.719  0.00  0.00    +0.094 C 
ATOM     15  C   UNL     1      39.278 -26.641 -14.463  0.00  0.00    +0.094 C 
ATOM     16  C   UNL     1      40.532 -24.704 -15.045  0.00  0.00    +0.023 C 
ATOM     17  C   UNL     1      40.350 -26.166 -15.431  0.00  0.00    +0.023 C 
ATOM     18  C   UNL     1      37.227 -25.536 -13.595  0.00  0.00    +0.244 C 
ENDBRANCH   5  18
BRANCH  11  19
ATOM     19  O   UNL     1      34.254 -23.749 -17.733  0.00  0.00    -0.444 OA
BRANCH  19  20
ATOM     20  C   UNL     1      33.351 -22.800 -18.289  0.00  0.00    +0.235 C 
BRANCH  20  22
ATOM     21  F   UNL     1      36.143 -19.505 -21.900  0.00  0.00    -0.204 F 
ATOM     22  C   UNL     1      34.095 -21.922 -19.251  0.00  0.00    +0.021 C 
ATOM     23  C   UNL     1      35.488 -21.974 -19.310  0.00  0.00    +0.002 C 
ATOM     24  C   UNL     1      33.395 -21.053 -20.087  0.00  0.00    +0.002 C 
ATOM     25  C   UNL     1      36.180 -21.158 -20.204  0.00  0.00    +0.029 C 
ATOM     26  C   UNL     1      34.086 -20.236 -20.983  0.00  0.00    +0.029 C 
ATOM     27  C   UNL     1      35.480 -20.289 -21.041  0.00  0.00    +0.140 C 
ENDBRANCH  20  22
ENDBRANCH  19  20
ENDBRANCH  11  19
TORSDOF 4
ENDMDL
MODEL 6
REMARK VINA RESULT:      -9.7     10.859     15.266
REMARK  Name = 46937054
REMARK  4 active torsions:
REMARK  status: ('A' for Active; 'I' for Inactive)
REMARK    1  A    between atoms: C_5  and  C_18
REMARK    2  A    between atoms: C_11  and  O_19
REMARK    3  A    between atoms: O_19  and  C_20
REMARK    4  A    between atoms: C_20  and  C_22
REMARK                            x       y       z     vdW  Elec       q    Type
REMARK                         _______ _______ _______ _____ _____    ______ ____
ROOT
ATOM      1 CL   UNL     1      31.932 -10.885 -18.703  0.00  0.00    -0.047 Cl
ATOM      2  O   UNL     1      32.772 -10.217 -24.334  0.00  0.00    -0.263 OA
ATOM      3  N   UNL     1      32.450  -9.201 -22.259  0.00  0.00    -0.240 N 
ATOM      4  N   UNL     1      32.477 -11.751 -21.131  0.00  0.00    -0.351 NA
ATOM      5  C   UNL     1      32.352  -7.785 -22.618  0.00  0.00    +0.161 C 
ATOM      6  C   UNL     1      32.004  -7.166 -21.294  0.00  0.00    +0.057 C 
ATOM      7  C   UNL     1      32.217  -9.386 -20.913  0.00  0.00    +0.091 C 
ATOM      8  C   UNL     1      31.949  -8.098 -20.331  0.00  0.00    -0.005 C 
ATOM      9  C   UNL     1      32.630 -10.255 -23.123  0.00  0.00    +0.320 C 
ATOM     10  C   UNL     1      32.235 -10.619 -20.387  0.00  0.00    +0.206 C 
ATOM     11  C   UNL     1      32.655 -11.582 -22.402  0.00  0.00    +0.335 C 
ENDROOT
BRANCH   5  18
ATOM     12  O   UNL     1      34.717  -7.604 -22.400  0.00  0.00    -0.273 OA
ATOM     13  N   UNL     1      33.726  -6.447 -24.138  0.00  0.00    -0.278 N 
ATOM     14  C   UNL     1      32.574  -6.029 -24.931  0.00  0.00    +0.094 C 
ATOM     15  C   UNL     1      34.956  -5.872 -24.660  0.00  0.00    +0.094 C 
ATOM     16  C   UNL     1      33.112  -4.921 -25.825  0.00  0.00    +0.023 C 
ATOM     17  C   UNL     1      34.570  -5.318 -26.022  0.00  0.00    +0.023 C 
ATOM     18  C   UNL     1      33.710  -7.280 -23.033  0.00  0.00    +0.244 C 
ENDBRANCH   5  18
BRANCH  11  19
ATOM     19  O   UNL     1      32.892 -12.614 -23.226  0.00  0.00    -0.444 OA
BRANCH  19  20
ATOM     20  C   UNL     1      34.262 -12.985 -23.311  0.00  0.00    +0.235 C 
BRANCH  20  22
ATOM     21  F   UNL     1      34.653 -18.008 -25.821  0.00  0.00    -0.204 F 
ATOM     22  C   UNL     1      34.366 -14.324 -23.980  0.00  0.00    +0.021 C 
ATOM     23  C   UNL     1      33.745 -14.539 -25.210  0.00  0.00    +0.002 C 
ATOM     24  C   UNL     1      35.084 -15.353 -23.372  0.00  0.00    +0.002 C 
ATOM     25  C   UNL     1      33.841 -15.784 -25.833  0.00  0.00    +0.029 C 
ATOM     26  C   UNL     1      35.181 -16.599 -23.994  0.00  0.00    +0.029 C 
ATOM     27  C   UNL     1      34.559 -16.814 -25.225  0.00  0.00    +0.140 C 
ENDBRANCH  20  22
ENDBRANCH  19  20
ENDBRANCH  11  19
TORSDOF 4
ENDMDL
MODEL 7
REMARK VINA RESULT:      -9.7      3.228      5.028
REMARK  Name = 46937054
REMARK  4 active torsions:
REMARK  status: ('A' for Active; 'I' for Inactive)
REMARK    1  A    between atoms: C_5  and  C_18
REMARK    2  A    between atoms: C_11  and  O_19
REMARK    3  A    between atoms: O_19  and  C_20
REMARK    4  A    between atoms: C_20  and  C_22
REMARK                            x       y       z     vdW  Elec       q    Type
REMARK                         _______ _______ _______ _____ _____    ______ ____
ROOT
ATOM      1 CL   UNL     1      37.688 -21.718 -16.550  0.00  0.00    -0.047 Cl
ATOM      2  O   UNL     1      33.411 -22.584 -20.268  0.00  0.00    -0.263 OA
ATOM      3  N   UNL     1      34.231 -22.894 -18.106  0.00  0.00    -0.240 N 
ATOM      4  N   UNL     1      36.447 -21.372 -18.848  0.00  0.00    -0.351 NA
ATOM      5  C   UNL     1      33.207 -23.750 -17.504  0.00  0.00    +0.161 C 
ATOM      6  C   UNL     1      33.821 -24.053 -16.168  0.00  0.00    +0.057 C 
ATOM      7  C   UNL     1      35.286 -22.701 -17.239  0.00  0.00    +0.091 C 
ATOM      8  C   UNL     1      35.001 -23.430 -16.031  0.00  0.00    -0.005 C 
ATOM      9  C   UNL     1      34.247 -22.417 -19.395  0.00  0.00    +0.320 C 
ATOM     10  C   UNL     1      36.342 -21.966 -17.611  0.00  0.00    +0.206 C 
ATOM     11  C   UNL     1      35.477 -21.586 -19.678  0.00  0.00    +0.335 C 
ENDROOT
BRANCH   5  18
ATOM     12  O   UNL     1      31.825 -21.832 -17.791  0.00  0.00    -0.273 OA
ATOM     13  N   UNL     1      31.003 -23.536 -16.464  0.00  0.00    -0.278 N 
ATOM     14  C   UNL     1      31.093 -24.847 -15.829  0.00  0.00    +0.094 C 
ATOM     15  C   UNL     1      29.742 -22.885 -16.142  0.00  0.00    +0.094 C 
ATOM     16  C   UNL     1      29.928 -24.874 -14.848  0.00  0.00    +0.023 C 
ATOM     17  C   UNL     1      28.893 -23.984 -15.524  0.00  0.00    +0.023 C 
ATOM     18  C   UNL     1      31.954 -22.944 -17.276  0.00  0.00    +0.244 C 
ENDBRANCH   5  18
BRANCH  11  19
ATOM     19  O   UNL     1      35.475 -21.063 -20.913  0.00  0.00    -0.444 OA
BRANCH  19  20
ATOM     20  C   UNL     1      36.242 -19.872 -21.039  0.00  0.00    +0.235 C 
BRANCH  20  22
ATOM     21  F   UNL     1      34.467 -17.012 -25.551  0.00  0.00    -0.204 F 
ATOM     22  C   UNL     1      35.769 -19.110 -22.242  0.00  0.00    +0.021 C 
ATOM     23  C   UNL     1      35.957 -17.730 -22.311  0.00  0.00    +0.002 C 
ATOM     24  C   UNL     1      35.140 -19.781 -23.290  0.00  0.00    +0.002 C 
ATOM     25  C   UNL     1      35.517 -17.020 -23.429  0.00  0.00    +0.029 C 
ATOM     26  C   UNL     1      34.700 -19.073 -24.408  0.00  0.00    +0.029 C 
ATOM     27  C   UNL     1      34.889 -17.692 -24.478  0.00  0.00    +0.140 C 
ENDBRANCH  20  22
ENDBRANCH  19  20
ENDBRANCH  11  19
TORSDOF 4
ENDMDL
MODEL 8
REMARK VINA RESULT:      -9.7     10.870     15.273
REMARK  Name = 46937054
REMARK  4 active torsions:
REMARK  status: ('A' for Active; 'I' for Inactive)
REMARK    1  A    between atoms: C_5  and  C_18
REMARK    2  A    between atoms: C_11  and  O_19
REMARK    3  A    between atoms: O_19  and  C_20
REMARK    4  A    between atoms: C_20  and  C_22
REMARK                            x       y       z     vdW  Elec       q    Type
REMARK                         _______ _______ _______ _____ _____    ______ ____
ROOT
ATOM      1 CL   UNL     1      31.991 -10.700 -18.609  0.00  0.00    -0.047 Cl
ATOM      2  O   UNL     1      32.693 -10.120 -24.269  0.00  0.00    -0.263 OA
ATOM      3  N   UNL     1      32.463  -9.071 -22.198  0.00  0.00    -0.240 N 
ATOM      4  N   UNL     1      32.440 -11.609 -21.041  0.00  0.00    -0.351 NA
ATOM      5  C   UNL     1      32.399  -7.657 -22.570  0.00  0.00    +0.161 C 
ATOM      6  C   UNL     1      32.109  -7.013 -21.245  0.00  0.00    +0.057 C 
ATOM      7  C   UNL     1      32.262  -9.235 -20.844  0.00  0.00    +0.091 C 
ATOM      8  C   UNL     1      32.051  -7.933 -20.270  0.00  0.00    -0.005 C 
ATOM      9  C   UNL     1      32.584 -10.140 -23.054  0.00  0.00    +0.320 C 
ATOM     10  C   UNL     1      32.255 -10.461 -20.304  0.00  0.00    +0.206 C 
ATOM     11  C   UNL     1      32.587 -11.459 -22.319  0.00  0.00    +0.335 C 
ENDROOT
BRANCH   5  18
ATOM     12  O   UNL     1      34.771  -7.519 -22.399  0.00  0.00    -0.273 OA
ATOM     13  N   UNL     1      33.775  -6.416 -24.168  0.00  0.00    -0.278 N 
ATOM     14  C   UNL     1      32.620  -6.006 -24.960  0.00  0.00    +0.094 C 
ATOM     15  C   UNL     1      35.009  -5.891 -24.734  0.00  0.00    +0.094 C 
ATOM     16  C   UNL     1      33.166  -4.950 -25.910  0.00  0.00    +0.023 C 
ATOM     17  C   UNL     1      34.611  -5.387 -26.113  0.00  0.00    +0.023 C 
ATOM     18  C   UNL     1      33.761  -7.200 -23.028  0.00  0.00    +0.244 C 
ENDBRANCH   5  18
BRANCH  11  19
ATOM     19  O   UNL     1      32.767 -12.507 -23.136  0.00  0.00    -0.444 OA
BRANCH  19  20
ATOM     20  C   UNL     1      34.126 -12.745 -23.483  0.00  0.00    +0.235 C 
BRANCH  20  22
ATOM     21  F   UNL     1      35.667 -17.791 -21.521  0.00  0.00    -0.204 F 
ATOM     22  C   UNL     1      34.537 -14.090 -22.960  0.00  0.00    +0.021 C 
ATOM     23  C   UNL     1      34.485 -14.352 -21.591  0.00  0.00    +0.002 C 
ATOM     24  C   UNL     1      34.971 -15.078 -23.843  0.00  0.00    +0.002 C 
ATOM     25  C   UNL     1      34.867 -15.602 -21.104  0.00  0.00    +0.029 C 
ATOM     26  C   UNL     1      35.353 -16.329 -23.357  0.00  0.00    +0.029 C 
ATOM     27  C   UNL     1      35.301 -16.591 -21.987  0.00  0.00    +0.140 C 
ENDBRANCH  20  22
ENDBRANCH  19  20
ENDBRANCH  11  19
TORSDOF 4
ENDMDL
MODEL 9
REMARK VINA RESULT:      -9.4      9.731     14.381
REMARK  Name = 46937054
REMARK  4 active torsions:
REMARK  status: ('A' for Active; 'I' for Inactive)
REMARK    1  A    between atoms: C_5  and  C_18
REMARK    2  A    between atoms: C_11  and  O_19
REMARK    3  A    between atoms: O_19  and  C_20
REMARK    4  A    between atoms: C_20  and  C_22
REMARK                            x       y       z     vdW  Elec       q    Type
REMARK                         _______ _______ _______ _____ _____    ______ ____
ROOT
ATOM      1 CL   UNL     1      32.237 -13.183 -20.159  0.00  0.00    -0.047 Cl
ATOM      2  O   UNL     1      34.184 -11.534 -25.293  0.00  0.00    -0.263 OA
ATOM      3  N   UNL     1      33.011 -10.965 -23.358  0.00  0.00    -0.240 N 
ATOM      4  N   UNL     1      33.648 -13.490 -22.363  0.00  0.00    -0.351 NA
ATOM      5  C   UNL     1      32.514  -9.625 -23.679  0.00  0.00    +0.161 C 
ATOM      6  C   UNL     1      31.648  -9.337 -22.486  0.00  0.00    +0.057 C 
ATOM      7  C   UNL     1      32.526 -11.394 -22.141  0.00  0.00    +0.091 C 
ATOM      8  C   UNL     1      31.683 -10.354 -21.613  0.00  0.00    -0.005 C 
ATOM      9  C   UNL     1      33.763 -11.777 -24.174  0.00  0.00    +0.320 C 
ATOM     10  C   UNL     1      32.843 -12.610 -21.677  0.00  0.00    +0.206 C 
ATOM     11  C   UNL     1      34.071 -13.105 -23.524  0.00  0.00    +0.335 C 
ENDROOT
BRANCH   5  18
ATOM     12  O   UNL     1      34.795  -9.023 -23.352  0.00  0.00    -0.273 OA
ATOM     13  N   UNL     1      33.351  -7.354 -24.037  0.00  0.00    -0.278 N 
ATOM     14  C   UNL     1      32.038  -6.852 -24.429  0.00  0.00    +0.094 C 
ATOM     15  C   UNL     1      34.349  -6.295 -24.075  0.00  0.00    +0.094 C 
ATOM     16  C   UNL     1      32.202  -5.338 -24.449  0.00  0.00    +0.023 C 
ATOM     17  C   UNL     1      33.668  -5.158 -24.820  0.00  0.00    +0.023 C 
ATOM     18  C   UNL     1      33.665  -8.652 -23.672  0.00  0.00    +0.244 C 
ENDBRANCH   5  18
BRANCH  11  19
ATOM     19  O   UNL     1      34.856 -13.883 -24.284  0.00  0.00    -0.444 OA
BRANCH  19  20
ATOM     20  C   UNL     1      34.144 -14.799 -25.107  0.00  0.00    +0.235 C 
BRANCH  20  22
ATOM     21  F   UNL     1      35.517 -20.053 -23.623  0.00  0.00    -0.204 F 
ATOM     22  C   UNL     1      34.510 -16.200 -24.711  0.00  0.00    +0.021 C 
ATOM     23  C   UNL     1      35.303 -16.422 -23.586  0.00  0.00    +0.002 C 
ATOM     24  C   UNL     1      34.057 -17.279 -25.469  0.00  0.00    +0.002 C 
ATOM     25  C   UNL     1      35.644 -17.723 -23.218  0.00  0.00    +0.029 C 
ATOM     26  C   UNL     1      34.397 -18.581 -25.102  0.00  0.00    +0.029 C 
ATOM     27  C   UNL     1      35.191 -18.804 -23.976  0.00  0.00    +0.140 C 
ENDBRANCH  20  22
ENDBRANCH  19  20
ENDBRANCH  11  19
TORSDOF 4
ENDMDL
