MODEL 1
REMARK VINA RESULT:     -11.8      0.000      0.000
REMARK  Name = 24832041
REMARK  6 active torsions:
REMARK  status: ('A' for Active; 'I' for Inactive)
REMARK    1  A    between atoms: C_1  and  C_18
REMARK    2  A    between atoms: C_4  and  C_7
REMARK    3  A    between atoms: C_10  and  C_15
REMARK    4  A    between atoms: C_18  and  N_19
REMARK    5  A    between atoms: C_18  and  C_23
REMARK    6  A    between atoms: C_23  and  C_26
REMARK                            x       y       z     vdW  Elec       q    Type
REMARK                         _______ _______ _______ _____ _____    ______ ____
ROOT
ATOM      1  C   UNL     1      35.512 -16.998 -22.373  0.00  0.00    -0.042 C 
ATOM      2  C   UNL     1      35.398 -16.520 -23.679  0.00  0.00    -0.006 C 
ATOM      3  C   UNL     1      35.116 -16.197 -21.301  0.00  0.00    -0.006 C 
ATOM      4  C   UNL     1      34.494 -14.442 -22.841  0.00  0.00    -0.000 C 
ATOM      5  C   UNL     1      34.890 -15.243 -23.913  0.00  0.00    -0.000 C 
ATOM      6  C   UNL     1      34.608 -14.920 -21.535  0.00  0.00    -0.000 C 
ENDROOT
BRANCH   4   7
ATOM      7  C   UNL     1      33.966 -13.118 -23.084  0.00  0.00    +0.000 C 
ATOM      8  C   UNL     1      33.023 -12.573 -22.212  0.00  0.00    +0.005 C 
ATOM      9  C   UNL     1      34.399 -12.386 -24.189  0.00  0.00    +0.000 C 
ATOM     10  C   UNL     1      32.513 -11.295 -22.447  0.00  0.00    +0.053 C 
ATOM     11  C   UNL     1      33.889 -11.109 -24.423  0.00  0.00    +0.000 C 
ATOM     12  C   UNL     1      32.946 -10.563 -23.553  0.00  0.00    +0.005 C 
BRANCH  10  15
ATOM     13  O   UNL     1      31.614  -9.546 -21.150  0.00  0.00    -0.270 OA
ATOM     14  N   UNL     1      30.480 -11.539 -21.127  0.00  0.00    -0.325 N 
ATOM     15  C   UNL     1      31.531 -10.725 -21.538  0.00  0.00    +0.243 C 
ATOM     16  H   UNL     1      29.796 -11.188 -20.511  0.00  0.00    +0.145 HD
ATOM     17  H   UNL     1      30.418 -12.466 -21.452  0.00  0.00    +0.145 HD
ENDBRANCH  10  15
ENDBRANCH   4   7
BRANCH   1  18
ATOM     18  C   UNL     1      36.055 -18.363 -22.122  0.00  0.00    -0.038 C 
BRANCH  18  19
ATOM     19  N   UNL     1      37.217 -18.665 -22.985  0.00  0.00    +0.384 N 
ATOM     20  H   UNL     1      36.955 -19.369 -23.676  0.00  0.00    -0.089 HD
ATOM     21  H   UNL     1      37.983 -19.021 -22.412  0.00  0.00    -0.089 HD
ATOM     22  H   UNL     1      37.516 -17.816 -23.463  0.00  0.00    -0.089 HD
ENDBRANCH  18  19
BRANCH  18  23
ATOM     23  C   UNL     1      35.015 -19.507 -22.300  0.00  0.00    +0.011 C 
BRANCH  23  26
ATOM     24  F   UNL     1      32.575 -20.504 -21.253  0.00  0.00    -0.205 F 
ATOM     25  F   UNL     1      37.178 -22.041 -18.729  0.00  0.00    -0.204 F 
ATOM     26  C   UNL     1      34.943 -20.424 -21.101  0.00  0.00    +0.006 C 
ATOM     27  C   UNL     1      33.707 -20.877 -20.639  0.00  0.00    +0.136 C 
ATOM     28  C   UNL     1      36.115 -20.818 -20.456  0.00  0.00    +0.028 C 
ATOM     29  C   UNL     1      36.052 -21.664 -19.349  0.00  0.00    +0.140 C 
ATOM     30  C   UNL     1      33.644 -21.723 -19.532  0.00  0.00    +0.032 C 
ATOM     31  C   UNL     1      34.816 -22.117 -18.887  0.00  0.00    +0.032 C 
ENDBRANCH  23  26
ENDBRANCH  18  23
ENDBRANCH   1  18
TORSDOF 6
ENDMDL
MODEL 2
REMARK VINA RESULT:     -11.6      4.645      9.582
REMARK  Name = 24832041
REMARK  6 active torsions:
REMARK  status: ('A' for Active; 'I' for Inactive)
REMARK    1  A    between atoms: C_1  and  C_18
REMARK    2  A    between atoms: C_4  and  C_7
REMARK    3  A    between atoms: C_10  and  C_15
REMARK    4  A    between atoms: C_18  and  N_19
REMARK    5  A    between atoms: C_18  and  C_23
REMARK    6  A    between atoms: C_23  and  C_26
REMARK                            x       y       z     vdW  Elec       q    Type
REMARK                         _______ _______ _______ _____ _____    ______ ____
ROOT
ATOM      1  C   UNL     1      34.931 -19.875 -21.800  0.00  0.00    -0.042 C 
ATOM      2  C   UNL     1      36.124 -20.270 -21.195  0.00  0.00    -0.006 C 
ATOM      3  C   UNL     1      33.709 -20.279 -21.261  0.00  0.00    -0.006 C 
ATOM      4  C   UNL     1      34.873 -21.473 -19.513  0.00  0.00    -0.000 C 
ATOM      5  C   UNL     1      36.095 -21.069 -20.052  0.00  0.00    -0.000 C 
ATOM      6  C   UNL     1      33.680 -21.077 -20.119  0.00  0.00    -0.000 C 
ENDROOT
BRANCH   4   7
ATOM      7  C   UNL     1      34.844 -22.300 -18.327  0.00  0.00    +0.000 C 
ATOM      8  C   UNL     1      35.970 -22.384 -17.507  0.00  0.00    +0.005 C 
ATOM      9  C   UNL     1      33.691 -23.014 -18.004  0.00  0.00    +0.000 C 
ATOM     10  C   UNL     1      35.942 -23.182 -16.364  0.00  0.00    +0.053 C 
ATOM     11  C   UNL     1      33.663 -23.812 -16.860  0.00  0.00    +0.000 C 
ATOM     12  C   UNL     1      34.788 -23.897 -16.040  0.00  0.00    +0.005 C 
BRANCH  10  15
ATOM     13  O   UNL     1      37.018 -23.211 -14.268  0.00  0.00    -0.270 OA
ATOM     14  N   UNL     1      38.352 -23.435 -16.119  0.00  0.00    -0.325 N 
ATOM     15  C   UNL     1      37.114 -23.268 -15.507  0.00  0.00    +0.243 C 
ATOM     16  H   UNL     1      39.169 -23.497 -15.571  0.00  0.00    +0.145 HD
ATOM     17  H   UNL     1      38.414 -23.492 -17.100  0.00  0.00    +0.145 HD
ENDBRANCH  10  15
ENDBRANCH   4   7
BRANCH   1  18
ATOM     18  C   UNL     1      34.961 -19.021 -23.021  0.00  0.00    -0.038 C 
BRANCH  18  19
ATOM     19  N   UNL     1      35.192 -19.815 -24.248  0.00  0.00    +0.384 N 
ATOM     20  H   UNL     1      34.321 -20.264 -24.531  0.00  0.00    -0.089 HD
ATOM     21  H   UNL     1      35.898 -20.528 -24.063  0.00  0.00    -0.089 HD
ATOM     22  H   UNL     1      35.515 -19.201 -24.995  0.00  0.00    -0.089 HD
ENDBRANCH  18  19
BRANCH  18  23
ATOM     23  C   UNL     1      36.021 -17.882 -22.980  0.00  0.00    +0.011 C 
BRANCH  23  26
ATOM     24  F   UNL     1      35.478 -16.493 -25.392  0.00  0.00    -0.205 F 
ATOM     25  F   UNL     1      34.178 -13.965 -20.719  0.00  0.00    -0.204 F 
ATOM     26  C   UNL     1      35.401 -16.504 -23.019  0.00  0.00    +0.006 C 
ATOM     27  C   UNL     1      35.162 -15.879 -24.243  0.00  0.00    +0.136 C 
ATOM     28  C   UNL     1      35.069 -15.858 -21.829  0.00  0.00    +0.028 C 
ATOM     29  C   UNL     1      34.497 -14.586 -21.862  0.00  0.00    +0.140 C 
ATOM     30  C   UNL     1      34.590 -14.607 -24.276  0.00  0.00    +0.032 C 
ATOM     31  C   UNL     1      34.257 -13.961 -23.086  0.00  0.00    +0.032 C 
ENDBRANCH  23  26
ENDBRANCH  18  23
ENDBRANCH   1  18
TORSDOF 6
ENDMDL
MODEL 3
REMARK VINA RESULT:     -11.5      4.574      9.715
REMARK  Name = 24832041
REMARK  6 active torsions:
REMARK  status: ('A' for Active; 'I' for Inactive)
REMARK    1  A    between atoms: C_1  and  C_18
REMARK    2  A    between atoms: C_4  and  C_7
REMARK    3  A    between atoms: C_10  and  C_15
REMARK    4  A    between atoms: C_18  and  N_19
REMARK    5  A    between atoms: C_18  and  C_23
REMARK    6  A    between atoms: C_23  and  C_26
REMARK                            x       y       z     vdW  Elec       q    Type
REMARK                         _______ _______ _______ _____ _____    ______ ____
ROOT
ATOM      1  C   UNL     1      34.953 -19.937 -21.846  0.00  0.00    -0.042 C 
ATOM      2  C   UNL     1      33.770 -20.384 -21.258  0.00  0.00    -0.006 C 
ATOM      3  C   UNL     1      36.182 -20.247 -21.262  0.00  0.00    -0.006 C 
ATOM      4  C   UNL     1      35.042 -21.450 -19.502  0.00  0.00    -0.000 C 
ATOM      5  C   UNL     1      33.814 -21.140 -20.087  0.00  0.00    -0.000 C 
ATOM      6  C   UNL     1      36.226 -21.003 -20.090  0.00  0.00    -0.000 C 
ENDROOT
BRANCH   4   7
ATOM      7  C   UNL     1      35.088 -22.234 -18.288  0.00  0.00    +0.000 C 
ATOM      8  C   UNL     1      36.271 -22.314 -17.554  0.00  0.00    +0.005 C 
ATOM      9  C   UNL     1      33.949 -22.910 -17.852  0.00  0.00    +0.000 C 
ATOM     10  C   UNL     1      36.315 -23.071 -16.382  0.00  0.00    +0.053 C 
ATOM     11  C   UNL     1      33.993 -23.667 -16.681  0.00  0.00    +0.000 C 
ATOM     12  C   UNL     1      35.176 -23.748 -15.946  0.00  0.00    +0.005 C 
BRANCH  10  15
ATOM     13  O   UNL     1      37.555 -22.996 -14.381  0.00  0.00    -0.270 OA
ATOM     14  N   UNL     1      38.723 -23.432 -16.305  0.00  0.00    -0.325 N 
ATOM     15  C   UNL     1      37.548 -23.153 -15.615  0.00  0.00    +0.243 C 
ATOM     16  H   UNL     1      39.577 -23.495 -15.818  0.00  0.00    +0.145 HD
ATOM     17  H   UNL     1      38.702 -23.567 -17.280  0.00  0.00    +0.145 HD
ENDBRANCH  10  15
ENDBRANCH   4   7
BRANCH   1  18
ATOM     18  C   UNL     1      34.907 -19.130 -23.098  0.00  0.00    -0.038 C 
BRANCH  18  19
ATOM     19  N   UNL     1      35.203 -19.947 -24.295  0.00  0.00    +0.384 N 
ATOM     20  H   UNL     1      35.894 -20.659 -24.059  0.00  0.00    -0.089 HD
ATOM     21  H   UNL     1      35.572 -19.347 -25.033  0.00  0.00    -0.089 HD
ATOM     22  H   UNL     1      34.348 -20.398 -24.620  0.00  0.00    -0.089 HD
ENDBRANCH  18  19
BRANCH  18  23
ATOM     23  C   UNL     1      35.866 -17.904 -23.105  0.00  0.00    +0.011 C 
BRANCH  23  26
ATOM     24  F   UNL     1      35.307 -15.675 -21.444  0.00  0.00    -0.205 F 
ATOM     25  F   UNL     1      33.865 -15.280 -26.705  0.00  0.00    -0.204 F 
ATOM     26  C   UNL     1      35.201 -16.644 -23.608  0.00  0.00    +0.006 C 
ATOM     27  C   UNL     1      34.956 -15.585 -22.734  0.00  0.00    +0.136 C 
ATOM     28  C   UNL     1      34.833 -16.541 -24.950  0.00  0.00    +0.028 C 
ATOM     29  C   UNL     1      34.219 -15.379 -25.417  0.00  0.00    +0.140 C 
ATOM     30  C   UNL     1      34.342 -14.423 -23.202  0.00  0.00    +0.032 C 
ATOM     31  C   UNL     1      33.974 -14.319 -24.543  0.00  0.00    +0.032 C 
ENDBRANCH  23  26
ENDBRANCH  18  23
ENDBRANCH   1  18
TORSDOF 6
ENDMDL
MODEL 4
REMARK VINA RESULT:     -11.4      4.628      9.284
REMARK  Name = 24832041
REMARK  6 active torsions:
REMARK  status: ('A' for Active; 'I' for Inactive)
REMARK    1  A    between atoms: C_1  and  C_18
REMARK    2  A    between atoms: C_4  and  C_7
REMARK    3  A    between atoms: C_10  and  C_15
REMARK    4  A    between atoms: C_18  and  N_19
REMARK    5  A    between atoms: C_18  and  C_23
REMARK    6  A    between atoms: C_23  and  C_26
REMARK                            x       y       z     vdW  Elec       q    Type
REMARK                         _______ _______ _______ _____ _____    ______ ____
ROOT
ATOM      1  C   UNL     1      34.731 -19.947 -21.773  0.00  0.00    -0.042 C 
ATOM      2  C   UNL     1      35.811 -20.478 -21.069  0.00  0.00    -0.006 C 
ATOM      3  C   UNL     1      33.427 -20.193 -21.340  0.00  0.00    -0.006 C 
ATOM      4  C   UNL     1      34.285 -21.502 -19.499  0.00  0.00    -0.000 C 
ATOM      5  C   UNL     1      35.589 -21.255 -19.932  0.00  0.00    -0.000 C 
ATOM      6  C   UNL     1      33.205 -20.971 -20.204  0.00  0.00    -0.000 C 
ENDROOT
BRANCH   4   7
ATOM      7  C   UNL     1      34.055 -22.308 -18.321  0.00  0.00    +0.000 C 
ATOM      8  C   UNL     1      32.751 -22.616 -17.930  0.00  0.00    +0.005 C 
ATOM      9  C   UNL     1      35.136 -22.776 -17.574  0.00  0.00    +0.000 C 
ATOM     10  C   UNL     1      32.529 -23.393 -16.793  0.00  0.00    +0.053 C 
ATOM     11  C   UNL     1      34.913 -23.553 -16.437  0.00  0.00    +0.000 C 
ATOM     12  C   UNL     1      33.610 -23.861 -16.046  0.00  0.00    +0.005 C 
BRANCH  10  15
ATOM     13  O   UNL     1      30.934 -24.654 -15.604  0.00  0.00    -0.270 OA
ATOM     14  N   UNL     1      30.140 -22.929 -16.888  0.00  0.00    -0.325 N 
ATOM     15  C   UNL     1      31.171 -23.716 -16.386  0.00  0.00    +0.243 C 
ATOM     16  H   UNL     1      29.207 -23.118 -16.636  0.00  0.00    +0.145 HD
ATOM     17  H   UNL     1      30.342 -22.181 -17.496  0.00  0.00    +0.145 HD
ENDBRANCH  10  15
ENDBRANCH   4   7
BRANCH   1  18
ATOM     18  C   UNL     1      34.967 -19.115 -22.987  0.00  0.00    -0.038 C 
BRANCH  18  19
ATOM     19  N   UNL     1      35.379 -19.933 -24.148  0.00  0.00    +0.384 N 
ATOM     20  H   UNL     1      34.606 -19.998 -24.810  0.00  0.00    -0.089 HD
ATOM     21  H   UNL     1      35.634 -20.869 -23.831  0.00  0.00    -0.089 HD
ATOM     22  H   UNL     1      36.181 -19.498 -24.604  0.00  0.00    -0.089 HD
ENDBRANCH  18  19
BRANCH  18  23
ATOM     23  C   UNL     1      36.024 -17.988 -22.794  0.00  0.00    +0.011 C 
BRANCH  23  26
ATOM     24  F   UNL     1      35.533 -16.645 -25.243  0.00  0.00    -0.205 F 
ATOM     25  F   UNL     1      34.205 -13.998 -20.645  0.00  0.00    -0.204 F 
ATOM     26  C   UNL     1      35.424 -16.603 -22.872  0.00  0.00    +0.006 C 
ATOM     27  C   UNL     1      35.210 -16.002 -24.112  0.00  0.00    +0.136 C 
ATOM     28  C   UNL     1      35.084 -15.927 -21.700  0.00  0.00    +0.028 C 
ATOM     29  C   UNL     1      34.531 -14.648 -21.769  0.00  0.00    +0.140 C 
ATOM     30  C   UNL     1      34.656 -14.724 -24.181  0.00  0.00    +0.032 C 
ATOM     31  C   UNL     1      34.316 -14.047 -23.010  0.00  0.00    +0.032 C 
ENDBRANCH  23  26
ENDBRANCH  18  23
ENDBRANCH   1  18
TORSDOF 6
ENDMDL
MODEL 5
REMARK VINA RESULT:     -11.2      1.913      2.261
REMARK  Name = 24832041
REMARK  6 active torsions:
REMARK  status: ('A' for Active; 'I' for Inactive)
REMARK    1  A    between atoms: C_1  and  C_18
REMARK    2  A    between atoms: C_4  and  C_7
REMARK    3  A    between atoms: C_10  and  C_15
REMARK    4  A    between atoms: C_18  and  N_19
REMARK    5  A    between atoms: C_18  and  C_23
REMARK    6  A    between atoms: C_23  and  C_26
REMARK                            x       y       z     vdW  Elec       q    Type
REMARK                         _______ _______ _______ _____ _____    ______ ____
ROOT
ATOM      1  C   UNL     1      35.677 -17.680 -22.152  0.00  0.00    -0.042 C 
ATOM      2  C   UNL     1      35.659 -17.812 -23.540  0.00  0.00    -0.006 C 
ATOM      3  C   UNL     1      35.286 -16.478 -21.561  0.00  0.00    -0.006 C 
ATOM      4  C   UNL     1      34.861 -15.541 -23.747  0.00  0.00    -0.000 C 
ATOM      5  C   UNL     1      35.252 -16.743 -24.338  0.00  0.00    -0.000 C 
ATOM      6  C   UNL     1      34.879 -15.409 -22.358  0.00  0.00    -0.000 C 
ENDROOT
BRANCH   4   7
ATOM      7  C   UNL     1      34.438 -14.433 -24.574  0.00  0.00    +0.000 C 
ATOM      8  C   UNL     1      34.527 -13.128 -24.090  0.00  0.00    +0.005 C 
ATOM      9  C   UNL     1      33.940 -14.670 -25.855  0.00  0.00    +0.000 C 
ATOM     10  C   UNL     1      34.118 -12.059 -24.888  0.00  0.00    +0.053 C 
ATOM     11  C   UNL     1      33.531 -13.600 -26.653  0.00  0.00    +0.000 C 
ATOM     12  C   UNL     1      33.620 -12.295 -26.169  0.00  0.00    +0.005 C 
BRANCH  10  15
ATOM     13  O   UNL     1      33.247 -10.142 -23.832  0.00  0.00    -0.270 OA
ATOM     14  N   UNL     1      35.429 -10.037 -24.527  0.00  0.00    -0.325 N 
ATOM     15  C   UNL     1      34.212 -10.697 -24.385  0.00  0.00    +0.243 C 
ATOM     16  H   UNL     1      35.530  -9.114 -24.200  0.00  0.00    +0.145 HD
ATOM     17  H   UNL     1      36.190 -10.493 -24.955  0.00  0.00    +0.145 HD
ENDBRANCH  10  15
ENDBRANCH   4   7
BRANCH   1  18
ATOM     18  C   UNL     1      36.112 -18.823 -21.298  0.00  0.00    -0.038 C 
BRANCH  18  19
ATOM     19  N   UNL     1      37.576 -19.027 -21.349  0.00  0.00    +0.384 N 
ATOM     20  H   UNL     1      38.038 -18.326 -20.771  0.00  0.00    -0.089 HD
ATOM     21  H   UNL     1      37.898 -18.938 -22.314  0.00  0.00    -0.089 HD
ATOM     22  H   UNL     1      37.802 -19.958 -21.000  0.00  0.00    -0.089 HD
ENDBRANCH  18  19
BRANCH  18  23
ATOM     23  C   UNL     1      35.426 -20.176 -21.644  0.00  0.00    +0.011 C 
BRANCH  23  26
ATOM     24  F   UNL     1      32.813 -21.047 -20.966  0.00  0.00    -0.205 F 
ATOM     25  F   UNL     1      36.872 -22.508 -17.603  0.00  0.00    -0.204 F 
ATOM     26  C   UNL     1      35.122 -21.008 -20.418  0.00  0.00    +0.006 C 
ATOM     27  C   UNL     1      33.813 -21.402 -20.147  0.00  0.00    +0.136 C 
ATOM     28  C   UNL     1      36.156 -21.382 -19.560  0.00  0.00    +0.028 C 
ATOM     29  C   UNL     1      35.880 -22.149 -18.428  0.00  0.00    +0.140 C 
ATOM     30  C   UNL     1      33.536 -22.169 -19.015  0.00  0.00    +0.032 C 
ATOM     31  C   UNL     1      34.569 -22.544 -18.156  0.00  0.00    +0.032 C 
ENDBRANCH  23  26
ENDBRANCH  18  23
ENDBRANCH   1  18
TORSDOF 6
ENDMDL
MODEL 6
REMARK VINA RESULT:     -11.1      4.490      9.369
REMARK  Name = 24832041
REMARK  6 active torsions:
REMARK  status: ('A' for Active; 'I' for Inactive)
REMARK    1  A    between atoms: C_1  and  C_18
REMARK    2  A    between atoms: C_4  and  C_7
REMARK    3  A    between atoms: C_10  and  C_15
REMARK    4  A    between atoms: C_18  and  N_19
REMARK    5  A    between atoms: C_18  and  C_23
REMARK    6  A    between atoms: C_23  and  C_26
REMARK                            x       y       z     vdW  Elec       q    Type
REMARK                         _______ _______ _______ _____ _____    ______ ____
ROOT
ATOM      1  C   UNL     1      34.720 -19.917 -21.799  0.00  0.00    -0.042 C 
ATOM      2  C   UNL     1      33.427 -20.195 -21.360  0.00  0.00    -0.006 C 
ATOM      3  C   UNL     1      35.818 -20.417 -21.098  0.00  0.00    -0.006 C 
ATOM      4  C   UNL     1      34.326 -21.474 -19.517  0.00  0.00    -0.000 C 
ATOM      5  C   UNL     1      33.229 -20.974 -20.219  0.00  0.00    -0.000 C 
ATOM      6  C   UNL     1      35.621 -21.195 -19.957  0.00  0.00    -0.000 C 
ENDROOT
BRANCH   4   7
ATOM      7  C   UNL     1      34.121 -22.281 -18.335  0.00  0.00    +0.000 C 
ATOM      8  C   UNL     1      32.827 -22.611 -17.932  0.00  0.00    +0.005 C 
ATOM      9  C   UNL     1      35.217 -22.730 -17.599  0.00  0.00    +0.000 C 
ATOM     10  C   UNL     1      32.629 -23.389 -16.791  0.00  0.00    +0.053 C 
ATOM     11  C   UNL     1      35.019 -23.509 -16.458  0.00  0.00    +0.000 C 
ATOM     12  C   UNL     1      33.726 -23.839 -16.054  0.00  0.00    +0.005 C 
BRANCH  10  15
ATOM     13  O   UNL     1      31.070 -24.662 -15.569  0.00  0.00    -0.270 OA
ATOM     14  N   UNL     1      30.229 -22.982 -16.883  0.00  0.00    -0.325 N 
ATOM     15  C   UNL     1      31.281 -23.736 -16.371  0.00  0.00    +0.243 C 
ATOM     16  H   UNL     1      29.303 -23.187 -16.621  0.00  0.00    +0.145 HD
ATOM     17  H   UNL     1      30.411 -22.242 -17.507  0.00  0.00    +0.145 HD
ENDBRANCH  10  15
ENDBRANCH   4   7
BRANCH   1  18
ATOM     18  C   UNL     1      34.932 -19.086 -23.019  0.00  0.00    -0.038 C 
BRANCH  18  19
ATOM     19  N   UNL     1      35.398 -19.894 -24.166  0.00  0.00    +0.384 N 
ATOM     20  H   UNL     1      35.393 -19.321 -25.011  0.00  0.00    -0.089 HD
ATOM     21  H   UNL     1      34.776 -20.693 -24.294  0.00  0.00    -0.089 HD
ATOM     22  H   UNL     1      36.345 -20.226 -23.987  0.00  0.00    -0.089 HD
ENDBRANCH  18  19
BRANCH  18  23
ATOM     23  C   UNL     1      35.930 -17.908 -22.825  0.00  0.00    +0.011 C 
BRANCH  23  26
ATOM     24  F   UNL     1      35.248 -16.095 -20.753  0.00  0.00    -0.205 F 
ATOM     25  F   UNL     1      34.185 -14.524 -25.884  0.00  0.00    -0.204 F 
ATOM     26  C   UNL     1      35.300 -16.558 -23.081  0.00  0.00    +0.006 C 
ATOM     27  C   UNL     1      34.990 -15.716 -22.013  0.00  0.00    +0.136 C 
ATOM     28  C   UNL     1      35.028 -16.156 -24.389  0.00  0.00    +0.028 C 
ATOM     29  C   UNL     1      34.446 -14.911 -24.629  0.00  0.00    +0.140 C 
ATOM     30  C   UNL     1      34.408 -14.471 -22.253  0.00  0.00    +0.032 C 
ATOM     31  C   UNL     1      34.136 -14.068 -23.560  0.00  0.00    +0.032 C 
ENDBRANCH  23  26
ENDBRANCH  18  23
ENDBRANCH   1  18
TORSDOF 6
ENDMDL
MODEL 7
REMARK VINA RESULT:     -11.1      5.219      7.487
REMARK  Name = 24832041
REMARK  6 active torsions:
REMARK  status: ('A' for Active; 'I' for Inactive)
REMARK    1  A    between atoms: C_1  and  C_18
REMARK    2  A    between atoms: C_4  and  C_7
REMARK    3  A    between atoms: C_10  and  C_15
REMARK    4  A    between atoms: C_18  and  N_19
REMARK    5  A    between atoms: C_18  and  C_23
REMARK    6  A    between atoms: C_23  and  C_26
REMARK                            x       y       z     vdW  Elec       q    Type
REMARK                         _______ _______ _______ _____ _____    ______ ____
ROOT
ATOM      1  C   UNL     1      34.318 -22.518 -18.396  0.00  0.00    -0.042 C 
ATOM      2  C   UNL     1      33.391 -21.879 -19.219  0.00  0.00    -0.006 C 
ATOM      3  C   UNL     1      35.683 -22.298 -18.582  0.00  0.00    -0.006 C 
ATOM      4  C   UNL     1      35.193 -20.802 -20.415  0.00  0.00    -0.000 C 
ATOM      5  C   UNL     1      33.828 -21.022 -20.229  0.00  0.00    -0.000 C 
ATOM      6  C   UNL     1      36.120 -21.441 -19.591  0.00  0.00    -0.000 C 
ENDROOT
BRANCH   4   7
ATOM      7  C   UNL     1      35.646 -19.913 -21.461  0.00  0.00    +0.000 C 
ATOM      8  C   UNL     1      34.827 -19.657 -22.562  0.00  0.00    +0.005 C 
ATOM      9  C   UNL     1      36.901 -19.312 -21.371  0.00  0.00    +0.000 C 
ATOM     10  C   UNL     1      35.264 -18.799 -23.572  0.00  0.00    +0.053 C 
ATOM     11  C   UNL     1      37.337 -18.454 -22.381  0.00  0.00    +0.000 C 
ATOM     12  C   UNL     1      36.519 -18.197 -23.481  0.00  0.00    +0.005 C 
BRANCH  10  15
ATOM     13  O   UNL     1      33.476 -19.290 -25.024  0.00  0.00    -0.270 OA
ATOM     14  N   UNL     1      34.662 -17.376 -25.455  0.00  0.00    -0.325 N 
ATOM     15  C   UNL     1      34.410 -18.529 -24.718  0.00  0.00    +0.243 C 
ATOM     16  H   UNL     1      34.106 -17.161 -26.239  0.00  0.00    +0.145 HD
ATOM     17  H   UNL     1      35.397 -16.775 -25.195  0.00  0.00    +0.145 HD
ENDBRANCH  10  15
ENDBRANCH   4   7
BRANCH   1  18
ATOM     18  C   UNL     1      33.852 -23.433 -17.316  0.00  0.00    -0.038 C 
BRANCH  18  19
ATOM     19  N   UNL     1      32.377 -23.447 -17.198  0.00  0.00    +0.384 N 
ATOM     20  H   UNL     1      32.012 -22.514 -17.391  0.00  0.00    -0.089 HD
ATOM     21  H   UNL     1      32.114 -23.725 -16.252  0.00  0.00    -0.089 HD
ATOM     22  H   UNL     1      31.988 -24.109 -17.868  0.00  0.00    -0.089 HD
ENDBRANCH  18  19
BRANCH  18  23
ATOM     23  C   UNL     1      34.443 -23.119 -15.911  0.00  0.00    +0.011 C 
BRANCH  23  26
ATOM     24  F   UNL     1      37.028 -21.975 -15.691  0.00  0.00    -0.205 F 
ATOM     25  F   UNL     1      36.627 -27.378 -14.943  0.00  0.00    -0.204 F 
ATOM     26  C   UNL     1      35.681 -23.928 -15.602  0.00  0.00    +0.006 C 
ATOM     27  C   UNL     1      36.922 -23.299 -15.508  0.00  0.00    +0.136 C 
ATOM     28  C   UNL     1      35.580 -25.306 -15.411  0.00  0.00    +0.028 C 
ATOM     29  C   UNL     1      36.722 -26.055 -15.126  0.00  0.00    +0.140 C 
ATOM     30  C   UNL     1      38.064 -24.049 -15.224  0.00  0.00    +0.032 C 
ATOM     31  C   UNL     1      37.964 -25.426 -15.032  0.00  0.00    +0.032 C 
ENDBRANCH  23  26
ENDBRANCH  18  23
ENDBRANCH   1  18
TORSDOF 6
ENDMDL
MODEL 8
REMARK VINA RESULT:     -11.1      4.549      9.518
REMARK  Name = 24832041
REMARK  6 active torsions:
REMARK  status: ('A' for Active; 'I' for Inactive)
REMARK    1  A    between atoms: C_1  and  C_18
REMARK    2  A    between atoms: C_4  and  C_7
REMARK    3  A    between atoms: C_10  and  C_15
REMARK    4  A    between atoms: C_18  and  N_19
REMARK    5  A    between atoms: C_18  and  C_23
REMARK    6  A    between atoms: C_23  and  C_26
REMARK                            x       y       z     vdW  Elec       q    Type
REMARK                         _______ _______ _______ _____ _____    ______ ____
ROOT
ATOM      1  C   UNL     1      35.381 -19.871 -21.676  0.00  0.00    -0.042 C 
ATOM      2  C   UNL     1      36.653 -19.902 -21.106  0.00  0.00    -0.006 C 
ATOM      3  C   UNL     1      34.326 -20.550 -21.066  0.00  0.00    -0.006 C 
ATOM      4  C   UNL     1      35.817 -21.292 -19.314  0.00  0.00    -0.000 C 
ATOM      5  C   UNL     1      36.872 -20.612 -19.925  0.00  0.00    -0.000 C 
ATOM      6  C   UNL     1      34.544 -21.260 -19.886  0.00  0.00    -0.000 C 
ENDROOT
BRANCH   4   7
ATOM      7  C   UNL     1      36.044 -22.027 -18.090  0.00  0.00    +0.000 C 
ATOM      8  C   UNL     1      34.986 -22.696 -17.473  0.00  0.00    +0.005 C 
ATOM      9  C   UNL     1      37.318 -22.066 -17.526  0.00  0.00    +0.000 C 
ATOM     10  C   UNL     1      35.204 -23.406 -16.292  0.00  0.00    +0.053 C 
ATOM     11  C   UNL     1      37.536 -22.776 -16.345  0.00  0.00    +0.000 C 
ATOM     12  C   UNL     1      36.480 -23.445 -15.727  0.00  0.00    +0.005 C 
BRANCH  10  15
ATOM     13  O   UNL     1      32.924 -23.915 -15.993  0.00  0.00    -0.270 OA
ATOM     14  N   UNL     1      34.415 -25.016 -14.643  0.00  0.00    -0.325 N 
ATOM     15  C   UNL     1      34.104 -24.106 -15.649  0.00  0.00    +0.243 C 
ATOM     16  H   UNL     1      33.696 -25.508 -14.184  0.00  0.00    +0.145 HD
ATOM     17  H   UNL     1      35.354 -25.168 -14.389  0.00  0.00    +0.145 HD
ENDBRANCH  10  15
ENDBRANCH   4   7
BRANCH   1  18
ATOM     18  C   UNL     1      35.147 -19.111 -22.937  0.00  0.00    -0.038 C 
BRANCH  18  19
ATOM     19  N   UNL     1      35.214 -19.983 -24.130  0.00  0.00    +0.384 N 
ATOM     20  H   UNL     1      35.372 -19.412 -24.961  0.00  0.00    -0.089 HD
ATOM     21  H   UNL     1      34.334 -20.491 -24.230  0.00  0.00    -0.089 HD
ATOM     22  H   UNL     1      35.980 -20.647 -24.024  0.00  0.00    -0.089 HD
ENDBRANCH  18  19
BRANCH  18  23
ATOM     23  C   UNL     1      36.124 -17.920 -23.158  0.00  0.00    +0.011 C 
BRANCH  23  26
ATOM     24  F   UNL     1      35.311 -16.607 -25.536  0.00  0.00    -0.205 F 
ATOM     25  F   UNL     1      34.236 -14.077 -20.807  0.00  0.00    -0.204 F 
ATOM     26  C   UNL     1      35.422 -16.581 -23.165  0.00  0.00    +0.006 C 
ATOM     27  C   UNL     1      35.050 -15.993 -24.374  0.00  0.00    +0.136 C 
ATOM     28  C   UNL     1      35.147 -15.935 -21.960  0.00  0.00    +0.028 C 
ATOM     29  C   UNL     1      34.500 -14.699 -21.964  0.00  0.00    +0.140 C 
ATOM     30  C   UNL     1      34.403 -14.757 -24.377  0.00  0.00    +0.032 C 
ATOM     31  C   UNL     1      34.128 -14.110 -23.173  0.00  0.00    +0.032 C 
ENDBRANCH  23  26
ENDBRANCH  18  23
ENDBRANCH   1  18
TORSDOF 6
ENDMDL
MODEL 9
REMARK VINA RESULT:     -11.0      3.653      6.619
REMARK  Name = 24832041
REMARK  6 active torsions:
REMARK  status: ('A' for Active; 'I' for Inactive)
REMARK    1  A    between atoms: C_1  and  C_18
REMARK    2  A    between atoms: C_4  and  C_7
REMARK    3  A    between atoms: C_10  and  C_15
REMARK    4  A    between atoms: C_18  and  N_19
REMARK    5  A    between atoms: C_18  and  C_23
REMARK    6  A    between atoms: C_23  and  C_26
REMARK                            x       y       z     vdW  Elec       q    Type
REMARK                         _______ _______ _______ _____ _____    ______ ____
ROOT
ATOM      1  C   UNL     1      34.683 -22.179 -18.883  0.00  0.00    -0.042 C 
ATOM      2  C   UNL     1      35.952 -21.774 -19.298  0.00  0.00    -0.006 C 
ATOM      3  C   UNL     1      33.548 -21.655 -19.502  0.00  0.00    -0.006 C 
ATOM      4  C   UNL     1      34.950 -20.321 -20.949  0.00  0.00    -0.000 C 
ATOM      5  C   UNL     1      36.086 -20.846 -20.330  0.00  0.00    -0.000 C 
ATOM      6  C   UNL     1      33.681 -20.727 -20.534  0.00  0.00    -0.000 C 
ENDROOT
BRANCH   4   7
ATOM      7  C   UNL     1      35.090 -19.360 -22.019  0.00  0.00    +0.000 C 
ATOM      8  C   UNL     1      35.050 -17.993 -21.739  0.00  0.00    +0.005 C 
ATOM      9  C   UNL     1      35.263 -19.797 -23.331  0.00  0.00    +0.000 C 
ATOM     10  C   UNL     1      35.184 -17.065 -22.771  0.00  0.00    +0.053 C 
ATOM     11  C   UNL     1      35.397 -18.869 -24.364  0.00  0.00    +0.000 C 
ATOM     12  C   UNL     1      35.357 -17.503 -24.085  0.00  0.00    +0.005 C 
BRANCH  10  15
ATOM     13  O   UNL     1      35.334 -14.792 -23.369  0.00  0.00    -0.270 OA
ATOM     14  N   UNL     1      34.870 -15.255 -21.172  0.00  0.00    -0.325 N 
ATOM     15  C   UNL     1      35.145 -15.641 -22.480  0.00  0.00    +0.243 C 
ATOM     16  H   UNL     1      34.836 -14.299 -20.937  0.00  0.00    +0.145 HD
ATOM     17  H   UNL     1      34.709 -15.937 -20.480  0.00  0.00    +0.145 HD
ENDBRANCH  10  15
ENDBRANCH   4   7
BRANCH   1  18
ATOM     18  C   UNL     1      34.539 -23.172 -17.781  0.00  0.00    -0.038 C 
BRANCH  18  19
ATOM     19  N   UNL     1      33.131 -23.575 -17.578  0.00  0.00    +0.384 N 
ATOM     20  H   UNL     1      32.677 -22.920 -16.942  0.00  0.00    -0.089 HD
ATOM     21  H   UNL     1      33.101 -24.514 -17.178  0.00  0.00    -0.089 HD
ATOM     22  H   UNL     1      32.643 -23.572 -18.474  0.00  0.00    -0.089 HD
ENDBRANCH  18  19
BRANCH  18  23
ATOM     23  C   UNL     1      35.103 -22.693 -16.411  0.00  0.00    +0.011 C 
BRANCH  23  26
ATOM     24  F   UNL     1      37.807 -21.841 -16.487  0.00  0.00    -0.205 F 
ATOM     25  F   UNL     1      36.825 -26.822 -14.451  0.00  0.00    -0.204 F 
ATOM     26  C   UNL     1      36.253 -23.544 -15.922  0.00  0.00    +0.006 C 
ATOM     27  C   UNL     1      37.559 -23.060 -15.989  0.00  0.00    +0.136 C 
ATOM     28  C   UNL     1      36.004 -24.814 -15.402  0.00  0.00    +0.028 C 
ATOM     29  C   UNL     1      37.063 -25.602 -14.950  0.00  0.00    +0.140 C 
ATOM     30  C   UNL     1      38.618 -23.848 -15.537  0.00  0.00    +0.032 C 
ATOM     31  C   UNL     1      38.370 -25.118 -15.017  0.00  0.00    +0.032 C 
ENDBRANCH  23  26
ENDBRANCH  18  23
ENDBRANCH   1  18
TORSDOF 6
ENDMDL
