MODEL 1
REMARK VINA RESULT:     -12.3      0.000      0.000
REMARK  Name = 11740318
REMARK  5 active torsions:
REMARK  status: ('A' for Active; 'I' for Inactive)
REMARK    1  A    between atoms: N_1  and  C_20
REMARK    2  A    between atoms: C_2  and  O_8
REMARK    3  A    between atoms: O_8  and  C_9
REMARK    4  A    between atoms: C_14  and  N_15
REMARK    5  A    between atoms: C_20  and  C_23
REMARK                            x       y       z     vdW  Elec       q    Type
REMARK                         _______ _______ _______ _____ _____    ______ ____
ROOT
ATOM      1  N   UNL     1      34.200 -23.366 -14.686  0.00  0.00    +0.392 N 
ATOM      2  C   UNL     1      34.229 -22.874 -17.112  0.00  0.00    +0.145 C 
ATOM      3  C   UNL     1      34.932 -23.569 -15.942  0.00  0.00    -0.032 C 
ATOM      4  C   UNL     1      32.782 -23.340 -17.240  0.00  0.00    +0.039 C 
ATOM      5  C   UNL     1      32.055 -23.198 -15.910  0.00  0.00    -0.019 C 
ATOM      6  C   UNL     1      32.828 -23.883 -14.780  0.00  0.00    -0.077 C 
ATOM      7  H   UNL     1      34.146 -22.363 -14.513  0.00  0.00    -0.079 HD
ENDROOT
BRANCH   2   8
ATOM      8  O   UNL     1      34.909 -23.170 -18.327  0.00  0.00    -0.481 OA
BRANCH   8   9
ATOM      9  C   UNL     1      35.012 -22.154 -19.238  0.00  0.00    +0.138 C 
ATOM     10  C   UNL     1      36.265 -21.650 -19.570  0.00  0.00    +0.038 C 
ATOM     11  C   UNL     1      33.863 -21.634 -19.825  0.00  0.00    +0.038 C 
ATOM     12  C   UNL     1      36.370 -20.614 -20.500  0.00  0.00    +0.018 C 
ATOM     13  C   UNL     1      33.967 -20.599 -20.754  0.00  0.00    +0.018 C 
ATOM     14  C   UNL     1      35.221 -20.089 -21.091  0.00  0.00    +0.057 C 
BRANCH  14  15
ATOM     15  N   UNL     1      35.325 -19.063 -22.013  0.00  0.00    -0.246 N 
ATOM     16  N   UNL     1      35.283 -18.002 -23.973  0.00  0.00    -0.224 NA
ATOM     17  C   UNL     1      35.660 -17.760 -21.751  0.00  0.00    +0.092 C 
ATOM     18  C   UNL     1      35.108 -19.154 -23.365  0.00  0.00    +0.172 C 
ATOM     19  C   UNL     1      35.627 -17.128 -22.972  0.00  0.00    +0.117 C 
ENDBRANCH  14  15
ENDBRANCH   8   9
ENDBRANCH   2   8
BRANCH   1  20
ATOM     20  C   UNL     1      34.909 -23.996 -13.573  0.00  0.00    -0.050 C 
BRANCH  20  23
ATOM     21  O   UNL     1      39.774 -24.800 -13.838  0.00  0.00    -0.435 OA
ATOM     22  O   UNL     1      39.494 -26.740 -15.239  0.00  0.00    -0.435 OA
ATOM     23  C   UNL     1      36.121 -24.758 -14.039  0.00  0.00    -0.040 C 
ATOM     24  C   UNL     1      37.385 -24.329 -13.652  0.00  0.00    +0.034 C 
ATOM     25  C   UNL     1      35.947 -25.884 -14.853  0.00  0.00    -0.003 C 
ATOM     26  C   UNL     1      38.464 -25.060 -14.104  0.00  0.00    +0.176 C 
ATOM     27  C   UNL     1      37.057 -26.607 -15.297  0.00  0.00    +0.040 C 
ATOM     28  C   UNL     1      38.305 -26.168 -14.905  0.00  0.00    +0.176 C 
ATOM     29  C   UNL     1      40.420 -25.869 -14.558  0.00  0.00    +0.429 C 
ENDBRANCH  20  23
ENDBRANCH   1  20
TORSDOF 5
ENDMDL
MODEL 2
REMARK VINA RESULT:     -11.7      4.502      8.614
REMARK  Name = 11740318
REMARK  5 active torsions:
REMARK  status: ('A' for Active; 'I' for Inactive)
REMARK    1  A    between atoms: N_1  and  C_20
REMARK    2  A    between atoms: C_2  and  O_8
REMARK    3  A    between atoms: O_8  and  C_9
REMARK    4  A    between atoms: C_14  and  N_15
REMARK    5  A    between atoms: C_20  and  C_23
REMARK                            x       y       z     vdW  Elec       q    Type
REMARK                         _______ _______ _______ _____ _____    ______ ____
ROOT
ATOM      1  N   UNL     1      35.303 -18.967 -22.727  0.00  0.00    +0.392 N 
ATOM      2  C   UNL     1      34.884 -16.704 -23.642  0.00  0.00    +0.145 C 
ATOM      3  C   UNL     1      35.690 -17.552 -22.653  0.00  0.00    -0.032 C 
ATOM      4  C   UNL     1      35.024 -17.236 -25.065  0.00  0.00    +0.039 C 
ATOM      5  C   UNL     1      34.696 -18.722 -25.114  0.00  0.00    -0.019 C 
ATOM      6  C   UNL     1      35.508 -19.504 -24.080  0.00  0.00    -0.077 C 
ATOM      7  H   UNL     1      34.309 -19.032 -22.511  0.00  0.00    -0.079 HD
ENDROOT
BRANCH   2   8
ATOM      8  O   UNL     1      35.350 -15.360 -23.613  0.00  0.00    -0.481 OA
BRANCH   8   9
ATOM      9  C   UNL     1      34.596 -14.462 -22.906  0.00  0.00    +0.138 C 
ATOM     10  C   UNL     1      34.024 -13.376 -23.560  0.00  0.00    +0.038 C 
ATOM     11  C   UNL     1      34.408 -14.644 -21.540  0.00  0.00    +0.038 C 
ATOM     12  C   UNL     1      33.256 -12.460 -22.839  0.00  0.00    +0.018 C 
ATOM     13  C   UNL     1      33.640 -13.730 -20.819  0.00  0.00    +0.018 C 
ATOM     14  C   UNL     1      33.064 -12.638 -21.469  0.00  0.00    +0.057 C 
BRANCH  14  15
ATOM     15  N   UNL     1      32.301 -11.732 -20.754  0.00  0.00    -0.246 N 
ATOM     16  N   UNL     1      31.231  -9.844 -20.245  0.00  0.00    -0.224 NA
ATOM     17  C   UNL     1      31.728 -11.935 -19.525  0.00  0.00    +0.092 C 
ATOM     18  C   UNL     1      31.971 -10.457 -21.142  0.00  0.00    +0.172 C 
ATOM     19  C   UNL     1      31.076 -10.760 -19.235  0.00  0.00    +0.117 C 
ENDBRANCH  14  15
ENDBRANCH   8   9
ENDBRANCH   2   8
BRANCH   1  20
ATOM     20  C   UNL     1      36.048 -19.754 -21.745  0.00  0.00    -0.050 C 
BRANCH  20  23
ATOM     21  O   UNL     1      35.132 -23.059 -18.193  0.00  0.00    -0.435 OA
ATOM     22  O   UNL     1      32.752 -22.706 -18.318  0.00  0.00    -0.435 OA
ATOM     23  C   UNL     1      35.132 -20.531 -20.838  0.00  0.00    -0.040 C 
ATOM     24  C   UNL     1      35.676 -21.441 -19.939  0.00  0.00    +0.034 C 
ATOM     25  C   UNL     1      33.750 -20.319 -20.919  0.00  0.00    -0.003 C 
ATOM     26  C   UNL     1      34.796 -22.129 -19.129  0.00  0.00    +0.176 C 
ATOM     27  C   UNL     1      32.882 -21.028 -20.087  0.00  0.00    +0.040 C 
ATOM     28  C   UNL     1      33.437 -21.928 -19.201  0.00  0.00    +0.176 C 
ATOM     29  C   UNL     1      33.832 -23.418 -17.683  0.00  0.00    +0.429 C 
ENDBRANCH  20  23
ENDBRANCH   1  20
TORSDOF 5
ENDMDL
MODEL 3
REMARK VINA RESULT:     -11.3      4.664      8.976
REMARK  Name = 11740318
REMARK  5 active torsions:
REMARK  status: ('A' for Active; 'I' for Inactive)
REMARK    1  A    between atoms: N_1  and  C_20
REMARK    2  A    between atoms: C_2  and  O_8
REMARK    3  A    between atoms: O_8  and  C_9
REMARK    4  A    between atoms: C_14  and  N_15
REMARK    5  A    between atoms: C_20  and  C_23
REMARK                            x       y       z     vdW  Elec       q    Type
REMARK                         _______ _______ _______ _____ _____    ______ ____
ROOT
ATOM      1  N   UNL     1      35.504 -18.483 -22.842  0.00  0.00    +0.392 N 
ATOM      2  C   UNL     1      34.666 -16.665 -24.299  0.00  0.00    +0.145 C 
ATOM      3  C   UNL     1      35.771 -17.130 -23.346  0.00  0.00    -0.032 C 
ATOM      4  C   UNL     1      34.479 -17.652 -25.448  0.00  0.00    +0.039 C 
ATOM      5  C   UNL     1      34.281 -19.063 -24.913  0.00  0.00    -0.019 C 
ATOM      6  C   UNL     1      35.399 -19.450 -23.942  0.00  0.00    -0.077 C 
ATOM      7  H   UNL     1      34.609 -18.464 -22.353  0.00  0.00    -0.079 HD
ENDROOT
BRANCH   2   8
ATOM      8  O   UNL     1      35.003 -15.394 -24.844  0.00  0.00    -0.481 OA
BRANCH   8   9
ATOM      9  C   UNL     1      34.421 -14.301 -24.261  0.00  0.00    +0.138 C 
ATOM     10  C   UNL     1      34.417 -13.083 -24.932  0.00  0.00    +0.038 C 
ATOM     11  C   UNL     1      33.840 -14.417 -23.002  0.00  0.00    +0.038 C 
ATOM     12  C   UNL     1      33.824 -11.967 -24.337  0.00  0.00    +0.018 C 
ATOM     13  C   UNL     1      33.248 -13.303 -22.408  0.00  0.00    +0.018 C 
ATOM     14  C   UNL     1      33.239 -12.078 -23.076  0.00  0.00    +0.057 C 
BRANCH  14  15
ATOM     15  N   UNL     1      32.651 -10.974 -22.487  0.00  0.00    -0.246 N 
ATOM     16  N   UNL     1      31.532  -9.745 -21.002  0.00  0.00    -0.224 NA
ATOM     17  C   UNL     1      32.637  -9.694 -22.980  0.00  0.00    +0.092 C 
ATOM     18  C   UNL     1      31.972 -10.948 -21.294  0.00  0.00    +0.172 C 
ATOM     19  C   UNL     1      31.944  -8.958 -22.049  0.00  0.00    +0.117 C 
ENDBRANCH  14  15
ENDBRANCH   8   9
ENDBRANCH   2   8
BRANCH   1  20
ATOM     20  C   UNL     1      36.544 -18.892 -21.898  0.00  0.00    -0.050 C 
BRANCH  20  23
ATOM     21  O   UNL     1      33.013 -21.572 -19.725  0.00  0.00    -0.435 OA
ATOM     22  O   UNL     1      34.606 -22.838 -18.434  0.00  0.00    -0.435 OA
ATOM     23  C   UNL     1      36.058 -19.961 -20.956  0.00  0.00    -0.040 C 
ATOM     24  C   UNL     1      34.693 -20.202 -20.848  0.00  0.00    +0.034 C 
ATOM     25  C   UNL     1      36.992 -20.690 -20.211  0.00  0.00    -0.003 C 
ATOM     26  C   UNL     1      34.296 -21.192 -19.972  0.00  0.00    +0.176 C 
ATOM     27  C   UNL     1      36.563 -21.687 -19.332  0.00  0.00    +0.040 C 
ATOM     28  C   UNL     1      35.206 -21.914 -19.234  0.00  0.00    +0.176 C 
ATOM     29  C   UNL     1      33.217 -22.616 -18.751  0.00  0.00    +0.429 C 
ENDBRANCH  20  23
ENDBRANCH   1  20
TORSDOF 5
ENDMDL
MODEL 4
REMARK VINA RESULT:     -11.2      3.642     10.804
REMARK  Name = 11740318
REMARK  5 active torsions:
REMARK  status: ('A' for Active; 'I' for Inactive)
REMARK    1  A    between atoms: N_1  and  C_20
REMARK    2  A    between atoms: C_2  and  O_8
REMARK    3  A    between atoms: O_8  and  C_9
REMARK    4  A    between atoms: C_14  and  N_15
REMARK    5  A    between atoms: C_20  and  C_23
REMARK                            x       y       z     vdW  Elec       q    Type
REMARK                         _______ _______ _______ _____ _____    ______ ____
ROOT
ATOM      1  N   UNL     1      35.638 -19.129 -22.517  0.00  0.00    +0.392 N 
ATOM      2  C   UNL     1      35.739 -20.708 -20.612  0.00  0.00    +0.145 C 
ATOM      3  C   UNL     1      35.453 -20.527 -22.106  0.00  0.00    -0.032 C 
ATOM      4  C   UNL     1      37.137 -20.212 -20.255  0.00  0.00    +0.039 C 
ATOM      5  C   UNL     1      37.343 -18.789 -20.756  0.00  0.00    -0.019 C 
ATOM      6  C   UNL     1      37.006 -18.671 -22.244  0.00  0.00    -0.077 C 
ATOM      7  H   UNL     1      34.998 -18.554 -21.968  0.00  0.00    -0.079 HD
ENDROOT
BRANCH   2   8
ATOM      8  O   UNL     1      35.646 -22.086 -20.268  0.00  0.00    -0.481 OA
BRANCH   8   9
ATOM      9  C   UNL     1      35.034 -22.384 -19.080  0.00  0.00    +0.138 C 
ATOM     10  C   UNL     1      33.657 -22.576 -19.043  0.00  0.00    +0.038 C 
ATOM     11  C   UNL     1      35.795 -22.493 -17.920  0.00  0.00    +0.038 C 
ATOM     12  C   UNL     1      33.033 -22.880 -17.832  0.00  0.00    +0.018 C 
ATOM     13  C   UNL     1      35.171 -22.796 -16.711  0.00  0.00    +0.018 C 
ATOM     14  C   UNL     1      33.790 -22.990 -16.667  0.00  0.00    +0.057 C 
BRANCH  14  15
ATOM     15  N   UNL     1      33.172 -23.292 -15.467  0.00  0.00    -0.246 N 
ATOM     16  N   UNL     1      32.848 -24.182 -13.449  0.00  0.00    -0.224 NA
ATOM     17  C   UNL     1      31.945 -22.849 -15.044  0.00  0.00    +0.092 C 
ATOM     18  C   UNL     1      33.672 -24.091 -14.468  0.00  0.00    +0.172 C 
ATOM     19  C   UNL     1      31.769 -23.410 -13.802  0.00  0.00    +0.117 C 
ENDBRANCH  14  15
ENDBRANCH   8   9
ENDBRANCH   2   8
BRANCH   1  20
ATOM     20  C   UNL     1      35.315 -18.966 -23.934  0.00  0.00    -0.050 C 
BRANCH  20  23
ATOM     21  O   UNL     1      33.660 -15.434 -26.962  0.00  0.00    -0.435 OA
ATOM     22  O   UNL     1      33.938 -13.715 -25.296  0.00  0.00    -0.435 OA
ATOM     23  C   UNL     1      34.955 -17.542 -24.266  0.00  0.00    -0.040 C 
ATOM     24  C   UNL     1      34.464 -17.243 -25.532  0.00  0.00    +0.034 C 
ATOM     25  C   UNL     1      35.120 -16.551 -23.292  0.00  0.00    -0.003 C 
ATOM     26  C   UNL     1      34.148 -15.925 -25.789  0.00  0.00    +0.176 C 
ATOM     27  C   UNL     1      34.791 -15.225 -23.577  0.00  0.00    +0.040 C 
ATOM     28  C   UNL     1      34.307 -14.943 -24.838  0.00  0.00    +0.176 C 
ATOM     29  C   UNL     1      33.528 -14.034 -26.641  0.00  0.00    +0.429 C 
ENDBRANCH  20  23
ENDBRANCH   1  20
TORSDOF 5
ENDMDL
MODEL 5
REMARK VINA RESULT:     -11.0      3.302     10.231
REMARK  Name = 11740318
REMARK  5 active torsions:
REMARK  status: ('A' for Active; 'I' for Inactive)
REMARK    1  A    between atoms: N_1  and  C_20
REMARK    2  A    between atoms: C_2  and  O_8
REMARK    3  A    between atoms: O_8  and  C_9
REMARK    4  A    between atoms: C_14  and  N_15
REMARK    5  A    between atoms: C_20  and  C_23
REMARK                            x       y       z     vdW  Elec       q    Type
REMARK                         _______ _______ _______ _____ _____    ______ ____
ROOT
ATOM      1  N   UNL     1      35.331 -19.968 -21.721  0.00  0.00    +0.392 N 
ATOM      2  C   UNL     1      35.165 -21.797 -20.060  0.00  0.00    +0.145 C 
ATOM      3  C   UNL     1      35.995 -20.622 -20.587  0.00  0.00    -0.032 C 
ATOM      4  C   UNL     1      33.755 -21.350 -19.686  0.00  0.00    +0.039 C 
ATOM      5  C   UNL     1      33.106 -20.604 -20.844  0.00  0.00    -0.019 C 
ATOM      6  C   UNL     1      34.002 -19.469 -21.344  0.00  0.00    -0.077 C 
ATOM      7  H   UNL     1      35.208 -20.665 -22.456  0.00  0.00    -0.079 HD
ENDROOT
BRANCH   2   8
ATOM      8  O   UNL     1      35.787 -22.346 -18.904  0.00  0.00    -0.481 OA
BRANCH   8   9
ATOM      9  C   UNL     1      34.959 -22.756 -17.894  0.00  0.00    +0.138 C 
ATOM     10  C   UNL     1      35.400 -22.702 -16.576  0.00  0.00    +0.038 C 
ATOM     11  C   UNL     1      33.683 -23.221 -18.195  0.00  0.00    +0.038 C 
ATOM     12  C   UNL     1      34.555 -23.120 -15.547  0.00  0.00    +0.018 C 
ATOM     13  C   UNL     1      32.839 -23.638 -17.166  0.00  0.00    +0.018 C 
ATOM     14  C   UNL     1      33.275 -23.587 -15.842  0.00  0.00    +0.057 C 
BRANCH  14  15
ATOM     15  N   UNL     1      32.437 -24.000 -14.822  0.00  0.00    -0.246 N 
ATOM     16  N   UNL     1      31.649 -25.215 -13.127  0.00  0.00    -0.224 NA
ATOM     17  C   UNL     1      31.267 -23.401 -14.431  0.00  0.00    +0.092 C 
ATOM     18  C   UNL     1      32.619 -25.088 -14.004  0.00  0.00    +0.172 C 
ATOM     19  C   UNL     1      30.802 -24.166 -13.388  0.00  0.00    +0.117 C 
ENDBRANCH  14  15
ENDBRANCH   8   9
ENDBRANCH   2   8
BRANCH   1  20
ATOM     20  C   UNL     1      36.159 -18.880 -22.241  0.00  0.00    -0.050 C 
BRANCH  20  23
ATOM     21  O   UNL     1      34.658 -14.856 -24.677  0.00  0.00    -0.435 OA
ATOM     22  O   UNL     1      33.740 -16.154 -26.488  0.00  0.00    -0.435 OA
ATOM     23  C   UNL     1      35.501 -18.179 -23.399  0.00  0.00    -0.040 C 
ATOM     24  C   UNL     1      35.435 -16.790 -23.406  0.00  0.00    +0.034 C 
ATOM     25  C   UNL     1      34.971 -18.942 -24.447  0.00  0.00    -0.003 C 
ATOM     26  C   UNL     1      34.823 -16.194 -24.489  0.00  0.00    +0.176 C 
ATOM     27  C   UNL     1      34.357 -18.313 -25.532  0.00  0.00    +0.040 C 
ATOM     28  C   UNL     1      34.298 -16.935 -25.523  0.00  0.00    +0.176 C 
ATOM     29  C   UNL     1      33.973 -14.838 -25.946  0.00  0.00    +0.429 C 
ENDBRANCH  20  23
ENDBRANCH   1  20
TORSDOF 5
ENDMDL
MODEL 6
REMARK VINA RESULT:     -11.0      3.285      5.660
REMARK  Name = 11740318
REMARK  5 active torsions:
REMARK  status: ('A' for Active; 'I' for Inactive)
REMARK    1  A    between atoms: N_1  and  C_20
REMARK    2  A    between atoms: C_2  and  O_8
REMARK    3  A    between atoms: O_8  and  C_9
REMARK    4  A    between atoms: C_14  and  N_15
REMARK    5  A    between atoms: C_20  and  C_23
REMARK                            x       y       z     vdW  Elec       q    Type
REMARK                         _______ _______ _______ _____ _____    ______ ____
ROOT
ATOM      1  N   UNL     1      35.986 -20.746 -19.719  0.00  0.00    +0.392 N 
ATOM      2  C   UNL     1      35.463 -18.975 -21.369  0.00  0.00    +0.145 C 
ATOM      3  C   UNL     1      36.531 -19.913 -20.798  0.00  0.00    -0.032 C 
ATOM      4  C   UNL     1      34.242 -19.755 -21.844  0.00  0.00    +0.039 C 
ATOM      5  C   UNL     1      33.732 -20.673 -20.740  0.00  0.00    -0.019 C 
ATOM      6  C   UNL     1      34.855 -21.556 -20.192  0.00  0.00    -0.077 C 
ATOM      7  H   UNL     1      35.642 -20.124 -18.987  0.00  0.00    -0.079 HD
ENDROOT
BRANCH   2   8
ATOM      8  O   UNL     1      35.997 -18.253 -22.473  0.00  0.00    -0.481 OA
BRANCH   8   9
ATOM      9  C   UNL     1      35.509 -16.990 -22.678  0.00  0.00    +0.138 C 
ATOM     10  C   UNL     1      35.153 -16.204 -21.588  0.00  0.00    +0.038 C 
ATOM     11  C   UNL     1      35.376 -16.505 -23.974  0.00  0.00    +0.038 C 
ATOM     12  C   UNL     1      34.655 -14.917 -21.796  0.00  0.00    +0.018 C 
ATOM     13  C   UNL     1      34.879 -15.219 -24.183  0.00  0.00    +0.018 C 
ATOM     14  C   UNL     1      34.519 -14.425 -23.094  0.00  0.00    +0.057 C 
BRANCH  14  15
ATOM     15  N   UNL     1      34.027 -13.149 -23.301  0.00  0.00    -0.246 N 
ATOM     16  N   UNL     1      33.783 -11.123 -24.198  0.00  0.00    -0.224 NA
ATOM     17  C   UNL     1      33.021 -12.536 -22.599  0.00  0.00    +0.092 C 
ATOM     18  C   UNL     1      34.450 -12.254 -24.252  0.00  0.00    +0.172 C 
ATOM     19  C   UNL     1      32.890 -11.292 -23.170  0.00  0.00    +0.117 C 
ENDBRANCH  14  15
ENDBRANCH   8   9
ENDBRANCH   2   8
BRANCH   1  20
ATOM     20  C   UNL     1      37.029 -21.601 -19.155  0.00  0.00    -0.050 C 
BRANCH  20  23
ATOM     21  O   UNL     1      38.013 -22.992 -14.521  0.00  0.00    -0.435 OA
ATOM     22  O   UNL     1      35.720 -23.597 -14.093  0.00  0.00    -0.435 OA
ATOM     23  C   UNL     1      36.642 -22.142 -17.804  0.00  0.00    -0.040 C 
ATOM     24  C   UNL     1      37.616 -22.281 -16.822  0.00  0.00    +0.034 C 
ATOM     25  C   UNL     1      35.307 -22.491 -17.566  0.00  0.00    -0.003 C 
ATOM     26  C   UNL     1      37.213 -22.780 -15.601  0.00  0.00    +0.176 C 
ATOM     27  C   UNL     1      34.925 -22.993 -16.320  0.00  0.00    +0.040 C 
ATOM     28  C   UNL     1      35.903 -23.127 -15.357  0.00  0.00    +0.176 C 
ATOM     29  C   UNL     1      37.060 -23.508 -13.569  0.00  0.00    +0.429 C 
ENDBRANCH  20  23
ENDBRANCH   1  20
TORSDOF 5
ENDMDL
MODEL 7
REMARK VINA RESULT:     -11.0      3.962     11.072
REMARK  Name = 11740318
REMARK  5 active torsions:
REMARK  status: ('A' for Active; 'I' for Inactive)
REMARK    1  A    between atoms: N_1  and  C_20
REMARK    2  A    between atoms: C_2  and  O_8
REMARK    3  A    between atoms: O_8  and  C_9
REMARK    4  A    between atoms: C_14  and  N_15
REMARK    5  A    between atoms: C_20  and  C_23
REMARK                            x       y       z     vdW  Elec       q    Type
REMARK                         _______ _______ _______ _____ _____    ______ ____
ROOT
ATOM      1  N   UNL     1      35.554 -18.678 -22.905  0.00  0.00    +0.392 N 
ATOM      2  C   UNL     1      35.311 -20.161 -20.938  0.00  0.00    +0.145 C 
ATOM      3  C   UNL     1      34.971 -19.933 -22.413  0.00  0.00    -0.032 C 
ATOM      4  C   UNL     1      36.819 -20.132 -20.710  0.00  0.00    +0.039 C 
ATOM      5  C   UNL     1      37.423 -18.862 -21.293  0.00  0.00    -0.019 C 
ATOM      6  C   UNL     1      37.016 -18.677 -22.757  0.00  0.00    -0.077 C 
ATOM      7  H   UNL     1      35.180 -17.916 -22.340  0.00  0.00    -0.079 HD
ENDROOT
BRANCH   2   8
ATOM      8  O   UNL     1      34.814 -21.428 -20.520  0.00  0.00    -0.481 OA
BRANCH   8   9
ATOM      9  C   UNL     1      35.190 -21.857 -19.275  0.00  0.00    +0.138 C 
ATOM     10  C   UNL     1      34.265 -22.502 -18.460  0.00  0.00    +0.038 C 
ATOM     11  C   UNL     1      36.493 -21.645 -18.837  0.00  0.00    +0.038 C 
ATOM     12  C   UNL     1      34.648 -22.939 -17.191  0.00  0.00    +0.018 C 
ATOM     13  C   UNL     1      36.875 -22.082 -17.569  0.00  0.00    +0.018 C 
ATOM     14  C   UNL     1      35.953 -22.729 -16.746  0.00  0.00    +0.057 C 
BRANCH  14  15
ATOM     15  N   UNL     1      36.333 -23.163 -15.489  0.00  0.00    -0.246 N 
ATOM     16  N   UNL     1      37.627 -23.564 -13.719  0.00  0.00    -0.224 NA
ATOM     17  C   UNL     1      35.532 -23.775 -14.559  0.00  0.00    +0.092 C 
ATOM     18  C   UNL     1      37.583 -23.061 -14.932  0.00  0.00    +0.172 C 
ATOM     19  C   UNL     1      36.351 -24.011 -13.480  0.00  0.00    +0.117 C 
ENDBRANCH  14  15
ENDBRANCH   8   9
ENDBRANCH   2   8
BRANCH   1  20
ATOM     20  C   UNL     1      35.180 -18.452 -24.301  0.00  0.00    -0.050 C 
BRANCH  20  23
ATOM     21  O   UNL     1      33.536 -14.762 -27.139  0.00  0.00    -0.435 OA
ATOM     22  O   UNL     1      33.884 -13.122 -25.409  0.00  0.00    -0.435 OA
ATOM     23  C   UNL     1      34.843 -17.009 -24.565  0.00  0.00    -0.040 C 
ATOM     24  C   UNL     1      34.332 -16.646 -25.806  0.00  0.00    +0.034 C 
ATOM     25  C   UNL     1      35.049 -16.064 -23.553  0.00  0.00    -0.003 C 
ATOM     26  C   UNL     1      34.038 -15.312 -26.000  0.00  0.00    +0.176 C 
ATOM     27  C   UNL     1      34.742 -14.720 -23.775  0.00  0.00    +0.040 C 
ATOM     28  C   UNL     1      34.237 -14.375 -25.012  0.00  0.00    +0.176 C 
ATOM     29  C   UNL     1      33.440 -13.375 -26.757  0.00  0.00    +0.429 C 
ENDBRANCH  20  23
ENDBRANCH   1  20
TORSDOF 5
ENDMDL
MODEL 8
REMARK VINA RESULT:     -10.9      3.723      7.246
REMARK  Name = 11740318
REMARK  5 active torsions:
REMARK  status: ('A' for Active; 'I' for Inactive)
REMARK    1  A    between atoms: N_1  and  C_20
REMARK    2  A    between atoms: C_2  and  O_8
REMARK    3  A    between atoms: O_8  and  C_9
REMARK    4  A    between atoms: C_14  and  N_15
REMARK    5  A    between atoms: C_20  and  C_23
REMARK                            x       y       z     vdW  Elec       q    Type
REMARK                         _______ _______ _______ _____ _____    ______ ____
ROOT
ATOM      1  N   UNL     1      36.555 -23.198 -14.457  0.00  0.00    +0.392 N 
ATOM      2  C   UNL     1      34.573 -23.917 -13.159  0.00  0.00    +0.145 C 
ATOM      3  C   UNL     1      35.366 -24.059 -14.462  0.00  0.00    -0.032 C 
ATOM      4  C   UNL     1      35.452 -24.203 -11.945  0.00  0.00    +0.039 C 
ATOM      5  C   UNL     1      36.719 -23.361 -11.993  0.00  0.00    -0.019 C 
ATOM      6  C   UNL     1      37.443 -23.522 -13.331  0.00  0.00    -0.077 C 
ATOM      7  H   UNL     1      36.244 -22.234 -14.343  0.00  0.00    -0.079 HD
ENDROOT
BRANCH   2   8
ATOM      8  O   UNL     1      33.484 -24.833 -13.156  0.00  0.00    -0.481 OA
BRANCH   8   9
ATOM      9  C   UNL     1      32.387 -24.488 -13.898  0.00  0.00    +0.138 C 
ATOM     10  C   UNL     1      32.255 -23.186 -14.370  0.00  0.00    +0.038 C 
ATOM     11  C   UNL     1      31.413 -25.442 -14.174  0.00  0.00    +0.038 C 
ATOM     12  C   UNL     1      31.137 -22.834 -15.127  0.00  0.00    +0.018 C 
ATOM     13  C   UNL     1      30.295 -25.090 -14.930  0.00  0.00    +0.018 C 
ATOM     14  C   UNL     1      30.157 -23.786 -15.407  0.00  0.00    +0.057 C 
BRANCH  14  15
ATOM     15  N   UNL     1      29.049 -23.438 -16.157  0.00  0.00    -0.246 N 
ATOM     16  N   UNL     1      27.531 -23.486 -17.789  0.00  0.00    -0.224 NA
ATOM     17  C   UNL     1      28.166 -22.423 -15.891  0.00  0.00    +0.092 C 
ATOM     18  C   UNL     1      28.619 -24.046 -17.311  0.00  0.00    +0.172 C 
ATOM     19  C   UNL     1      27.243 -22.474 -16.908  0.00  0.00    +0.117 C 
ENDBRANCH  14  15
ENDBRANCH   8   9
ENDBRANCH   2   8
BRANCH   1  20
ATOM     20  C   UNL     1      37.274 -23.311 -15.725  0.00  0.00    -0.050 C 
BRANCH  20  23
ATOM     21  O   UNL     1      36.650 -20.696 -19.867  0.00  0.00    -0.435 OA
ATOM     22  O   UNL     1      34.340 -21.351 -20.069  0.00  0.00    -0.435 OA
ATOM     23  C   UNL     1      36.455 -22.802 -16.882  0.00  0.00    -0.040 C 
ATOM     24  C   UNL     1      37.048 -21.962 -17.817  0.00  0.00    +0.034 C 
ATOM     25  C   UNL     1      35.114 -23.189 -16.990  0.00  0.00    -0.003 C 
ATOM     26  C   UNL     1      36.257 -21.522 -18.859  0.00  0.00    +0.176 C 
ATOM     27  C   UNL     1      34.336 -22.729 -18.055  0.00  0.00    +0.040 C 
ATOM     28  C   UNL     1      34.937 -21.895 -18.974  0.00  0.00    +0.176 C 
ATOM     29  C   UNL     1      35.431 -20.593 -20.631  0.00  0.00    +0.429 C 
ENDBRANCH  20  23
ENDBRANCH   1  20
TORSDOF 5
ENDMDL
MODEL 9
REMARK VINA RESULT:     -10.7      3.418     10.530
REMARK  Name = 11740318
REMARK  5 active torsions:
REMARK  status: ('A' for Active; 'I' for Inactive)
REMARK    1  A    between atoms: N_1  and  C_20
REMARK    2  A    between atoms: C_2  and  O_8
REMARK    3  A    between atoms: O_8  and  C_9
REMARK    4  A    between atoms: C_14  and  N_15
REMARK    5  A    between atoms: C_20  and  C_23
REMARK                            x       y       z     vdW  Elec       q    Type
REMARK                         _______ _______ _______ _____ _____    ______ ____
ROOT
ATOM      1  N   UNL     1      35.653 -19.046 -22.513  0.00  0.00    +0.392 N 
ATOM      2  C   UNL     1      35.689 -20.669 -20.645  0.00  0.00    +0.145 C 
ATOM      3  C   UNL     1      35.425 -20.447 -22.137  0.00  0.00    -0.032 C 
ATOM      4  C   UNL     1      37.097 -20.221 -20.262  0.00  0.00    +0.039 C 
ATOM      5  C   UNL     1      37.348 -18.794 -20.727  0.00  0.00    -0.019 C 
ATOM      6  C   UNL     1      37.031 -18.632 -22.215  0.00  0.00    -0.077 C 
ATOM      7  H   UNL     1      35.025 -18.466 -21.958  0.00  0.00    -0.079 HD
ENDROOT
BRANCH   2   8
ATOM      8  O   UNL     1      35.554 -22.052 -20.333  0.00  0.00    -0.481 OA
BRANCH   8   9
ATOM      9  C   UNL     1      34.974 -22.358 -19.132  0.00  0.00    +0.138 C 
ATOM     10  C   UNL     1      35.769 -22.504 -18.000  0.00  0.00    +0.038 C 
ATOM     11  C   UNL     1      33.595 -22.521 -19.053  0.00  0.00    +0.038 C 
ATOM     12  C   UNL     1      35.177 -22.817 -16.775  0.00  0.00    +0.018 C 
ATOM     13  C   UNL     1      33.004 -22.833 -17.829  0.00  0.00    +0.018 C 
ATOM     14  C   UNL     1      33.795 -22.981 -16.690  0.00  0.00    +0.057 C 
BRANCH  14  15
ATOM     15  N   UNL     1      33.209 -23.290 -15.476  0.00  0.00    -0.246 N 
ATOM     16  N   UNL     1      32.949 -24.168 -13.443  0.00  0.00    -0.224 NA
ATOM     17  C   UNL     1      31.975 -22.882 -15.036  0.00  0.00    +0.092 C 
ATOM     18  C   UNL     1      33.752 -24.061 -14.478  0.00  0.00    +0.172 C 
ATOM     19  C   UNL     1      31.840 -23.435 -13.785  0.00  0.00    +0.117 C 
ENDBRANCH  14  15
ENDBRANCH   8   9
ENDBRANCH   2   8
BRANCH   1  20
ATOM     20  C   UNL     1      35.352 -18.841 -23.930  0.00  0.00    -0.050 C 
BRANCH  20  23
ATOM     21  O   UNL     1      34.834 -14.086 -22.706  0.00  0.00    -0.435 OA
ATOM     22  O   UNL     1      34.010 -13.493 -24.892  0.00  0.00    -0.435 OA
ATOM     23  C   UNL     1      34.981 -17.411 -24.223  0.00  0.00    -0.040 C 
ATOM     24  C   UNL     1      35.123 -16.453 -23.225  0.00  0.00    +0.034 C 
ATOM     25  C   UNL     1      34.504 -17.078 -25.496  0.00  0.00    -0.003 C 
ATOM     26  C   UNL     1      34.770 -15.158 -23.542  0.00  0.00    +0.176 C 
ATOM     27  C   UNL     1      34.155 -15.758 -25.791  0.00  0.00    +0.040 C 
ATOM     28  C   UNL     1      34.299 -14.819 -24.790  0.00  0.00    +0.176 C 
ATOM     29  C   UNL     1      34.352 -13.034 -23.568  0.00  0.00    +0.429 C 
ENDBRANCH  20  23
ENDBRANCH   1  20
TORSDOF 5
ENDMDL
