MODEL 1
REMARK VINA RESULT:     -11.4      0.000      0.000
REMARK  Name = 9963057
REMARK  12 active torsions:
REMARK  status: ('A' for Active; 'I' for Inactive)
REMARK    1  A    between atoms: N_1  and  C_4
REMARK    2  A    between atoms: N_1  and  C_21
REMARK    3  A    between atoms: C_12  and  O_14
REMARK    4  A    between atoms: O_14  and  C_15
REMARK    5  A    between atoms: C_15  and  C_18
REMARK    6  A    between atoms: C_21  and  C_22
REMARK    7  A    between atoms: C_22  and  C_23
REMARK    8  A    between atoms: C_22  and  O_35
REMARK    9  A    between atoms: C_26  and  C_31
REMARK   10  A    between atoms: C_28  and  O_29
REMARK   11  A    between atoms: C_31  and  C_32
REMARK   12  A    between atoms: C_32  and  O_33
REMARK                            x       y       z     vdW  Elec       q    Type
REMARK                         _______ _______ _______ _____ _____    ______ ____
ROOT
ATOM      1  N   UNL     1      33.081 -22.406 -19.000  0.00  0.00    +0.387 N 
ATOM      2  H   UNL     1      32.753 -22.920 -19.817  0.00  0.00    -0.084 HD
ATOM      3  H   UNL     1      32.303 -21.927 -18.546  0.00  0.00    -0.084 HD
ENDROOT
BRANCH   1   4
ATOM      4  C   UNL     1      34.063 -21.408 -19.422  0.00  0.00    -0.057 C 
ATOM      5  C   UNL     1      35.477 -21.981 -19.307  0.00  0.00    -0.016 C 
ATOM      6  C   UNL     1      33.793 -20.969 -20.867  0.00  0.00    +0.005 C 
ATOM      7  C   UNL     1      36.514 -20.908 -19.638  0.00  0.00    +0.024 C 
ATOM      8  C   UNL     1      34.906 -20.131 -21.449  0.00  0.00    -0.025 C 
ATOM      9  C   UNL     1      36.198 -20.135 -20.893  0.00  0.00    -0.026 C 
ATOM     10  C   UNL     1      34.656 -19.377 -22.606  0.00  0.00    +0.032 C 
ATOM     11  C   UNL     1      37.205 -19.358 -21.485  0.00  0.00    -0.001 C 
ATOM     12  C   UNL     1      35.669 -18.616 -23.191  0.00  0.00    +0.139 C 
ATOM     13  C   UNL     1      36.942 -18.606 -22.628  0.00  0.00    +0.037 C 
BRANCH  12  14
ATOM     14  O   UNL     1      35.412 -17.887 -24.310  0.00  0.00    -0.466 OA
BRANCH  14  15
ATOM     15  C   UNL     1      34.978 -16.541 -24.123  0.00  0.00    +0.290 C 
BRANCH  15  18
ATOM     16  O   UNL     1      34.222 -16.800 -26.354  0.00  0.00    -0.271 OA
ATOM     17  N   UNL     1      33.980 -14.679 -25.438  0.00  0.00    -0.273 N 
ATOM     18  C   UNL     1      34.363 -16.021 -25.406  0.00  0.00    +0.270 C 
ATOM     19  C   UNL     1      33.376 -14.135 -26.647  0.00  0.00    +0.115 C 
ATOM     20  C   UNL     1      34.118 -13.733 -24.333  0.00  0.00    +0.115 C 
ENDBRANCH  15  18
ENDBRANCH  14  15
ENDBRANCH  12  14
ENDBRANCH   1   4
BRANCH   1  21
ATOM     21  C   UNL     1      33.670 -23.340 -18.053  0.00  0.00    -0.047 C 
BRANCH  21  22
ATOM     22  C   UNL     1      33.390 -22.904 -16.610  0.00  0.00    +0.112 C 
BRANCH  22  23
ATOM     23  C   UNL     1      32.226 -23.666 -16.017  0.00  0.00    +0.002 C 
ATOM     24  C   UNL     1      30.947 -23.513 -16.552  0.00  0.00    -0.003 C 
ATOM     25  C   UNL     1      32.431 -24.522 -14.934  0.00  0.00    +0.001 C 
ATOM     26  C   UNL     1      29.873 -24.217 -16.005  0.00  0.00    +0.014 C 
ATOM     27  C   UNL     1      31.357 -25.224 -14.386  0.00  0.00    +0.036 C 
ATOM     28  C   UNL     1      30.079 -25.071 -14.922  0.00  0.00    +0.130 C 
BRANCH  28  29
ATOM     29  O   UNL     1      29.041 -25.765 -14.376  0.00  0.00    -0.506 OA
ATOM     30  H   UNL     1      28.308 -25.306 -14.015  0.00  0.00    +0.292 HD
ENDBRANCH  28  29
BRANCH  26  31
ATOM     31  C   UNL     1      28.511 -24.041 -16.590  0.00  0.00    +0.061 C 
BRANCH  31  32
ATOM     32  C   UNL     1      27.817 -22.764 -16.111  0.00  0.00    +0.142 C 
BRANCH  32  33
ATOM     33  O   UNL     1      27.791 -21.811 -17.166  0.00  0.00    -0.382 OA
ATOM     34  H   UNL     1      28.242 -22.178 -17.944  0.00  0.00    +0.210 HD
ENDBRANCH  32  33
ENDBRANCH  31  32
ENDBRANCH  26  31
ENDBRANCH  22  23
BRANCH  22  35
ATOM     35  O   UNL     1      34.536 -23.132 -15.791  0.00  0.00    -0.382 OA
ATOM     36  H   UNL     1      34.635 -22.399 -15.163  0.00  0.00    +0.211 HD
ENDBRANCH  22  35
ENDBRANCH  21  22
ENDBRANCH   1  21
TORSDOF 12
ENDMDL
MODEL 2
REMARK VINA RESULT:     -10.9      1.884      3.552
REMARK  Name = 9963057
REMARK  12 active torsions:
REMARK  status: ('A' for Active; 'I' for Inactive)
REMARK    1  A    between atoms: N_1  and  C_4
REMARK    2  A    between atoms: N_1  and  C_21
REMARK    3  A    between atoms: C_12  and  O_14
REMARK    4  A    between atoms: O_14  and  C_15
REMARK    5  A    between atoms: C_15  and  C_18
REMARK    6  A    between atoms: C_21  and  C_22
REMARK    7  A    between atoms: C_22  and  C_23
REMARK    8  A    between atoms: C_22  and  O_35
REMARK    9  A    between atoms: C_26  and  C_31
REMARK   10  A    between atoms: C_28  and  O_29
REMARK   11  A    between atoms: C_31  and  C_32
REMARK   12  A    between atoms: C_32  and  O_33
REMARK                            x       y       z     vdW  Elec       q    Type
REMARK                         _______ _______ _______ _____ _____    ______ ____
ROOT
ATOM      1  N   UNL     1      32.948 -22.183 -19.284  0.00  0.00    +0.387 N 
ATOM      2  H   UNL     1      32.615 -22.627 -20.139  0.00  0.00    -0.084 HD
ATOM      3  H   UNL     1      32.190 -21.672 -18.830  0.00  0.00    -0.084 HD
ENDROOT
BRANCH   1   4
ATOM      4  C   UNL     1      34.014 -21.239 -19.619  0.00  0.00    -0.057 C 
ATOM      5  C   UNL     1      35.377 -21.924 -19.505  0.00  0.00    -0.016 C 
ATOM      6  C   UNL     1      33.819 -20.693 -21.040  0.00  0.00    +0.005 C 
ATOM      7  C   UNL     1      36.501 -20.915 -19.744  0.00  0.00    +0.024 C 
ATOM      8  C   UNL     1      35.008 -19.909 -21.541  0.00  0.00    -0.025 C 
ATOM      9  C   UNL     1      36.280 -20.046 -20.956  0.00  0.00    -0.026 C 
ATOM     10  C   UNL     1      34.849 -19.069 -22.654  0.00  0.00    +0.032 C 
ATOM     11  C   UNL     1      37.359 -19.313 -21.473  0.00  0.00    -0.001 C 
ATOM     12  C   UNL     1      35.932 -18.354 -23.166  0.00  0.00    +0.139 C 
ATOM     13  C   UNL     1      37.186 -18.475 -22.573  0.00  0.00    +0.037 C 
BRANCH  12  14
ATOM     14  O   UNL     1      35.763 -17.541 -24.243  0.00  0.00    -0.466 OA
BRANCH  14  15
ATOM     15  C   UNL     1      34.997 -16.354 -24.047  0.00  0.00    +0.290 C 
BRANCH  15  18
ATOM     16  O   UNL     1      34.441 -16.672 -26.328  0.00  0.00    -0.271 OA
ATOM     17  N   UNL     1      33.907 -14.598 -25.431  0.00  0.00    -0.273 N 
ATOM     18  C   UNL     1      34.427 -15.891 -25.372  0.00  0.00    +0.270 C 
ATOM     19  C   UNL     1      33.340 -14.110 -26.682  0.00  0.00    +0.115 C 
ATOM     20  C   UNL     1      33.861 -13.652 -24.319  0.00  0.00    +0.115 C 
ENDBRANCH  15  18
ENDBRANCH  14  15
ENDBRANCH  12  14
ENDBRANCH   1   4
BRANCH   1  21
ATOM     21  C   UNL     1      33.434 -23.206 -18.371  0.00  0.00    -0.047 C 
BRANCH  21  22
ATOM     22  C   UNL     1      32.371 -23.548 -17.320  0.00  0.00    +0.112 C 
BRANCH  22  23
ATOM     23  C   UNL     1      32.992 -23.785 -15.961  0.00  0.00    +0.002 C 
ATOM     24  C   UNL     1      34.372 -23.954 -15.845  0.00  0.00    -0.003 C 
ATOM     25  C   UNL     1      32.185 -23.835 -14.824  0.00  0.00    +0.001 C 
ATOM     26  C   UNL     1      34.944 -24.173 -14.592  0.00  0.00    +0.014 C 
ATOM     27  C   UNL     1      32.757 -24.055 -13.572  0.00  0.00    +0.036 C 
ATOM     28  C   UNL     1      34.137 -24.224 -13.456  0.00  0.00    +0.130 C 
BRANCH  28  29
ATOM     29  O   UNL     1      34.680 -24.436 -12.224  0.00  0.00    -0.506 OA
ATOM     30  H   UNL     1      34.876 -25.309 -11.942  0.00  0.00    +0.292 HD
ENDBRANCH  28  29
BRANCH  26  31
ATOM     31  C   UNL     1      36.423 -24.352 -14.485  0.00  0.00    +0.061 C 
BRANCH  31  32
ATOM     32  C   UNL     1      36.852 -25.819 -14.560  0.00  0.00    +0.142 C 
BRANCH  32  33
ATOM     33  O   UNL     1      37.398 -26.091 -15.845  0.00  0.00    -0.382 OA
ATOM     34  H   UNL     1      38.086 -26.771 -15.767  0.00  0.00    +0.210 HD
ENDBRANCH  32  33
ENDBRANCH  31  32
ENDBRANCH  26  31
ENDBRANCH  22  23
BRANCH  22  35
ATOM     35  O   UNL     1      31.430 -22.482 -17.201  0.00  0.00    -0.382 OA
ATOM     36  H   UNL     1      31.066 -22.274 -18.075  0.00  0.00    +0.211 HD
ENDBRANCH  22  35
ENDBRANCH  21  22
ENDBRANCH   1  21
TORSDOF 12
ENDMDL
MODEL 3
REMARK VINA RESULT:     -10.9      3.597     11.141
REMARK  Name = 9963057
REMARK  12 active torsions:
REMARK  status: ('A' for Active; 'I' for Inactive)
REMARK    1  A    between atoms: N_1  and  C_4
REMARK    2  A    between atoms: N_1  and  C_21
REMARK    3  A    between atoms: C_12  and  O_14
REMARK    4  A    between atoms: O_14  and  C_15
REMARK    5  A    between atoms: C_15  and  C_18
REMARK    6  A    between atoms: C_21  and  C_22
REMARK    7  A    between atoms: C_22  and  C_23
REMARK    8  A    between atoms: C_22  and  O_35
REMARK    9  A    between atoms: C_26  and  C_31
REMARK   10  A    between atoms: C_28  and  O_29
REMARK   11  A    between atoms: C_31  and  C_32
REMARK   12  A    between atoms: C_32  and  O_33
REMARK                            x       y       z     vdW  Elec       q    Type
REMARK                         _______ _______ _______ _____ _____    ______ ____
ROOT
ATOM      1  N   UNL     1      36.012 -21.344 -20.321  0.00  0.00    +0.387 N 
ATOM      2  H   UNL     1      36.083 -22.160 -20.928  0.00  0.00    -0.084 HD
ATOM      3  H   UNL     1      36.941 -21.009 -20.065  0.00  0.00    -0.084 HD
ENDROOT
BRANCH   1   4
ATOM      4  C   UNL     1      35.295 -21.714 -19.101  0.00  0.00    -0.057 C 
ATOM      5  C   UNL     1      34.347 -22.882 -19.383  0.00  0.00    -0.016 C 
ATOM      6  C   UNL     1      36.285 -22.100 -17.995  0.00  0.00    +0.005 C 
ATOM      7  C   UNL     1      33.513 -23.201 -18.143  0.00  0.00    +0.024 C 
ATOM      8  C   UNL     1      35.618 -22.726 -16.795  0.00  0.00    -0.025 C 
ATOM      9  C   UNL     1      34.328 -23.282 -16.876  0.00  0.00    -0.026 C 
ATOM     10  C   UNL     1      36.327 -22.807 -15.586  0.00  0.00    +0.032 C 
ATOM     11  C   UNL     1      33.759 -23.874 -15.739  0.00  0.00    -0.001 C 
ATOM     12  C   UNL     1      35.755 -23.409 -14.465  0.00  0.00    +0.139 C 
ATOM     13  C   UNL     1      34.470 -23.940 -14.542  0.00  0.00    +0.037 C 
BRANCH  12  14
ATOM     14  O   UNL     1      36.451 -23.477 -13.299  0.00  0.00    -0.466 OA
BRANCH  14  15
ATOM     15  C   UNL     1      36.930 -24.761 -12.902  0.00  0.00    +0.290 C 
BRANCH  15  18
ATOM     16  O   UNL     1      39.156 -24.107 -12.421  0.00  0.00    -0.271 OA
ATOM     17  N   UNL     1      38.906 -25.730 -14.063  0.00  0.00    -0.273 N 
ATOM     18  C   UNL     1      38.429 -24.832 -13.107  0.00  0.00    +0.270 C 
ATOM     19  C   UNL     1      40.341 -25.840 -14.289  0.00  0.00    +0.115 C 
ATOM     20  C   UNL     1      38.079 -26.613 -14.881  0.00  0.00    +0.115 C 
ENDBRANCH  15  18
ENDBRANCH  14  15
ENDBRANCH  12  14
ENDBRANCH   1   4
BRANCH   1  21
ATOM     21  C   UNL     1      35.311 -20.283 -21.028  0.00  0.00    -0.047 C 
BRANCH  21  22
ATOM     22  C   UNL     1      36.301 -19.368 -21.758  0.00  0.00    +0.112 C 
BRANCH  22  23
ATOM     23  C   UNL     1      35.667 -18.722 -22.972  0.00  0.00    +0.002 C 
ATOM     24  C   UNL     1      35.718 -17.338 -23.130  0.00  0.00    -0.003 C 
ATOM     25  C   UNL     1      35.033 -19.512 -23.931  0.00  0.00    +0.001 C 
ATOM     26  C   UNL     1      35.134 -16.743 -24.249  0.00  0.00    +0.014 C 
ATOM     27  C   UNL     1      34.448 -18.917 -25.048  0.00  0.00    +0.036 C 
ATOM     28  C   UNL     1      34.498 -17.532 -25.207  0.00  0.00    +0.130 C 
BRANCH  28  29
ATOM     29  O   UNL     1      33.924 -16.967 -26.305  0.00  0.00    -0.506 OA
ATOM     30  H   UNL     1      33.220 -16.356 -26.204  0.00  0.00    +0.292 HD
ENDBRANCH  28  29
BRANCH  26  31
ATOM     31  C   UNL     1      35.197 -15.259 -24.403  0.00  0.00    +0.061 C 
BRANCH  31  32
ATOM     32  C   UNL     1      33.903 -14.560 -23.976  0.00  0.00    +0.142 C 
BRANCH  32  33
ATOM     33  O   UNL     1      33.087 -14.329 -25.117  0.00  0.00    -0.382 OA
ATOM     34  H   UNL     1      32.263 -13.894 -24.843  0.00  0.00    +0.210 HD
ENDBRANCH  32  33
ENDBRANCH  31  32
ENDBRANCH  26  31
ENDBRANCH  22  23
BRANCH  22  35
ATOM     35  O   UNL     1      36.755 -18.332 -20.888  0.00  0.00    -0.382 OA
ATOM     36  H   UNL     1      36.913 -17.525 -21.402  0.00  0.00    +0.211 HD
ENDBRANCH  22  35
ENDBRANCH  21  22
ENDBRANCH   1  21
TORSDOF 12
ENDMDL
MODEL 4
REMARK VINA RESULT:     -10.8      3.310     10.251
REMARK  Name = 9963057
REMARK  12 active torsions:
REMARK  status: ('A' for Active; 'I' for Inactive)
REMARK    1  A    between atoms: N_1  and  C_4
REMARK    2  A    between atoms: N_1  and  C_21
REMARK    3  A    between atoms: C_12  and  O_14
REMARK    4  A    between atoms: O_14  and  C_15
REMARK    5  A    between atoms: C_15  and  C_18
REMARK    6  A    between atoms: C_21  and  C_22
REMARK    7  A    between atoms: C_22  and  C_23
REMARK    8  A    between atoms: C_22  and  O_35
REMARK    9  A    between atoms: C_26  and  C_31
REMARK   10  A    between atoms: C_28  and  O_29
REMARK   11  A    between atoms: C_31  and  C_32
REMARK   12  A    between atoms: C_32  and  O_33
REMARK                            x       y       z     vdW  Elec       q    Type
REMARK                         _______ _______ _______ _____ _____    ______ ____
ROOT
ATOM      1  N   UNL     1      35.368 -17.466 -23.683  0.00  0.00    +0.387 N 
ATOM      2  H   UNL     1      34.457 -17.569 -24.127  0.00  0.00    -0.084 HD
ATOM      3  H   UNL     1      36.098 -17.360 -24.389  0.00  0.00    -0.084 HD
ENDROOT
BRANCH   1   4
ATOM      4  C   UNL     1      35.654 -18.661 -22.890  0.00  0.00    -0.057 C 
ATOM      5  C   UNL     1      36.837 -18.402 -21.955  0.00  0.00    -0.016 C 
ATOM      6  C   UNL     1      34.421 -19.070 -22.074  0.00  0.00    +0.005 C 
ATOM      7  C   UNL     1      37.213 -19.680 -21.206  0.00  0.00    +0.024 C 
ATOM      8  C   UNL     1      34.716 -20.141 -21.052  0.00  0.00    -0.025 C 
ATOM      9  C   UNL     1      36.028 -20.400 -20.614  0.00  0.00    -0.026 C 
ATOM     10  C   UNL     1      33.648 -20.854 -20.486  0.00  0.00    +0.032 C 
ATOM     11  C   UNL     1      36.248 -21.389 -19.645  0.00  0.00    -0.001 C 
ATOM     12  C   UNL     1      33.880 -21.829 -19.514  0.00  0.00    +0.139 C 
ATOM     13  C   UNL     1      35.180 -22.097 -19.097  0.00  0.00    +0.037 C 
BRANCH  12  14
ATOM     14  O   UNL     1      32.836 -22.515 -18.977  0.00  0.00    -0.466 OA
BRANCH  14  15
ATOM     15  C   UNL     1      33.028 -23.081 -17.681  0.00  0.00    +0.290 C 
BRANCH  15  18
ATOM     16  O   UNL     1      30.746 -22.497 -17.426  0.00  0.00    -0.271 OA
ATOM     17  N   UNL     1      31.783 -23.389 -15.550  0.00  0.00    -0.273 N 
ATOM     18  C   UNL     1      31.751 -22.959 -16.877  0.00  0.00    +0.270 C 
ATOM     19  C   UNL     1      30.576 -23.299 -14.738  0.00  0.00    +0.115 C 
ATOM     20  C   UNL     1      32.947 -23.952 -14.871  0.00  0.00    +0.115 C 
ENDBRANCH  15  18
ENDBRANCH  14  15
ENDBRANCH  12  14
ENDBRANCH   1   4
BRANCH   1  21
ATOM     21  C   UNL     1      35.358 -16.280 -22.840  0.00  0.00    -0.047 C 
BRANCH  21  22
ATOM     22  C   UNL     1      34.499 -15.174 -23.466  0.00  0.00    +0.112 C 
BRANCH  22  23
ATOM     23  C   UNL     1      33.740 -14.398 -22.412  0.00  0.00    +0.002 C 
ATOM     24  C   UNL     1      32.976 -13.290 -22.778  0.00  0.00    -0.003 C 
ATOM     25  C   UNL     1      33.806 -14.790 -21.075  0.00  0.00    +0.001 C 
ATOM     26  C   UNL     1      32.276 -12.575 -21.806  0.00  0.00    +0.014 C 
ATOM     27  C   UNL     1      33.107 -14.074 -20.103  0.00  0.00    +0.036 C 
ATOM     28  C   UNL     1      32.343 -12.966 -20.469  0.00  0.00    +0.130 C 
BRANCH  28  29
ATOM     29  O   UNL     1      31.665 -12.278 -19.508  0.00  0.00    -0.506 OA
ATOM     30  H   UNL     1      31.413 -11.388 -19.658  0.00  0.00    +0.292 HD
ENDBRANCH  28  29
BRANCH  26  31
ATOM     31  C   UNL     1      31.462 -11.392 -22.215  0.00  0.00    +0.061 C 
BRANCH  31  32
ATOM     32  C   UNL     1      32.233 -10.073 -22.111  0.00  0.00    +0.142 C 
BRANCH  32  33
ATOM     33  O   UNL     1      32.005  -9.487 -20.836  0.00  0.00    -0.382 OA
ATOM     34  H   UNL     1      32.735  -8.883 -20.622  0.00  0.00    +0.210 HD
ENDBRANCH  32  33
ENDBRANCH  31  32
ENDBRANCH  26  31
ENDBRANCH  22  23
BRANCH  22  35
ATOM     35  O   UNL     1      35.321 -14.258 -24.190  0.00  0.00    -0.382 OA
ATOM     36  H   UNL     1      36.252 -14.416 -23.969  0.00  0.00    +0.211 HD
ENDBRANCH  22  35
ENDBRANCH  21  22
ENDBRANCH   1  21
TORSDOF 12
ENDMDL
MODEL 5
REMARK VINA RESULT:     -10.7      4.670      8.231
REMARK  Name = 9963057
REMARK  12 active torsions:
REMARK  status: ('A' for Active; 'I' for Inactive)
REMARK    1  A    between atoms: N_1  and  C_4
REMARK    2  A    between atoms: N_1  and  C_21
REMARK    3  A    between atoms: C_12  and  O_14
REMARK    4  A    between atoms: O_14  and  C_15
REMARK    5  A    between atoms: C_15  and  C_18
REMARK    6  A    between atoms: C_21  and  C_22
REMARK    7  A    between atoms: C_22  and  C_23
REMARK    8  A    between atoms: C_22  and  O_35
REMARK    9  A    between atoms: C_26  and  C_31
REMARK   10  A    between atoms: C_28  and  O_29
REMARK   11  A    between atoms: C_31  and  C_32
REMARK   12  A    between atoms: C_32  and  O_33
REMARK                            x       y       z     vdW  Elec       q    Type
REMARK                         _______ _______ _______ _____ _____    ______ ____
ROOT
ATOM      1  N   UNL     1      35.719 -16.163 -23.578  0.00  0.00    +0.387 N 
ATOM      2  H   UNL     1      36.612 -15.850 -23.198  0.00  0.00    -0.084 HD
ATOM      3  H   UNL     1      35.631 -15.881 -24.555  0.00  0.00    -0.084 HD
ENDROOT
BRANCH   1   4
ATOM      4  C   UNL     1      34.632 -15.553 -22.814  0.00  0.00    -0.057 C 
ATOM      5  C   UNL     1      34.979 -15.541 -21.324  0.00  0.00    -0.016 C 
ATOM      6  C   UNL     1      34.370 -14.123 -23.303  0.00  0.00    +0.005 C 
ATOM      7  C   UNL     1      33.801 -15.009 -20.508  0.00  0.00    +0.024 C 
ATOM      8  C   UNL     1      33.436 -13.351 -22.403  0.00  0.00    -0.025 C 
ATOM      9  C   UNL     1      33.200 -13.747 -21.074  0.00  0.00    -0.026 C 
ATOM     10  C   UNL     1      32.835 -12.180 -22.889  0.00  0.00    +0.032 C 
ATOM     11  C   UNL     1      32.342 -12.983 -20.269  0.00  0.00    -0.001 C 
ATOM     12  C   UNL     1      31.992 -11.423 -22.076  0.00  0.00    +0.139 C 
ATOM     13  C   UNL     1      31.744 -11.826 -20.767  0.00  0.00    +0.037 C 
BRANCH  12  14
ATOM     14  O   UNL     1      31.413 -10.291 -22.561  0.00  0.00    -0.466 OA
BRANCH  14  15
ATOM     15  C   UNL     1      32.264  -9.360 -23.227  0.00  0.00    +0.290 C 
BRANCH  15  18
ATOM     16  O   UNL     1      30.997  -7.509 -23.989  0.00  0.00    -0.271 OA
ATOM     17  N   UNL     1      32.010  -7.262 -21.914  0.00  0.00    -0.273 N 
ATOM     18  C   UNL     1      31.702  -7.961 -23.082  0.00  0.00    +0.270 C 
ATOM     19  C   UNL     1      31.484  -5.916 -21.725  0.00  0.00    +0.115 C 
ATOM     20  C   UNL     1      32.827  -7.770 -20.815  0.00  0.00    +0.115 C 
ENDBRANCH  15  18
ENDBRANCH  14  15
ENDBRANCH  12  14
ENDBRANCH   1   4
BRANCH   1  21
ATOM     21  C   UNL     1      35.651 -17.614 -23.504  0.00  0.00    -0.047 C 
BRANCH  21  22
ATOM     22  C   UNL     1      36.580 -18.148 -22.406  0.00  0.00    +0.112 C 
BRANCH  22  23
ATOM     23  C   UNL     1      35.903 -19.222 -21.582  0.00  0.00    +0.002 C 
ATOM     24  C   UNL     1      36.659 -20.021 -20.724  0.00  0.00    -0.003 C 
ATOM     25  C   UNL     1      34.525 -19.412 -21.680  0.00  0.00    +0.001 C 
ATOM     26  C   UNL     1      36.035 -21.011 -19.964  0.00  0.00    +0.014 C 
ATOM     27  C   UNL     1      33.902 -20.403 -20.922  0.00  0.00    +0.036 C 
ATOM     28  C   UNL     1      34.657 -21.202 -20.064  0.00  0.00    +0.130 C 
BRANCH  28  29
ATOM     29  O   UNL     1      34.033 -22.164 -19.328  0.00  0.00    -0.506 OA
ATOM     30  H   UNL     1      33.407 -22.732 -19.733  0.00  0.00    +0.292 HD
ENDBRANCH  28  29
BRANCH  26  31
ATOM     31  C   UNL     1      36.858 -21.857 -19.050  0.00  0.00    +0.061 C 
BRANCH  31  32
ATOM     32  C   UNL     1      36.950 -21.287 -17.632  0.00  0.00    +0.142 C 
BRANCH  32  33
ATOM     33  O   UNL     1      37.811 -20.155 -17.629  0.00  0.00    -0.382 OA
ATOM     34  H   UNL     1      37.315 -19.374 -17.334  0.00  0.00    +0.210 HD
ENDBRANCH  32  33
ENDBRANCH  31  32
ENDBRANCH  26  31
ENDBRANCH  22  23
BRANCH  22  35
ATOM     35  O   UNL     1      37.760 -18.706 -22.983  0.00  0.00    -0.382 OA
ATOM     36  H   UNL     1      37.916 -19.587 -22.610  0.00  0.00    +0.211 HD
ENDBRANCH  22  35
ENDBRANCH  21  22
ENDBRANCH   1  21
TORSDOF 12
ENDMDL
MODEL 6
REMARK VINA RESULT:     -10.6      3.964      7.409
REMARK  Name = 9963057
REMARK  12 active torsions:
REMARK  status: ('A' for Active; 'I' for Inactive)
REMARK    1  A    between atoms: N_1  and  C_4
REMARK    2  A    between atoms: N_1  and  C_21
REMARK    3  A    between atoms: C_12  and  O_14
REMARK    4  A    between atoms: O_14  and  C_15
REMARK    5  A    between atoms: C_15  and  C_18
REMARK    6  A    between atoms: C_21  and  C_22
REMARK    7  A    between atoms: C_22  and  C_23
REMARK    8  A    between atoms: C_22  and  O_35
REMARK    9  A    between atoms: C_26  and  C_31
REMARK   10  A    between atoms: C_28  and  O_29
REMARK   11  A    between atoms: C_31  and  C_32
REMARK   12  A    between atoms: C_32  and  O_33
REMARK                            x       y       z     vdW  Elec       q    Type
REMARK                         _______ _______ _______ _____ _____    ______ ____
ROOT
ATOM      1  N   UNL     1      36.522 -17.776 -22.986  0.00  0.00    +0.387 N 
ATOM      2  H   UNL     1      37.531 -17.657 -22.896  0.00  0.00    -0.084 HD
ATOM      3  H   UNL     1      36.304 -18.351 -23.800  0.00  0.00    -0.084 HD
ENDROOT
BRANCH   1   4
ATOM      4  C   UNL     1      35.898 -16.464 -23.158  0.00  0.00    -0.057 C 
ATOM      5  C   UNL     1      35.007 -16.465 -24.401  0.00  0.00    -0.016 C 
ATOM      6  C   UNL     1      35.070 -16.099 -21.919  0.00  0.00    +0.005 C 
ATOM      7  C   UNL     1      34.442 -15.067 -24.651  0.00  0.00    +0.024 C 
ATOM      8  C   UNL     1      34.204 -14.880 -22.125  0.00  0.00    -0.025 C 
ATOM      9  C   UNL     1      33.875 -14.419 -23.413  0.00  0.00    -0.026 C 
ATOM     10  C   UNL     1      33.669 -14.227 -21.003  0.00  0.00    +0.032 C 
ATOM     11  C   UNL     1      33.047 -13.295 -23.553  0.00  0.00    -0.001 C 
ATOM     12  C   UNL     1      32.838 -13.117 -21.155  0.00  0.00    +0.139 C 
ATOM     13  C   UNL     1      32.530 -12.650 -22.430  0.00  0.00    +0.037 C 
BRANCH  12  14
ATOM     14  O   UNL     1      32.329 -12.492 -20.060  0.00  0.00    -0.466 OA
BRANCH  14  15
ATOM     15  C   UNL     1      31.466 -11.380 -20.288  0.00  0.00    +0.290 C 
BRANCH  15  18
ATOM     16  O   UNL     1      32.619  -9.964 -18.778  0.00  0.00    -0.271 OA
ATOM     17  N   UNL     1      32.316  -9.130 -20.924  0.00  0.00    -0.273 N 
ATOM     18  C   UNL     1      32.183 -10.096 -19.926  0.00  0.00    +0.270 C 
ATOM     19  C   UNL     1      33.006  -7.882 -20.626  0.00  0.00    +0.115 C 
ATOM     20  C   UNL     1      31.826  -9.256 -22.295  0.00  0.00    +0.115 C 
ENDBRANCH  15  18
ENDBRANCH  14  15
ENDBRANCH  12  14
ENDBRANCH   1   4
BRANCH   1  21
ATOM     21  C   UNL     1      36.011 -18.438 -21.796  0.00  0.00    -0.047 C 
BRANCH  21  22
ATOM     22  C   UNL     1      35.394 -19.796 -22.150  0.00  0.00    +0.112 C 
BRANCH  22  23
ATOM     23  C   UNL     1      35.184 -20.647 -20.917  0.00  0.00    +0.002 C 
ATOM     24  C   UNL     1      36.273 -21.002 -20.121  0.00  0.00    -0.003 C 
ATOM     25  C   UNL     1      33.902 -21.077 -20.576  0.00  0.00    +0.001 C 
ATOM     26  C   UNL     1      36.079 -21.787 -18.984  0.00  0.00    +0.014 C 
ATOM     27  C   UNL     1      33.708 -21.863 -19.440  0.00  0.00    +0.036 C 
ATOM     28  C   UNL     1      34.797 -22.218 -18.645  0.00  0.00    +0.130 C 
BRANCH  28  29
ATOM     29  O   UNL     1      34.590 -22.984 -17.537  0.00  0.00    -0.506 OA
ATOM     30  H   UNL     1      35.229 -22.999 -16.851  0.00  0.00    +0.292 HD
ENDBRANCH  28  29
BRANCH  26  31
ATOM     31  C   UNL     1      37.256 -22.158 -18.143  0.00  0.00    +0.061 C 
BRANCH  31  32
ATOM     32  C   UNL     1      37.482 -21.192 -16.977  0.00  0.00    +0.142 C 
BRANCH  32  33
ATOM     33  O   UNL     1      37.987 -19.958 -17.472  0.00  0.00    -0.382 OA
ATOM     34  H   UNL     1      38.951 -19.932 -17.353  0.00  0.00    +0.210 HD
ENDBRANCH  32  33
ENDBRANCH  31  32
ENDBRANCH  26  31
ENDBRANCH  22  23
BRANCH  22  35
ATOM     35  O   UNL     1      34.131 -19.616 -22.789  0.00  0.00    -0.382 OA
ATOM     36  H   UNL     1      33.428 -19.627 -22.121  0.00  0.00    +0.211 HD
ENDBRANCH  22  35
ENDBRANCH  21  22
ENDBRANCH   1  21
TORSDOF 12
ENDMDL
MODEL 7
REMARK VINA RESULT:     -10.6      3.331     11.277
REMARK  Name = 9963057
REMARK  12 active torsions:
REMARK  status: ('A' for Active; 'I' for Inactive)
REMARK    1  A    between atoms: N_1  and  C_4
REMARK    2  A    between atoms: N_1  and  C_21
REMARK    3  A    between atoms: C_12  and  O_14
REMARK    4  A    between atoms: O_14  and  C_15
REMARK    5  A    between atoms: C_15  and  C_18
REMARK    6  A    between atoms: C_21  and  C_22
REMARK    7  A    between atoms: C_22  and  C_23
REMARK    8  A    between atoms: C_22  and  O_35
REMARK    9  A    between atoms: C_26  and  C_31
REMARK   10  A    between atoms: C_28  and  O_29
REMARK   11  A    between atoms: C_31  and  C_32
REMARK   12  A    between atoms: C_32  and  O_33
REMARK                            x       y       z     vdW  Elec       q    Type
REMARK                         _______ _______ _______ _____ _____    ______ ____
ROOT
ATOM      1  N   UNL     1      36.660 -19.414 -21.721  0.00  0.00    +0.387 N 
ATOM      2  H   UNL     1      37.203 -20.199 -22.080  0.00  0.00    -0.084 HD
ATOM      3  H   UNL     1      37.271 -18.744 -21.254  0.00  0.00    -0.084 HD
ENDROOT
BRANCH   1   4
ATOM      4  C   UNL     1      35.683 -19.911 -20.752  0.00  0.00    -0.057 C 
ATOM      5  C   UNL     1      34.432 -20.411 -21.477  0.00  0.00    -0.016 C 
ATOM      6  C   UNL     1      36.289 -21.042 -19.912  0.00  0.00    +0.005 C 
ATOM      7  C   UNL     1      33.362 -20.826 -20.467  0.00  0.00    +0.024 C 
ATOM      8  C   UNL     1      35.268 -21.764 -19.067  0.00  0.00    -0.025 C 
ATOM      9  C   UNL     1      33.893 -21.695 -19.354  0.00  0.00    -0.026 C 
ATOM     10  C   UNL     1      35.710 -22.570 -18.006  0.00  0.00    +0.032 C 
ATOM     11  C   UNL     1      32.985 -22.403 -18.554  0.00  0.00    -0.001 C 
ATOM     12  C   UNL     1      34.798 -23.279 -17.224  0.00  0.00    +0.139 C 
ATOM     13  C   UNL     1      33.436 -23.193 -17.497  0.00  0.00    +0.037 C 
BRANCH  12  14
ATOM     14  O   UNL     1      35.239 -24.053 -16.196  0.00  0.00    -0.466 OA
BRANCH  14  15
ATOM     15  C   UNL     1      36.566 -23.817 -15.729  0.00  0.00    +0.290 C 
BRANCH  15  18
ATOM     16  O   UNL     1      36.329 -23.524 -13.390  0.00  0.00    -0.271 OA
ATOM     17  N   UNL     1      37.206 -25.562 -14.075  0.00  0.00    -0.273 N 
ATOM     18  C   UNL     1      36.691 -24.284 -14.293  0.00  0.00    +0.270 C 
ATOM     19  C   UNL     1      37.337 -26.059 -12.711  0.00  0.00    +0.115 C 
ATOM     20  C   UNL     1      37.631 -26.493 -15.117  0.00  0.00    +0.115 C 
ENDBRANCH  15  18
ENDBRANCH  14  15
ENDBRANCH  12  14
ENDBRANCH   1   4
BRANCH   1  21
ATOM     21  C   UNL     1      35.994 -18.746 -22.829  0.00  0.00    -0.047 C 
BRANCH  21  22
ATOM     22  C   UNL     1      36.016 -17.225 -22.641  0.00  0.00    +0.112 C 
BRANCH  22  23
ATOM     23  C   UNL     1      35.199 -16.523 -23.704  0.00  0.00    +0.002 C 
ATOM     24  C   UNL     1      34.692 -15.247 -23.463  0.00  0.00    -0.003 C 
ATOM     25  C   UNL     1      34.952 -17.153 -24.923  0.00  0.00    +0.001 C 
ATOM     26  C   UNL     1      33.938 -14.600 -24.443  0.00  0.00    +0.014 C 
ATOM     27  C   UNL     1      34.197 -16.508 -25.902  0.00  0.00    +0.036 C 
ATOM     28  C   UNL     1      33.690 -15.231 -25.661  0.00  0.00    +0.130 C 
BRANCH  28  29
ATOM     29  O   UNL     1      32.956 -14.613 -26.629  0.00  0.00    -0.506 OA
ATOM     30  H   UNL     1      32.530 -13.799 -26.446  0.00  0.00    +0.292 HD
ENDBRANCH  28  29
BRANCH  26  31
ATOM     31  C   UNL     1      33.402 -13.233 -24.169  0.00  0.00    +0.061 C 
BRANCH  31  32
ATOM     32  C   UNL     1      34.329 -12.120 -24.665  0.00  0.00    +0.142 C 
BRANCH  32  33
ATOM     33  O   UNL     1      34.107 -11.899 -26.052  0.00  0.00    -0.382 OA
ATOM     34  H   UNL     1      34.366 -12.690 -26.552  0.00  0.00    +0.210 HD
ENDBRANCH  32  33
ENDBRANCH  31  32
ENDBRANCH  26  31
ENDBRANCH  22  23
BRANCH  22  35
ATOM     35  O   UNL     1      35.484 -16.874 -21.364  0.00  0.00    -0.382 OA
ATOM     36  H   UNL     1      34.886 -16.117 -21.461  0.00  0.00    +0.211 HD
ENDBRANCH  22  35
ENDBRANCH  21  22
ENDBRANCH   1  21
TORSDOF 12
ENDMDL
MODEL 8
REMARK VINA RESULT:     -10.5      2.027     10.652
REMARK  Name = 9963057
REMARK  12 active torsions:
REMARK  status: ('A' for Active; 'I' for Inactive)
REMARK    1  A    between atoms: N_1  and  C_4
REMARK    2  A    between atoms: N_1  and  C_21
REMARK    3  A    between atoms: C_12  and  O_14
REMARK    4  A    between atoms: O_14  and  C_15
REMARK    5  A    between atoms: C_15  and  C_18
REMARK    6  A    between atoms: C_21  and  C_22
REMARK    7  A    between atoms: C_22  and  C_23
REMARK    8  A    between atoms: C_22  and  O_35
REMARK    9  A    between atoms: C_26  and  C_31
REMARK   10  A    between atoms: C_28  and  O_29
REMARK   11  A    between atoms: C_31  and  C_32
REMARK   12  A    between atoms: C_32  and  O_33
REMARK                            x       y       z     vdW  Elec       q    Type
REMARK                         _______ _______ _______ _____ _____    ______ ____
ROOT
ATOM      1  N   UNL     1      34.952 -19.452 -22.458  0.00  0.00    +0.387 N 
ATOM      2  H   UNL     1      34.319 -18.776 -22.030  0.00  0.00    -0.084 HD
ATOM      3  H   UNL     1      34.495 -19.921 -23.241  0.00  0.00    -0.084 HD
ENDROOT
BRANCH   1   4
ATOM      4  C   UNL     1      35.323 -20.458 -21.463  0.00  0.00    -0.057 C 
ATOM      5  C   UNL     1      36.451 -19.927 -20.576  0.00  0.00    -0.016 C 
ATOM      6  C   UNL     1      34.110 -20.831 -20.601  0.00  0.00    +0.005 C 
ATOM      7  C   UNL     1      36.921 -21.013 -19.607  0.00  0.00    +0.024 C 
ATOM      8  C   UNL     1      34.473 -21.674 -19.402  0.00  0.00    -0.025 C 
ATOM      9  C   UNL     1      35.790 -21.726 -18.910  0.00  0.00    -0.026 C 
ATOM     10  C   UNL     1      33.459 -22.374 -18.730  0.00  0.00    +0.032 C 
ATOM     11  C   UNL     1      36.072 -22.505 -17.778  0.00  0.00    -0.001 C 
ATOM     12  C   UNL     1      33.751 -23.136 -17.599  0.00  0.00    +0.139 C 
ATOM     13  C   UNL     1      35.058 -23.203 -17.125  0.00  0.00    +0.037 C 
BRANCH  12  14
ATOM     14  O   UNL     1      32.759 -23.813 -16.959  0.00  0.00    -0.466 OA
BRANCH  14  15
ATOM     15  C   UNL     1      31.939 -23.068 -16.061  0.00  0.00    +0.290 C 
BRANCH  15  18
ATOM     16  O   UNL     1      30.102 -22.314 -17.354  0.00  0.00    -0.271 OA
ATOM     17  N   UNL     1      29.689 -24.127 -15.962  0.00  0.00    -0.273 N 
ATOM     18  C   UNL     1      30.495 -23.132 -16.516  0.00  0.00    +0.270 C 
ATOM     19  C   UNL     1      28.296 -24.234 -16.375  0.00  0.00    +0.115 C 
ATOM     20  C   UNL     1      30.123 -25.119 -14.981  0.00  0.00    +0.115 C 
ENDBRANCH  15  18
ENDBRANCH  14  15
ENDBRANCH  12  14
ENDBRANCH   1   4
BRANCH   1  21
ATOM     21  C   UNL     1      36.130 -18.757 -22.952  0.00  0.00    -0.047 C 
BRANCH  21  22
ATOM     22  C   UNL     1      36.035 -17.253 -22.670  0.00  0.00    +0.112 C 
BRANCH  22  23
ATOM     23  C   UNL     1      35.210 -16.543 -23.720  0.00  0.00    +0.002 C 
ATOM     24  C   UNL     1      34.685 -15.278 -23.457  0.00  0.00    -0.003 C 
ATOM     25  C   UNL     1      34.973 -17.154 -24.952  0.00  0.00    +0.001 C 
ATOM     26  C   UNL     1      33.924 -14.623 -24.426  0.00  0.00    +0.014 C 
ATOM     27  C   UNL     1      34.212 -16.500 -25.920  0.00  0.00    +0.036 C 
ATOM     28  C   UNL     1      33.687 -15.235 -25.657  0.00  0.00    +0.130 C 
BRANCH  28  29
ATOM     29  O   UNL     1      32.946 -14.609 -26.614  0.00  0.00    -0.506 OA
ATOM     30  H   UNL     1      32.522 -15.111 -27.282  0.00  0.00    +0.292 HD
ENDBRANCH  28  29
BRANCH  26  31
ATOM     31  C   UNL     1      33.370 -13.269 -24.128  0.00  0.00    +0.061 C 
BRANCH  31  32
ATOM     32  C   UNL     1      34.307 -12.136 -24.553  0.00  0.00    +0.142 C 
BRANCH  32  33
ATOM     33  O   UNL     1      34.110 -11.847 -25.931  0.00  0.00    -0.382 OA
ATOM     34  H   UNL     1      34.588 -12.499 -26.470  0.00  0.00    +0.210 HD
ENDBRANCH  32  33
ENDBRANCH  31  32
ENDBRANCH  26  31
ENDBRANCH  22  23
BRANCH  22  35
ATOM     35  O   UNL     1      35.430 -17.025 -21.397  0.00  0.00    -0.382 OA
ATOM     36  H   UNL     1      35.329 -16.071 -21.254  0.00  0.00    +0.211 HD
ENDBRANCH  22  35
ENDBRANCH  21  22
ENDBRANCH   1  21
TORSDOF 12
ENDMDL
MODEL 9
REMARK VINA RESULT:     -10.3      4.454      8.583
REMARK  Name = 9963057
REMARK  12 active torsions:
REMARK  status: ('A' for Active; 'I' for Inactive)
REMARK    1  A    between atoms: N_1  and  C_4
REMARK    2  A    between atoms: N_1  and  C_21
REMARK    3  A    between atoms: C_12  and  O_14
REMARK    4  A    between atoms: O_14  and  C_15
REMARK    5  A    between atoms: C_15  and  C_18
REMARK    6  A    between atoms: C_21  and  C_22
REMARK    7  A    between atoms: C_22  and  C_23
REMARK    8  A    between atoms: C_22  and  O_35
REMARK    9  A    between atoms: C_26  and  C_31
REMARK   10  A    between atoms: C_28  and  O_29
REMARK   11  A    between atoms: C_31  and  C_32
REMARK   12  A    between atoms: C_32  and  O_33
REMARK                            x       y       z     vdW  Elec       q    Type
REMARK                         _______ _______ _______ _____ _____    ______ ____
ROOT
ATOM      1  N   UNL     1      35.713 -16.245 -23.660  0.00  0.00    +0.387 N 
ATOM      2  H   UNL     1      36.157 -16.992 -23.126  0.00  0.00    -0.084 HD
ATOM      3  H   UNL     1      36.393 -15.519 -23.888  0.00  0.00    -0.084 HD
ENDROOT
BRANCH   1   4
ATOM      4  C   UNL     1      34.645 -15.651 -22.857  0.00  0.00    -0.057 C 
ATOM      5  C   UNL     1      35.032 -15.661 -21.377  0.00  0.00    -0.016 C 
ATOM      6  C   UNL     1      34.366 -14.214 -23.316  0.00  0.00    +0.005 C 
ATOM      7  C   UNL     1      33.875 -15.146 -20.521  0.00  0.00    +0.024 C 
ATOM      8  C   UNL     1      33.454 -13.460 -22.379  0.00  0.00    -0.025 C 
ATOM      9  C   UNL     1      33.256 -13.877 -21.050  0.00  0.00    -0.026 C 
ATOM     10  C   UNL     1      32.837 -12.283 -22.830  0.00  0.00    +0.032 C 
ATOM     11  C   UNL     1      32.417 -13.129 -20.210  0.00  0.00    -0.001 C 
ATOM     12  C   UNL     1      32.014 -11.542 -21.982  0.00  0.00    +0.139 C 
ATOM     13  C   UNL     1      31.802 -11.967 -20.673  0.00  0.00    +0.037 C 
BRANCH  12  14
ATOM     14  O   UNL     1      31.419 -10.405 -22.433  0.00  0.00    -0.466 OA
BRANCH  14  15
ATOM     15  C   UNL     1      32.276  -9.341 -22.844  0.00  0.00    +0.290 C 
BRANCH  15  18
ATOM     16  O   UNL     1      32.197  -8.140 -20.803  0.00  0.00    -0.271 OA
ATOM     17  N   UNL     1      31.498  -6.983 -22.691  0.00  0.00    -0.273 N 
ATOM     18  C   UNL     1      31.985  -8.105 -22.019  0.00  0.00    +0.270 C 
ATOM     19  C   UNL     1      31.212  -5.766 -21.942  0.00  0.00    +0.115 C 
ATOM     20  C   UNL     1      31.249  -6.899 -24.128  0.00  0.00    +0.115 C 
ENDBRANCH  15  18
ENDBRANCH  14  15
ENDBRANCH  12  14
ENDBRANCH   1   4
BRANCH   1  21
ATOM     21  C   UNL     1      35.183 -16.793 -24.899  0.00  0.00    -0.047 C 
BRANCH  21  22
ATOM     22  C   UNL     1      35.095 -18.322 -24.825  0.00  0.00    +0.112 C 
BRANCH  22  23
ATOM     23  C   UNL     1      35.511 -18.836 -23.464  0.00  0.00    +0.002 C 
ATOM     24  C   UNL     1      34.564 -19.418 -22.621  0.00  0.00    -0.003 C 
ATOM     25  C   UNL     1      36.839 -18.728 -23.053  0.00  0.00    +0.001 C 
ATOM     26  C   UNL     1      34.947 -19.891 -21.365  0.00  0.00    +0.014 C 
ATOM     27  C   UNL     1      37.221 -19.200 -21.797  0.00  0.00    +0.036 C 
ATOM     28  C   UNL     1      36.275 -19.781 -20.954  0.00  0.00    +0.130 C 
BRANCH  28  29
ATOM     29  O   UNL     1      36.665 -20.240 -19.731  0.00  0.00    -0.506 OA
ATOM     30  H   UNL     1      36.304 -19.863 -18.952  0.00  0.00    +0.292 HD
ENDBRANCH  28  29
BRANCH  26  31
ATOM     31  C   UNL     1      33.921 -20.512 -20.475  0.00  0.00    +0.061 C 
BRANCH  31  32
ATOM     32  C   UNL     1      34.197 -21.990 -20.189  0.00  0.00    +0.142 C 
BRANCH  32  33
ATOM     33  O   UNL     1      33.138 -22.530 -19.408  0.00  0.00    -0.382 OA
ATOM     34  H   UNL     1      32.450 -22.882 -19.996  0.00  0.00    +0.210 HD
ENDBRANCH  32  33
ENDBRANCH  31  32
ENDBRANCH  26  31
ENDBRANCH  22  23
BRANCH  22  35
ATOM     35  O   UNL     1      33.759 -18.756 -25.078  0.00  0.00    -0.382 OA
ATOM     36  H   UNL     1      33.473 -19.350 -24.367  0.00  0.00    +0.211 HD
ENDBRANCH  22  35
ENDBRANCH  21  22
ENDBRANCH   1  21
TORSDOF 12
ENDMDL
