MODEL 1
REMARK VINA RESULT:     -12.4      0.000      0.000
REMARK  Name = 9969613
REMARK  5 active torsions:
REMARK  status: ('A' for Active; 'I' for Inactive)
REMARK    1  A    between atoms: C_3  and  O_7
REMARK    2  A    between atoms: C_4  and  O_17
REMARK    3  A    between atoms: O_7  and  C_13
REMARK    4  A    between atoms: O_17  and  C_21
REMARK    5  A    between atoms: C_18  and  N_24
REMARK                            x       y       z     vdW  Elec       q    Type
REMARK                         _______ _______ _______ _____ _____    ______ ____
ROOT
ATOM      1  N   UNL     1      35.970 -17.583 -22.843  0.00  0.00    -0.283 NA
ATOM      2  N   UNL     1      34.792 -17.432 -24.940  0.00  0.00    -0.151 NA
ATOM      3  C   UNL     1      35.740 -18.906 -22.868  0.00  0.00    +0.296 C 
ATOM      4  C   UNL     1      35.473 -16.913 -23.901  0.00  0.00    +0.260 C 
ATOM      5  C   UNL     1      35.062 -19.567 -23.862  0.00  0.00    +0.094 C 
ATOM      6  C   UNL     1      34.604 -18.768 -24.888  0.00  0.00    +0.119 C 
ENDROOT
BRANCH   3   7
ATOM      7  O   UNL     1      36.233 -19.638 -21.800  0.00  0.00    -0.427 OA
BRANCH   7  13
ATOM      8  O   UNL     1      35.087 -22.977 -18.515  0.00  0.00    -0.435 OA
ATOM      9  O   UNL     1      32.742 -22.449 -18.670  0.00  0.00    -0.435 OA
ATOM     10  C   UNL     1      34.840 -21.982 -19.409  0.00  0.00    +0.179 C 
ATOM     11  C   UNL     1      33.500 -21.680 -19.498  0.00  0.00    +0.177 C 
ATOM     12  C   UNL     1      35.785 -21.319 -20.165  0.00  0.00    +0.078 C 
ATOM     13  C   UNL     1      35.337 -20.320 -21.034  0.00  0.00    +0.151 C 
ATOM     14  C   UNL     1      33.032 -20.698 -20.348  0.00  0.00    +0.043 C 
ATOM     15  C   UNL     1      33.754 -23.268 -18.051  0.00  0.00    +0.429 C 
ATOM     16  C   UNL     1      33.969 -20.013 -21.125  0.00  0.00    +0.041 C 
ENDBRANCH   7  13
ENDBRANCH   3   7
BRANCH   4  17
ATOM     17  O   UNL     1      35.684 -15.554 -23.921  0.00  0.00    -0.383 OA
BRANCH  17  21
ATOM     18  C   UNL     1      33.064 -13.197 -21.728  0.00  0.00    +0.057 C 
ATOM     19  C   UNL     1      33.156 -13.036 -23.111  0.00  0.00    +0.018 C 
ATOM     20  C   UNL     1      33.852 -14.150 -21.082  0.00  0.00    +0.018 C 
ATOM     21  C   UNL     1      34.814 -14.772 -23.193  0.00  0.00    +0.160 C 
ATOM     22  C   UNL     1      34.037 -13.829 -23.847  0.00  0.00    +0.040 C 
ATOM     23  C   UNL     1      34.732 -14.942 -21.820  0.00  0.00    +0.040 C 
BRANCH  18  24
ATOM     24  N   UNL     1      32.191 -12.412 -20.998  0.00  0.00    -0.246 N 
ATOM     25  N   UNL     1      31.198 -11.474 -19.236  0.00  0.00    -0.224 NA
ATOM     26  C   UNL     1      31.216 -11.589 -21.500  0.00  0.00    +0.092 C 
ATOM     27  C   UNL     1      32.138 -12.305 -19.631  0.00  0.00    +0.172 C 
ATOM     28  C   UNL     1      30.619 -11.025 -20.396  0.00  0.00    +0.117 C 
ENDBRANCH  18  24
ENDBRANCH  17  21
ENDBRANCH   4  17
TORSDOF 5
ENDMDL
MODEL 2
REMARK VINA RESULT:     -12.1      4.195      7.924
REMARK  Name = 9969613
REMARK  5 active torsions:
REMARK  status: ('A' for Active; 'I' for Inactive)
REMARK    1  A    between atoms: C_3  and  O_7
REMARK    2  A    between atoms: C_4  and  O_17
REMARK    3  A    between atoms: O_7  and  C_13
REMARK    4  A    between atoms: O_17  and  C_21
REMARK    5  A    between atoms: C_18  and  N_24
REMARK                            x       y       z     vdW  Elec       q    Type
REMARK                         _______ _______ _______ _____ _____    ______ ____
ROOT
ATOM      1  N   UNL     1      34.877 -23.222 -17.103  0.00  0.00    -0.283 NA
ATOM      2  N   UNL     1      32.571 -23.156 -17.804  0.00  0.00    -0.151 NA
ATOM      3  C   UNL     1      34.440 -23.156 -15.835  0.00  0.00    +0.296 C 
ATOM      4  C   UNL     1      33.898 -23.218 -18.029  0.00  0.00    +0.260 C 
ATOM      5  C   UNL     1      33.121 -23.089 -15.461  0.00  0.00    +0.094 C 
ATOM      6  C   UNL     1      32.217 -23.093 -16.503  0.00  0.00    +0.119 C 
ENDROOT
BRANCH   3   7
ATOM      7  O   UNL     1      35.411 -23.157 -14.847  0.00  0.00    -0.427 OA
BRANCH   7  13
ATOM      8  O   UNL     1      39.998 -24.644 -14.899  0.00  0.00    -0.435 OA
ATOM      9  O   UNL     1      39.337 -26.956 -15.046  0.00  0.00    -0.435 OA
ATOM     10  C   UNL     1      38.646 -24.794 -14.920  0.00  0.00    +0.179 C 
ATOM     11  C   UNL     1      38.268 -26.115 -15.003  0.00  0.00    +0.177 C 
ATOM     12  C   UNL     1      37.717 -23.776 -14.866  0.00  0.00    +0.078 C 
ATOM     13  C   UNL     1      36.365 -24.128 -14.899  0.00  0.00    +0.151 C 
ATOM     14  C   UNL     1      36.940 -26.490 -15.037  0.00  0.00    +0.043 C 
ATOM     15  C   UNL     1      40.429 -26.017 -14.979  0.00  0.00    +0.429 C 
ATOM     16  C   UNL     1      35.979 -25.477 -14.985  0.00  0.00    +0.041 C 
ENDBRANCH   7  13
ENDBRANCH   3   7
BRANCH   4  17
ATOM     17  O   UNL     1      34.296 -23.284 -19.344  0.00  0.00    -0.383 OA
BRANCH  17  21
ATOM     18  C   UNL     1      35.001 -19.687 -21.293  0.00  0.00    +0.057 C 
ATOM     19  C   UNL     1      36.072 -20.464 -20.853  0.00  0.00    +0.018 C 
ATOM     20  C   UNL     1      33.691 -20.119 -21.078  0.00  0.00    +0.018 C 
ATOM     21  C   UNL     1      34.529 -22.090 -19.991  0.00  0.00    +0.160 C 
ATOM     22  C   UNL     1      35.835 -21.673 -20.198  0.00  0.00    +0.040 C 
ATOM     23  C   UNL     1      33.455 -21.328 -20.423  0.00  0.00    +0.040 C 
BRANCH  18  24
ATOM     24  N   UNL     1      35.235 -18.489 -21.942  0.00  0.00    -0.246 N 
ATOM     25  N   UNL     1      35.492 -16.298 -22.256  0.00  0.00    -0.224 NA
ATOM     26  C   UNL     1      35.518 -18.323 -23.274  0.00  0.00    +0.092 C 
ATOM     27  C   UNL     1      35.232 -17.239 -21.376  0.00  0.00    +0.172 C 
ATOM     28  C   UNL     1      35.671 -16.966 -23.441  0.00  0.00    +0.117 C 
ENDBRANCH  18  24
ENDBRANCH  17  21
ENDBRANCH   4  17
TORSDOF 5
ENDMDL
MODEL 3
REMARK VINA RESULT:     -11.8      4.082      7.847
REMARK  Name = 9969613
REMARK  5 active torsions:
REMARK  status: ('A' for Active; 'I' for Inactive)
REMARK    1  A    between atoms: C_3  and  O_7
REMARK    2  A    between atoms: C_4  and  O_17
REMARK    3  A    between atoms: O_7  and  C_13
REMARK    4  A    between atoms: O_17  and  C_21
REMARK    5  A    between atoms: C_18  and  N_24
REMARK                            x       y       z     vdW  Elec       q    Type
REMARK                         _______ _______ _______ _____ _____    ______ ____
ROOT
ATOM      1  N   UNL     1      33.599 -23.361 -16.837  0.00  0.00    -0.283 NA
ATOM      2  N   UNL     1      35.938 -22.849 -17.119  0.00  0.00    -0.151 NA
ATOM      3  C   UNL     1      33.780 -23.220 -15.514  0.00  0.00    +0.296 C 
ATOM      4  C   UNL     1      34.709 -23.164 -17.574  0.00  0.00    +0.260 C 
ATOM      5  C   UNL     1      34.974 -22.902 -14.915  0.00  0.00    +0.094 C 
ATOM      6  C   UNL     1      36.034 -22.725 -15.778  0.00  0.00    +0.119 C 
ENDROOT
BRANCH   3   7
ATOM      7  O   UNL     1      32.666 -23.414 -14.714  0.00  0.00    -0.427 OA
BRANCH   7  13
ATOM      8  O   UNL     1      28.764 -22.120 -17.234  0.00  0.00    -0.435 OA
ATOM      9  O   UNL     1      27.909 -24.372 -17.230  0.00  0.00    -0.435 OA
ATOM     10  C   UNL     1      29.584 -22.982 -16.575  0.00  0.00    +0.179 C 
ATOM     11  C   UNL     1      29.096 -24.270 -16.573  0.00  0.00    +0.177 C 
ATOM     12  C   UNL     1      30.777 -22.658 -15.962  0.00  0.00    +0.078 C 
ATOM     13  C   UNL     1      31.484 -23.686 -15.332  0.00  0.00    +0.151 C 
ATOM     14  C   UNL     1      29.774 -25.303 -15.958  0.00  0.00    +0.043 C 
ATOM     15  C   UNL     1      27.706 -23.006 -17.647  0.00  0.00    +0.429 C 
ATOM     16  C   UNL     1      30.984 -25.000 -15.329  0.00  0.00    +0.041 C 
ENDBRANCH   7  13
ENDBRANCH   3   7
BRANCH   4  17
ATOM     17  O   UNL     1      34.574 -23.297 -18.936  0.00  0.00    -0.383 OA
BRANCH  17  21
ATOM     18  C   UNL     1      35.082 -19.876 -21.233  0.00  0.00    +0.057 C 
ATOM     19  C   UNL     1      36.194 -20.609 -20.817  0.00  0.00    +0.018 C 
ATOM     20  C   UNL     1      33.799 -20.293 -20.876  0.00  0.00    +0.018 C 
ATOM     21  C   UNL     1      34.743 -22.161 -19.699  0.00  0.00    +0.160 C 
ATOM     22  C   UNL     1      36.023 -21.758 -20.046  0.00  0.00    +0.040 C 
ATOM     23  C   UNL     1      33.629 -21.443 -20.105  0.00  0.00    +0.040 C 
BRANCH  18  24
ATOM     24  N   UNL     1      35.251 -18.737 -21.998  0.00  0.00    -0.246 N 
ATOM     25  N   UNL     1      35.547 -16.587 -22.508  0.00  0.00    -0.224 NA
ATOM     26  C   UNL     1      35.299 -18.671 -23.367  0.00  0.00    +0.092 C 
ATOM     27  C   UNL     1      35.406 -17.456 -21.532  0.00  0.00    +0.172 C 
ATOM     28  C   UNL     1      35.481 -17.339 -23.655  0.00  0.00    +0.117 C 
ENDBRANCH  18  24
ENDBRANCH  17  21
ENDBRANCH   4  17
TORSDOF 5
ENDMDL
MODEL 4
REMARK VINA RESULT:     -11.0      6.707     10.400
REMARK  Name = 9969613
REMARK  5 active torsions:
REMARK  status: ('A' for Active; 'I' for Inactive)
REMARK    1  A    between atoms: C_3  and  O_7
REMARK    2  A    between atoms: C_4  and  O_17
REMARK    3  A    between atoms: O_7  and  C_13
REMARK    4  A    between atoms: O_17  and  C_21
REMARK    5  A    between atoms: C_18  and  N_24
REMARK                            x       y       z     vdW  Elec       q    Type
REMARK                         _______ _______ _______ _____ _____    ______ ____
ROOT
ATOM      1  N   UNL     1      34.542 -24.411 -14.761  0.00  0.00    -0.283 NA
ATOM      2  N   UNL     1      34.954 -24.073 -12.410  0.00  0.00    -0.151 NA
ATOM      3  C   UNL     1      35.756 -23.889 -14.997  0.00  0.00    +0.296 C 
ATOM      4  C   UNL     1      34.208 -24.473 -13.457  0.00  0.00    +0.260 C 
ATOM      5  C   UNL     1      36.620 -23.442 -14.029  0.00  0.00    +0.094 C 
ATOM      6  C   UNL     1      36.160 -23.560 -12.734  0.00  0.00    +0.119 C 
ENDROOT
BRANCH   3   7
ATOM      7  O   UNL     1      36.143 -23.804 -16.324  0.00  0.00    -0.427 OA
BRANCH   7  13
ATOM      8  O   UNL     1      35.164 -20.924 -20.066  0.00  0.00    -0.435 OA
ATOM      9  O   UNL     1      32.800 -21.360 -19.893  0.00  0.00    -0.435 OA
ATOM     10  C   UNL     1      34.869 -21.778 -19.048  0.00  0.00    +0.179 C 
ATOM     11  C   UNL     1      33.519 -22.028 -18.949  0.00  0.00    +0.177 C 
ATOM     12  C   UNL     1      35.778 -22.355 -18.186  0.00  0.00    +0.078 C 
ATOM     13  C   UNL     1      35.284 -23.211 -17.198  0.00  0.00    +0.151 C 
ATOM     14  C   UNL     1      33.005 -22.868 -17.983  0.00  0.00    +0.043 C 
ATOM     15  C   UNL     1      33.849 -20.664 -20.596  0.00  0.00    +0.429 C 
ATOM     16  C   UNL     1      33.905 -23.465 -17.097  0.00  0.00    +0.041 C 
ENDBRANCH   7  13
ENDBRANCH   3   7
BRANCH   4  17
ATOM     17  O   UNL     1      32.972 -25.003 -13.164  0.00  0.00    -0.383 OA
BRANCH  17  21
ATOM     18  C   UNL     1      29.767 -23.720 -15.469  0.00  0.00    +0.057 C 
ATOM     19  C   UNL     1      30.658 -22.790 -14.934  0.00  0.00    +0.018 C 
ATOM     20  C   UNL     1      29.954 -25.082 -15.230  0.00  0.00    +0.018 C 
ATOM     21  C   UNL     1      31.908 -24.577 -13.930  0.00  0.00    +0.160 C 
ATOM     22  C   UNL     1      31.735 -23.221 -14.160  0.00  0.00    +0.040 C 
ATOM     23  C   UNL     1      31.031 -25.513 -14.455  0.00  0.00    +0.040 C 
BRANCH  18  24
ATOM     24  N   UNL     1      28.700 -23.293 -16.237  0.00  0.00    -0.246 N 
ATOM     25  N   UNL     1      27.315 -23.113 -17.975  0.00  0.00    -0.224 NA
ATOM     26  C   UNL     1      27.739 -22.386 -15.870  0.00  0.00    +0.092 C 
ATOM     27  C   UNL     1      28.397 -23.700 -17.512  0.00  0.00    +0.172 C 
ATOM     28  C   UNL     1      26.900 -22.293 -16.956  0.00  0.00    +0.117 C 
ENDBRANCH  18  24
ENDBRANCH  17  21
ENDBRANCH   4  17
TORSDOF 5
ENDMDL
MODEL 5
REMARK VINA RESULT:     -10.9      3.131      8.925
REMARK  Name = 9969613
REMARK  5 active torsions:
REMARK  status: ('A' for Active; 'I' for Inactive)
REMARK    1  A    between atoms: C_3  and  O_7
REMARK    2  A    between atoms: C_4  and  O_17
REMARK    3  A    between atoms: O_7  and  C_13
REMARK    4  A    between atoms: O_17  and  C_21
REMARK    5  A    between atoms: C_18  and  N_24
REMARK                            x       y       z     vdW  Elec       q    Type
REMARK                         _______ _______ _______ _____ _____    ______ ____
ROOT
ATOM      1  N   UNL     1      34.905 -15.736 -23.505  0.00  0.00    -0.283 NA
ATOM      2  N   UNL     1      34.870 -16.458 -25.804  0.00  0.00    -0.151 NA
ATOM      3  C   UNL     1      33.976 -14.823 -23.830  0.00  0.00    +0.296 C 
ATOM      4  C   UNL     1      35.304 -16.513 -24.531  0.00  0.00    +0.260 C 
ATOM      5  C   UNL     1      33.445 -14.656 -25.085  0.00  0.00    +0.094 C 
ATOM      6  C   UNL     1      33.936 -15.513 -26.047  0.00  0.00    +0.119 C 
ENDROOT
BRANCH   3   7
ATOM      7  O   UNL     1      33.535 -14.000 -22.807  0.00  0.00    -0.427 OA
BRANCH   7  13
ATOM      8  O   UNL     1      31.453  -9.697 -22.173  0.00  0.00    -0.435 OA
ATOM      9  O   UNL     1      32.901  -8.661 -23.797  0.00  0.00    -0.435 OA
ATOM     10  C   UNL     1      32.334 -10.579 -22.717  0.00  0.00    +0.179 C 
ATOM     11  C   UNL     1      33.162  -9.988 -23.644  0.00  0.00    +0.177 C 
ATOM     12  C   UNL     1      32.430 -11.921 -22.411  0.00  0.00    +0.078 C 
ATOM     13  C   UNL     1      33.403 -12.672 -23.077  0.00  0.00    +0.151 C 
ATOM     14  C   UNL     1      34.130 -10.706 -24.316  0.00  0.00    +0.043 C 
ATOM     15  C   UNL     1      31.818  -8.484 -22.861  0.00  0.00    +0.429 C 
ATOM     16  C   UNL     1      34.247 -12.068 -24.024  0.00  0.00    +0.041 C 
ENDBRANCH   7  13
ENDBRANCH   3   7
BRANCH   4  17
ATOM     17  O   UNL     1      36.255 -17.465 -24.247  0.00  0.00    -0.383 OA
BRANCH  17  21
ATOM     18  C   UNL     1      35.382 -20.176 -21.227  0.00  0.00    +0.057 C 
ATOM     19  C   UNL     1      36.588 -19.476 -21.208  0.00  0.00    +0.018 C 
ATOM     20  C   UNL     1      34.469 -19.965 -22.261  0.00  0.00    +0.018 C 
ATOM     21  C   UNL     1      35.965 -18.365 -23.244  0.00  0.00    +0.160 C 
ATOM     22  C   UNL     1      36.881 -18.564 -22.223  0.00  0.00    +0.040 C 
ATOM     23  C   UNL     1      34.763 -19.054 -23.275  0.00  0.00    +0.040 C 
BRANCH  18  24
ATOM     24  N   UNL     1      35.090 -21.079 -20.221  0.00  0.00    -0.246 N 
ATOM     25  N   UNL     1      35.401 -22.481 -18.517  0.00  0.00    -0.224 NA
ATOM     26  C   UNL     1      33.848 -21.555 -19.885  0.00  0.00    +0.092 C 
ATOM     27  C   UNL     1      35.988 -21.668 -19.367  0.00  0.00    +0.172 C 
ATOM     28  C   UNL     1      34.067 -22.415 -18.834  0.00  0.00    +0.117 C 
ENDBRANCH  18  24
ENDBRANCH  17  21
ENDBRANCH   4  17
TORSDOF 5
ENDMDL
MODEL 6
REMARK VINA RESULT:     -10.9      4.029      7.098
REMARK  Name = 9969613
REMARK  5 active torsions:
REMARK  status: ('A' for Active; 'I' for Inactive)
REMARK    1  A    between atoms: C_3  and  O_7
REMARK    2  A    between atoms: C_4  and  O_17
REMARK    3  A    between atoms: O_7  and  C_13
REMARK    4  A    between atoms: O_17  and  C_21
REMARK    5  A    between atoms: C_18  and  N_24
REMARK                            x       y       z     vdW  Elec       q    Type
REMARK                         _______ _______ _______ _____ _____    ______ ____
ROOT
ATOM      1  N   UNL     1      36.328 -21.879 -17.843  0.00  0.00    -0.283 NA
ATOM      2  N   UNL     1      34.979 -22.059 -19.832  0.00  0.00    -0.151 NA
ATOM      3  C   UNL     1      35.413 -22.636 -17.215  0.00  0.00    +0.296 C 
ATOM      4  C   UNL     1      36.051 -21.632 -19.137  0.00  0.00    +0.260 C 
ATOM      5  C   UNL     1      34.277 -23.138 -17.798  0.00  0.00    +0.094 C 
ATOM      6  C   UNL     1      34.108 -22.813 -19.128  0.00  0.00    +0.119 C 
ENDROOT
BRANCH   3   7
ATOM      7  O   UNL     1      35.655 -22.917 -15.881  0.00  0.00    -0.427 OA
BRANCH   7  13
ATOM      8  O   UNL     1      40.005 -24.782 -14.954  0.00  0.00    -0.435 OA
ATOM      9  O   UNL     1      39.099 -27.004 -14.729  0.00  0.00    -0.435 OA
ATOM     10  C   UNL     1      38.658 -24.812 -15.144  0.00  0.00    +0.179 C 
ATOM     11  C   UNL     1      38.139 -26.081 -15.014  0.00  0.00    +0.177 C 
ATOM     12  C   UNL     1      37.856 -23.728 -15.434  0.00  0.00    +0.078 C 
ATOM     13  C   UNL     1      36.486 -23.957 -15.594  0.00  0.00    +0.151 C 
ATOM     14  C   UNL     1      36.792 -26.335 -15.169  0.00  0.00    +0.043 C 
ATOM     15  C   UNL     1      40.277 -26.173 -14.691  0.00  0.00    +0.429 C 
ATOM     16  C   UNL     1      35.958 -25.253 -15.463  0.00  0.00    +0.041 C 
ENDBRANCH   7  13
ENDBRANCH   3   7
BRANCH   4  17
ATOM     17  O   UNL     1      36.960 -20.861 -19.824  0.00  0.00    -0.383 OA
BRANCH  17  21
ATOM     18  C   UNL     1      35.515 -18.599 -22.991  0.00  0.00    +0.057 C 
ATOM     19  C   UNL     1      34.658 -19.450 -22.294  0.00  0.00    +0.018 C 
ATOM     20  C   UNL     1      36.858 -18.507 -22.623  0.00  0.00    +0.018 C 
ATOM     21  C   UNL     1      36.481 -20.109 -20.875  0.00  0.00    +0.160 C 
ATOM     22  C   UNL     1      35.144 -20.210 -21.229  0.00  0.00    +0.040 C 
ATOM     23  C   UNL     1      37.343 -19.267 -21.559  0.00  0.00    +0.040 C 
BRANCH  18  24
ATOM     24  N   UNL     1      35.035 -17.845 -24.045  0.00  0.00    -0.246 N 
ATOM     25  N   UNL     1      34.020 -17.347 -25.966  0.00  0.00    -0.224 NA
ATOM     26  C   UNL     1      35.154 -16.488 -24.201  0.00  0.00    +0.092 C 
ATOM     27  C   UNL     1      34.344 -18.312 -25.135  0.00  0.00    +0.172 C 
ATOM     28  C   UNL     1      34.522 -16.207 -25.390  0.00  0.00    +0.117 C 
ENDBRANCH  18  24
ENDBRANCH  17  21
ENDBRANCH   4  17
TORSDOF 5
ENDMDL
MODEL 7
REMARK VINA RESULT:     -10.8      2.709      8.117
REMARK  Name = 9969613
REMARK  5 active torsions:
REMARK  status: ('A' for Active; 'I' for Inactive)
REMARK    1  A    between atoms: C_3  and  O_7
REMARK    2  A    between atoms: C_4  and  O_17
REMARK    3  A    between atoms: O_7  and  C_13
REMARK    4  A    between atoms: O_17  and  C_21
REMARK    5  A    between atoms: C_18  and  N_24
REMARK                            x       y       z     vdW  Elec       q    Type
REMARK                         _______ _______ _______ _____ _____    ______ ____
ROOT
ATOM      1  N   UNL     1      36.075 -17.374 -22.960  0.00  0.00    -0.283 NA
ATOM      2  N   UNL     1      35.314 -19.458 -23.901  0.00  0.00    -0.151 NA
ATOM      3  C   UNL     1      35.321 -16.744 -23.875  0.00  0.00    +0.296 C 
ATOM      4  C   UNL     1      36.025 -18.718 -23.029  0.00  0.00    +0.260 C 
ATOM      5  C   UNL     1      34.549 -17.370 -24.821  0.00  0.00    +0.094 C 
ATOM      6  C   UNL     1      34.584 -18.748 -24.788  0.00  0.00    +0.119 C 
ENDROOT
BRANCH   3   7
ATOM      7  O   UNL     1      35.341 -15.359 -23.843  0.00  0.00    -0.427 OA
BRANCH   7  13
ATOM      8  O   UNL     1      32.079 -12.060 -22.527  0.00  0.00    -0.435 OA
ATOM      9  O   UNL     1      32.154 -12.778 -20.228  0.00  0.00    -0.435 OA
ATOM     10  C   UNL     1      32.948 -13.089 -22.336  0.00  0.00    +0.179 C 
ATOM     11  C   UNL     1      32.991 -13.500 -21.022  0.00  0.00    +0.177 C 
ATOM     12  C   UNL     1      33.721 -13.689 -23.308  0.00  0.00    +0.078 C 
ATOM     13  C   UNL     1      34.559 -14.737 -22.918  0.00  0.00    +0.151 C 
ATOM     14  C   UNL     1      33.810 -14.532 -20.610  0.00  0.00    +0.043 C 
ATOM     15  C   UNL     1      31.579 -11.869 -21.189  0.00  0.00    +0.429 C 
ATOM     16  C   UNL     1      34.603 -15.155 -21.577  0.00  0.00    +0.041 C 
ENDBRANCH   7  13
ENDBRANCH   3   7
BRANCH   4  17
ATOM     17  O   UNL     1      36.780 -19.409 -22.110  0.00  0.00    -0.383 OA
BRANCH  17  21
ATOM     18  C   UNL     1      34.735 -21.643 -19.271  0.00  0.00    +0.057 C 
ATOM     19  C   UNL     1      36.130 -21.643 -19.287  0.00  0.00    +0.018 C 
ATOM     20  C   UNL     1      34.027 -20.891 -20.209  0.00  0.00    +0.018 C 
ATOM     21  C   UNL     1      36.101 -20.151 -21.167  0.00  0.00    +0.160 C 
ATOM     22  C   UNL     1      36.817 -20.892 -20.241  0.00  0.00    +0.040 C 
ATOM     23  C   UNL     1      34.715 -20.140 -21.163  0.00  0.00    +0.040 C 
BRANCH  18  24
ATOM     24  N   UNL     1      34.054 -22.386 -18.325  0.00  0.00    -0.246 N 
ATOM     25  N   UNL     1      32.350 -23.310 -17.224  0.00  0.00    -0.224 NA
ATOM     26  C   UNL     1      34.607 -23.116 -17.305  0.00  0.00    +0.092 C 
ATOM     27  C   UNL     1      32.693 -22.538 -18.231  0.00  0.00    +0.172 C 
ATOM     28  C   UNL     1      33.539 -23.673 -16.642  0.00  0.00    +0.117 C 
ENDBRANCH  18  24
ENDBRANCH  17  21
ENDBRANCH   4  17
TORSDOF 5
ENDMDL
MODEL 8
REMARK VINA RESULT:     -10.7      2.929      4.926
REMARK  Name = 9969613
REMARK  5 active torsions:
REMARK  status: ('A' for Active; 'I' for Inactive)
REMARK    1  A    between atoms: C_3  and  O_7
REMARK    2  A    between atoms: C_4  and  O_17
REMARK    3  A    between atoms: O_7  and  C_13
REMARK    4  A    between atoms: O_17  and  C_21
REMARK    5  A    between atoms: C_18  and  N_24
REMARK                            x       y       z     vdW  Elec       q    Type
REMARK                         _______ _______ _______ _____ _____    ______ ____
ROOT
ATOM      1  N   UNL     1      35.812 -21.111 -20.189  0.00  0.00    -0.283 NA
ATOM      2  N   UNL     1      34.046 -19.861 -21.251  0.00  0.00    -0.151 NA
ATOM      3  C   UNL     1      34.862 -21.836 -19.577  0.00  0.00    +0.296 C 
ATOM      4  C   UNL     1      35.339 -20.150 -21.005  0.00  0.00    +0.260 C 
ATOM      5  C   UNL     1      33.511 -21.652 -19.734  0.00  0.00    +0.094 C 
ATOM      6  C   UNL     1      33.155 -20.636 -20.596  0.00  0.00    +0.119 C 
ENDROOT
BRANCH   3   7
ATOM      7  O   UNL     1      35.302 -22.838 -18.727  0.00  0.00    -0.427 OA
BRANCH   7  13
ATOM      8  O   UNL     1      31.263 -23.827 -16.284  0.00  0.00    -0.435 OA
ATOM      9  O   UNL     1      32.401 -23.661 -14.167  0.00  0.00    -0.435 OA
ATOM     10  C   UNL     1      32.583 -23.530 -16.429  0.00  0.00    +0.179 C 
ATOM     11  C   UNL     1      33.234 -23.435 -15.219  0.00  0.00    +0.177 C 
ATOM     12  C   UNL     1      33.244 -23.336 -17.624  0.00  0.00    +0.078 C 
ATOM     13  C   UNL     1      34.608 -23.037 -17.572  0.00  0.00    +0.151 C 
ATOM     14  C   UNL     1      34.580 -23.141 -15.140  0.00  0.00    +0.043 C 
ATOM     15  C   UNL     1      31.155 -23.909 -14.849  0.00  0.00    +0.429 C 
ATOM     16  C   UNL     1      35.271 -22.939 -16.337  0.00  0.00    +0.041 C 
ENDBRANCH   7  13
ENDBRANCH   3   7
BRANCH   4  17
ATOM     17  O   UNL     1      36.274 -19.381 -21.656  0.00  0.00    -0.383 OA
BRANCH  17  21
ATOM     18  C   UNL     1      34.859 -16.281 -24.027  0.00  0.00    +0.057 C 
ATOM     19  C   UNL     1      35.171 -16.048 -22.687  0.00  0.00    +0.018 C 
ATOM     20  C   UNL     1      35.024 -17.555 -24.570  0.00  0.00    +0.018 C 
ATOM     21  C   UNL     1      35.805 -18.351 -22.444  0.00  0.00    +0.160 C 
ATOM     22  C   UNL     1      35.646 -17.090 -21.891  0.00  0.00    +0.040 C 
ATOM     23  C   UNL     1      35.499 -18.597 -23.773  0.00  0.00    +0.040 C 
BRANCH  18  24
ATOM     24  N   UNL     1      34.388 -15.249 -24.817  0.00  0.00    -0.246 N 
ATOM     25  N   UNL     1      33.796 -13.189 -25.431  0.00  0.00    -0.224 NA
ATOM     26  C   UNL     1      33.945 -15.346 -26.111  0.00  0.00    +0.092 C 
ATOM     27  C   UNL     1      34.278 -13.929 -24.457  0.00  0.00    +0.172 C 
ATOM     28  C   UNL     1      33.586 -14.067 -26.465  0.00  0.00    +0.117 C 
ENDBRANCH  18  24
ENDBRANCH  17  21
ENDBRANCH   4  17
TORSDOF 5
ENDMDL
MODEL 9
REMARK VINA RESULT:     -10.7      4.040      9.398
REMARK  Name = 9969613
REMARK  5 active torsions:
REMARK  status: ('A' for Active; 'I' for Inactive)
REMARK    1  A    between atoms: C_3  and  O_7
REMARK    2  A    between atoms: C_4  and  O_17
REMARK    3  A    between atoms: O_7  and  C_13
REMARK    4  A    between atoms: O_17  and  C_21
REMARK    5  A    between atoms: C_18  and  N_24
REMARK                            x       y       z     vdW  Elec       q    Type
REMARK                         _______ _______ _______ _____ _____    ______ ____
ROOT
ATOM      1  N   UNL     1      36.491 -19.747 -20.727  0.00  0.00    -0.283 NA
ATOM      2  N   UNL     1      34.695 -21.249 -20.157  0.00  0.00    -0.151 NA
ATOM      3  C   UNL     1      35.582 -18.974 -21.342  0.00  0.00    +0.296 C 
ATOM      4  C   UNL     1      35.984 -20.859 -20.161  0.00  0.00    +0.260 C 
ATOM      5  C   UNL     1      34.239 -19.249 -21.416  0.00  0.00    +0.094 C 
ATOM      6  C   UNL     1      33.846 -20.417 -20.797  0.00  0.00    +0.119 C 
ENDROOT
BRANCH   3   7
ATOM      7  O   UNL     1      36.057 -17.818 -21.940  0.00  0.00    -0.427 OA
BRANCH   7  13
ATOM      8  O   UNL     1      34.245 -14.514 -24.949  0.00  0.00    -0.435 OA
ATOM      9  O   UNL     1      33.803 -16.172 -26.640  0.00  0.00    -0.435 OA
ATOM     10  C   UNL     1      34.615 -15.763 -24.557  0.00  0.00    +0.179 C 
ATOM     11  C   UNL     1      34.363 -16.711 -25.523  0.00  0.00    +0.177 C 
ATOM     12  C   UNL     1      35.182 -16.097 -23.344  0.00  0.00    +0.078 C 
ATOM     13  C   UNL     1      35.496 -17.441 -23.122  0.00  0.00    +0.151 C 
ATOM     14  C   UNL     1      34.663 -18.044 -25.329  0.00  0.00    +0.043 C 
ATOM     15  C   UNL     1      33.732 -14.780 -26.269  0.00  0.00    +0.429 C 
ATOM     16  C   UNL     1      35.237 -18.408 -24.108  0.00  0.00    +0.041 C 
ENDBRANCH   7  13
ENDBRANCH   3   7
BRANCH   4  17
ATOM     17  O   UNL     1      36.877 -21.683 -19.517  0.00  0.00    -0.383 OA
BRANCH  17  21
ATOM     18  C   UNL     1      35.805 -23.063 -15.752  0.00  0.00    +0.057 C 
ATOM     19  C   UNL     1      34.893 -23.130 -16.805  0.00  0.00    +0.018 C 
ATOM     20  C   UNL     1      37.078 -22.533 -15.964  0.00  0.00    +0.018 C 
ATOM     21  C   UNL     1      36.521 -22.141 -18.266  0.00  0.00    +0.160 C 
ATOM     22  C   UNL     1      35.254 -22.666 -18.070  0.00  0.00    +0.040 C 
ATOM     23  C   UNL     1      37.438 -22.069 -17.229  0.00  0.00    +0.040 C 
BRANCH  18  24
ATOM     24  N   UNL     1      35.448 -23.523 -14.497  0.00  0.00    -0.246 N 
ATOM     25  N   UNL     1      34.192 -24.362 -12.858  0.00  0.00    -0.224 NA
ATOM     26  C   UNL     1      36.258 -23.598 -13.393  0.00  0.00    +0.092 C 
ATOM     27  C   UNL     1      34.217 -23.996 -14.121  0.00  0.00    +0.172 C 
ATOM     28  C   UNL     1      35.462 -24.116 -12.399  0.00  0.00    +0.117 C 
ENDBRANCH  18  24
ENDBRANCH  17  21
ENDBRANCH   4  17
TORSDOF 5
ENDMDL
