MODEL 1
REMARK VINA RESULT:     -12.2      0.000      0.000
REMARK  Name = 66599893
REMARK  9 active torsions:
REMARK  status: ('A' for Active; 'I' for Inactive)
REMARK    1  A    between atoms: C_1  and  C_2
REMARK    2  A    between atoms: C_1  and  C_22
REMARK    3  A    between atoms: C_1  and  C_34
REMARK    4  A    between atoms: C_5  and  C_8
REMARK    5  A    between atoms: C_8  and  O_9
REMARK    6  A    between atoms: O_9  and  C_11
REMARK    7  A    between atoms: C_11  and  C_12
REMARK    8  A    between atoms: N_21  and  C_25
REMARK    9  A    between atoms: C_34  and  N_35
REMARK                            x       y       z     vdW  Elec       q    Type
REMARK                         _______ _______ _______ _____ _____    ______ ____
ROOT
ATOM      1  C   UNL     1      35.769 -17.830 -23.015  0.00  0.00    +0.077 C 
ENDROOT
BRANCH   1   2
ATOM      2  C   UNL     1      35.760 -18.939 -21.975  0.00  0.00    -0.016 C 
ATOM      3  C   UNL     1      36.951 -19.336 -21.367  0.00  0.00    -0.004 C 
ATOM      4  C   UNL     1      34.559 -19.559 -21.627  0.00  0.00    -0.004 C 
ATOM      5  C   UNL     1      35.743 -20.973 -20.066  0.00  0.00    +0.021 C 
ATOM      6  C   UNL     1      36.942 -20.353 -20.413  0.00  0.00    -0.001 C 
ATOM      7  C   UNL     1      34.551 -20.577 -20.673  0.00  0.00    -0.001 C 
BRANCH   5   8
ATOM      8  C   UNL     1      35.733 -22.060 -19.044  0.00  0.00    +0.235 C 
BRANCH   8   9
ATOM      9  O   UNL     1      34.469 -22.085 -18.392  0.00  0.00    -0.440 OA
BRANCH   9  11
ATOM     10  O   UNL     1      33.907 -24.192 -19.127  0.00  0.00    -0.245 OA
ATOM     11  C   UNL     1      33.876 -23.305 -18.289  0.00  0.00    +0.341 C 
BRANCH  11  12
ATOM     12  C   UNL     1      33.161 -23.433 -16.993  0.00  0.00    +0.072 C 
ATOM     13  C   UNL     1      33.840 -23.781 -15.826  0.00  0.00    -0.016 C 
ATOM     14  C   UNL     1      31.771 -23.662 -14.585  0.00  0.00    -0.022 C 
ATOM     15  C   UNL     1      33.146 -23.896 -14.622  0.00  0.00    -0.008 C 
ATOM     16  C   UNL     1      31.786 -23.200 -16.956  0.00  0.00    +0.006 C 
ATOM     17  C   UNL     1      31.091 -23.314 -15.752  0.00  0.00    -0.004 C 
ATOM     18  C   UNL     1      35.312 -24.036 -15.837  0.00  0.00    +0.031 C 
ATOM     19  C   UNL     1      31.027 -23.785 -13.299  0.00  0.00    +0.031 C 
ENDBRANCH  11  12
ENDBRANCH   9  11
ENDBRANCH   8   9
ENDBRANCH   5   8
ENDBRANCH   1   2
BRANCH   1  22
ATOM     20  O   UNL     1      35.273 -16.319 -21.195  0.00  0.00    -0.275 OA
ATOM     21  N   UNL     1      34.720 -15.659 -23.383  0.00  0.00    -0.284 N 
ATOM     22  C   UNL     1      35.238 -16.524 -22.406  0.00  0.00    +0.228 C 
ATOM     23  H   UNL     1      34.759 -15.985 -24.311  0.00  0.00    +0.155 HD
BRANCH  21  25
ATOM     24  N   UNL     1      31.604 -10.332 -21.593  0.00  0.00    -0.242 NA
ATOM     25  C   UNL     1      34.156 -14.394 -23.205  0.00  0.00    +0.050 C 
ATOM     26  C   UNL     1      33.308 -14.156 -22.123  0.00  0.00    +0.015 C 
ATOM     27  C   UNL     1      32.731 -12.890 -21.931  0.00  0.00    +0.004 C 
ATOM     28  C   UNL     1      34.441 -13.373 -24.108  0.00  0.00    +0.015 C 
ATOM     29  C   UNL     1      33.023 -11.858 -22.848  0.00  0.00    +0.019 C 
ATOM     30  C   UNL     1      33.879 -12.109 -23.934  0.00  0.00    +0.003 C 
ATOM     31  C   UNL     1      31.877 -12.619 -20.856  0.00  0.00    +0.021 C 
ATOM     32  C   UNL     1      32.433 -10.612 -22.624  0.00  0.00    +0.099 C 
ATOM     33  C   UNL     1      31.349 -11.343 -20.735  0.00  0.00    +0.099 C 
ENDBRANCH  21  25
ENDBRANCH   1  22
BRANCH   1  34
ATOM     34  C   UNL     1      34.970 -18.192 -24.284  0.00  0.00    -0.072 C 
BRANCH  34  35
ATOM     35  N   UNL     1      35.191 -19.578 -24.690  0.00  0.00    +0.381 N 
ATOM     36  H   UNL     1      34.999 -20.197 -23.903  0.00  0.00    -0.089 HD
ATOM     37  H   UNL     1      36.160 -19.694 -24.985  0.00  0.00    -0.089 HD
ATOM     38  H   UNL     1      34.569 -19.808 -25.464  0.00  0.00    -0.089 HD
ENDBRANCH  34  35
ENDBRANCH   1  34
TORSDOF 9
ENDMDL
MODEL 2
REMARK VINA RESULT:     -12.0      3.568      6.941
REMARK  Name = 66599893
REMARK  9 active torsions:
REMARK  status: ('A' for Active; 'I' for Inactive)
REMARK    1  A    between atoms: C_1  and  C_2
REMARK    2  A    between atoms: C_1  and  C_22
REMARK    3  A    between atoms: C_1  and  C_34
REMARK    4  A    between atoms: C_5  and  C_8
REMARK    5  A    between atoms: C_8  and  O_9
REMARK    6  A    between atoms: O_9  and  C_11
REMARK    7  A    between atoms: C_11  and  C_12
REMARK    8  A    between atoms: N_21  and  C_25
REMARK    9  A    between atoms: C_34  and  N_35
REMARK                            x       y       z     vdW  Elec       q    Type
REMARK                         _______ _______ _______ _____ _____    ______ ____
ROOT
ATOM      1  C   UNL     1      31.811 -11.854 -20.743  0.00  0.00    +0.077 C 
ENDROOT
BRANCH   1   2
ATOM      2  C   UNL     1      32.722 -12.925 -21.321  0.00  0.00    -0.016 C 
ATOM      3  C   UNL     1      33.223 -13.934 -20.499  0.00  0.00    -0.004 C 
ATOM      4  C   UNL     1      33.057 -12.898 -22.676  0.00  0.00    -0.004 C 
ATOM      5  C   UNL     1      34.394 -14.889 -22.384  0.00  0.00    +0.021 C 
ATOM      6  C   UNL     1      34.060 -14.915 -21.030  0.00  0.00    -0.001 C 
ATOM      7  C   UNL     1      33.894 -13.880 -23.206  0.00  0.00    -0.001 C 
BRANCH   5   8
ATOM      8  C   UNL     1      35.288 -15.939 -22.953  0.00  0.00    +0.235 C 
BRANCH   8   9
ATOM      9  O   UNL     1      35.293 -17.072 -22.093  0.00  0.00    -0.440 OA
BRANCH   9  11
ATOM     10  O   UNL     1      35.439 -18.489 -23.901  0.00  0.00    -0.245 OA
ATOM     11  C   UNL     1      35.286 -18.287 -22.706  0.00  0.00    +0.341 C 
BRANCH  11  12
ATOM     12  C   UNL     1      35.062 -19.373 -21.718  0.00  0.00    +0.072 C 
ATOM     13  C   UNL     1      36.119 -19.908 -20.983  0.00  0.00    -0.016 C 
ATOM     14  C   UNL     1      34.587 -21.414 -19.876  0.00  0.00    -0.022 C 
ATOM     15  C   UNL     1      35.882 -20.929 -20.062  0.00  0.00    -0.008 C 
ATOM     16  C   UNL     1      33.767 -19.858 -21.533  0.00  0.00    +0.006 C 
ATOM     17  C   UNL     1      33.529 -20.879 -20.613  0.00  0.00    -0.004 C 
ATOM     18  C   UNL     1      37.515 -19.407 -21.161  0.00  0.00    +0.031 C 
ATOM     19  C   UNL     1      34.332 -22.505 -18.893  0.00  0.00    +0.031 C 
ENDBRANCH  11  12
ENDBRANCH   9  11
ENDBRANCH   8   9
ENDBRANCH   5   8
ENDBRANCH   1   2
BRANCH   1  22
ATOM     20  O   UNL     1      30.749 -10.762 -22.620  0.00  0.00    -0.275 OA
ATOM     21  N   UNL     1      32.550  -9.679 -21.563  0.00  0.00    -0.284 N 
ATOM     22  C   UNL     1      31.620 -10.715 -21.755  0.00  0.00    +0.228 C 
ATOM     23  H   UNL     1      33.189  -9.806 -20.826  0.00  0.00    +0.155 HD
BRANCH  21  25
ATOM     24  N   UNL     1      32.181  -3.858 -24.259  0.00  0.00    -0.242 NA
ATOM     25  C   UNL     1      32.680  -8.491 -22.286  0.00  0.00    +0.050 C 
ATOM     26  C   UNL     1      31.784  -7.443 -22.070  0.00  0.00    +0.015 C 
ATOM     27  C   UNL     1      31.900  -6.243 -22.790  0.00  0.00    +0.004 C 
ATOM     28  C   UNL     1      33.703  -8.355 -23.220  0.00  0.00    +0.015 C 
ATOM     29  C   UNL     1      32.939  -6.109 -23.735  0.00  0.00    +0.019 C 
ATOM     30  C   UNL     1      33.836  -7.170 -23.944  0.00  0.00    +0.003 C 
ATOM     31  C   UNL     1      31.017  -5.174 -22.597  0.00  0.00    +0.021 C 
ATOM     32  C   UNL     1      33.024  -4.901 -24.431  0.00  0.00    +0.099 C 
ATOM     33  C   UNL     1      31.200  -4.022 -23.346  0.00  0.00    +0.099 C 
ENDBRANCH  21  25
ENDBRANCH   1  22
BRANCH   1  34
ATOM     34  C   UNL     1      32.320 -11.296 -19.398  0.00  0.00    -0.072 C 
BRANCH  34  35
ATOM     35  N   UNL     1      31.282 -11.316 -18.372  0.00  0.00    +0.381 N 
ATOM     36  H   UNL     1      30.758 -10.441 -18.400  0.00  0.00    -0.089 HD
ATOM     37  H   UNL     1      31.713 -11.424 -17.454  0.00  0.00    -0.089 HD
ATOM     38  H   UNL     1      30.649 -12.097 -18.543  0.00  0.00    -0.089 HD
ENDBRANCH  34  35
ENDBRANCH   1  34
TORSDOF 9
ENDMDL
MODEL 3
REMARK VINA RESULT:     -12.0      0.812      1.686
REMARK  Name = 66599893
REMARK  9 active torsions:
REMARK  status: ('A' for Active; 'I' for Inactive)
REMARK    1  A    between atoms: C_1  and  C_2
REMARK    2  A    between atoms: C_1  and  C_22
REMARK    3  A    between atoms: C_1  and  C_34
REMARK    4  A    between atoms: C_5  and  C_8
REMARK    5  A    between atoms: C_8  and  O_9
REMARK    6  A    between atoms: O_9  and  C_11
REMARK    7  A    between atoms: C_11  and  C_12
REMARK    8  A    between atoms: N_21  and  C_25
REMARK    9  A    between atoms: C_34  and  N_35
REMARK                            x       y       z     vdW  Elec       q    Type
REMARK                         _______ _______ _______ _____ _____    ______ ____
ROOT
ATOM      1  C   UNL     1      35.703 -17.094 -23.042  0.00  0.00    +0.077 C 
ENDROOT
BRANCH   1   2
ATOM      2  C   UNL     1      35.735 -18.336 -22.164  0.00  0.00    -0.016 C 
ATOM      3  C   UNL     1      34.552 -19.016 -21.873  0.00  0.00    -0.004 C 
ATOM      4  C   UNL     1      36.948 -18.795 -21.649  0.00  0.00    -0.004 C 
ATOM      5  C   UNL     1      35.793 -20.612 -20.553  0.00  0.00    +0.021 C 
ATOM      6  C   UNL     1      34.581 -20.153 -21.067  0.00  0.00    -0.001 C 
ATOM      7  C   UNL     1      36.976 -19.933 -20.842  0.00  0.00    -0.001 C 
BRANCH   5   8
ATOM      8  C   UNL     1      35.824 -21.830 -19.691  0.00  0.00    +0.235 C 
BRANCH   8   9
ATOM      9  O   UNL     1      34.669 -21.853 -18.862  0.00  0.00    -0.440 OA
BRANCH   9  11
ATOM     10  O   UNL     1      34.040 -23.954 -19.560  0.00  0.00    -0.245 OA
ATOM     11  C   UNL     1      34.054 -23.059 -18.729  0.00  0.00    +0.341 C 
BRANCH  11  12
ATOM     12  C   UNL     1      33.380 -23.162 -17.409  0.00  0.00    +0.072 C 
ATOM     13  C   UNL     1      34.111 -23.381 -16.242  0.00  0.00    -0.016 C 
ATOM     14  C   UNL     1      32.066 -23.351 -14.956  0.00  0.00    -0.022 C 
ATOM     15  C   UNL     1      33.454 -23.475 -15.015  0.00  0.00    -0.008 C 
ATOM     16  C   UNL     1      31.992 -23.038 -17.351  0.00  0.00    +0.006 C 
ATOM     17  C   UNL     1      31.335 -23.133 -16.124  0.00  0.00    -0.004 C 
ATOM     18  C   UNL     1      35.598 -23.517 -16.276  0.00  0.00    +0.031 C 
ATOM     19  C   UNL     1      31.361 -23.452 -13.645  0.00  0.00    +0.031 C 
ENDBRANCH  11  12
ENDBRANCH   9  11
ENDBRANCH   8   9
ENDBRANCH   5   8
ENDBRANCH   1   2
BRANCH   1  22
ATOM     20  O   UNL     1      35.107 -15.838 -21.064  0.00  0.00    -0.275 OA
ATOM     21  N   UNL     1      34.396 -15.038 -23.159  0.00  0.00    -0.284 N 
ATOM     22  C   UNL     1      35.049 -15.927 -22.288  0.00  0.00    +0.228 C 
ATOM     23  H   UNL     1      34.438 -15.265 -24.115  0.00  0.00    +0.155 HD
BRANCH  21  25
ATOM     24  N   UNL     1      31.811  -9.183 -22.590  0.00  0.00    -0.242 NA
ATOM     25  C   UNL     1      33.697 -13.872 -22.838  0.00  0.00    +0.050 C 
ATOM     26  C   UNL     1      33.924 -12.703 -23.566  0.00  0.00    +0.015 C 
ATOM     27  C   UNL     1      33.230 -11.522 -23.255  0.00  0.00    +0.004 C 
ATOM     28  C   UNL     1      32.777 -13.879 -21.794  0.00  0.00    +0.015 C 
ATOM     29  C   UNL     1      32.298 -11.533 -22.196  0.00  0.00    +0.019 C 
ATOM     30  C   UNL     1      32.078 -12.716 -21.471  0.00  0.00    +0.003 C 
ATOM     31  C   UNL     1      33.435 -10.333 -23.965  0.00  0.00    +0.021 C 
ATOM     32  C   UNL     1      31.627 -10.341 -21.916  0.00  0.00    +0.099 C 
ATOM     33  C   UNL     1      32.710  -9.210 -23.597  0.00  0.00    +0.099 C 
ENDBRANCH  21  25
ENDBRANCH   1  22
BRANCH   1  34
ATOM     34  C   UNL     1      34.989 -17.330 -24.388  0.00  0.00    -0.072 C 
BRANCH  34  35
ATOM     35  N   UNL     1      34.964 -18.745 -24.751  0.00  0.00    +0.381 N 
ATOM     36  H   UNL     1      35.875 -19.161 -24.558  0.00  0.00    -0.089 HD
ATOM     37  H   UNL     1      34.752 -18.837 -25.744  0.00  0.00    -0.089 HD
ATOM     38  H   UNL     1      34.248 -19.223 -24.205  0.00  0.00    -0.089 HD
ENDBRANCH  34  35
ENDBRANCH   1  34
TORSDOF 9
ENDMDL
MODEL 4
REMARK VINA RESULT:     -11.9      1.642      2.685
REMARK  Name = 66599893
REMARK  9 active torsions:
REMARK  status: ('A' for Active; 'I' for Inactive)
REMARK    1  A    between atoms: C_1  and  C_2
REMARK    2  A    between atoms: C_1  and  C_22
REMARK    3  A    between atoms: C_1  and  C_34
REMARK    4  A    between atoms: C_5  and  C_8
REMARK    5  A    between atoms: C_8  and  O_9
REMARK    6  A    between atoms: O_9  and  C_11
REMARK    7  A    between atoms: C_11  and  C_12
REMARK    8  A    between atoms: N_21  and  C_25
REMARK    9  A    between atoms: C_34  and  N_35
REMARK                            x       y       z     vdW  Elec       q    Type
REMARK                         _______ _______ _______ _____ _____    ______ ____
ROOT
ATOM      1  C   UNL     1      35.966 -18.254 -22.354  0.00  0.00    +0.077 C 
ENDROOT
BRANCH   1   2
ATOM      2  C   UNL     1      35.439 -19.382 -21.481  0.00  0.00    -0.016 C 
ATOM      3  C   UNL     1      36.329 -20.204 -20.788  0.00  0.00    -0.004 C 
ATOM      4  C   UNL     1      34.064 -19.596 -21.373  0.00  0.00    -0.004 C 
ATOM      5  C   UNL     1      34.471 -21.452 -19.881  0.00  0.00    +0.021 C 
ATOM      6  C   UNL     1      35.844 -21.239 -19.989  0.00  0.00    -0.001 C 
ATOM      7  C   UNL     1      33.581 -20.632 -20.574  0.00  0.00    -0.001 C 
BRANCH   5   8
ATOM      8  C   UNL     1      33.953 -22.559 -19.025  0.00  0.00    +0.235 C 
BRANCH   8   9
ATOM      9  O   UNL     1      34.990 -23.020 -18.169  0.00  0.00    -0.440 OA
BRANCH   9  11
ATOM     10  O   UNL     1      33.600 -22.839 -16.343  0.00  0.00    -0.245 OA
ATOM     11  C   UNL     1      34.664 -23.153 -16.854  0.00  0.00    +0.341 C 
BRANCH  11  12
ATOM     12  C   UNL     1      35.793 -23.743 -16.090  0.00  0.00    +0.072 C 
ATOM     13  C   UNL     1      37.033 -23.108 -16.031  0.00  0.00    -0.016 C 
ATOM     14  C   UNL     1      37.881 -24.895 -14.643  0.00  0.00    -0.022 C 
ATOM     15  C   UNL     1      38.077 -23.684 -15.307  0.00  0.00    -0.008 C 
ATOM     16  C   UNL     1      35.596 -24.954 -15.426  0.00  0.00    +0.006 C 
ATOM     17  C   UNL     1      36.640 -25.530 -14.702  0.00  0.00    -0.004 C 
ATOM     18  C   UNL     1      37.270 -21.811 -16.732  0.00  0.00    +0.031 C 
ATOM     19  C   UNL     1      38.996 -25.512 -13.869  0.00  0.00    +0.031 C 
ENDBRANCH  11  12
ENDBRANCH   9  11
ENDBRANCH   8   9
ENDBRANCH   5   8
ENDBRANCH   1   2
BRANCH   1  22
ATOM     20  O   UNL     1      35.319 -16.609 -20.705  0.00  0.00    -0.275 OA
ATOM     21  N   UNL     1      34.943 -16.129 -22.976  0.00  0.00    -0.284 N 
ATOM     22  C   UNL     1      35.383 -16.910 -21.894  0.00  0.00    +0.228 C 
ATOM     23  H   UNL     1      35.059 -16.527 -23.868  0.00  0.00    +0.155 HD
BRANCH  21  25
ATOM     24  N   UNL     1      31.805 -10.651 -21.779  0.00  0.00    -0.242 NA
ATOM     25  C   UNL     1      34.362 -14.859 -22.945  0.00  0.00    +0.050 C 
ATOM     26  C   UNL     1      33.560 -14.487 -21.865  0.00  0.00    +0.015 C 
ATOM     27  C   UNL     1      32.968 -13.215 -21.820  0.00  0.00    +0.004 C 
ATOM     28  C   UNL     1      34.584 -13.968 -23.991  0.00  0.00    +0.015 C 
ATOM     29  C   UNL     1      33.195 -12.314 -22.881  0.00  0.00    +0.019 C 
ATOM     30  C   UNL     1      34.004 -12.700 -23.963  0.00  0.00    +0.003 C 
ATOM     31  C   UNL     1      32.158 -12.811 -20.751  0.00  0.00    +0.021 C 
ATOM     32  C   UNL     1      32.590 -11.059 -22.802  0.00  0.00    +0.099 C 
ATOM     33  C   UNL     1      31.610 -11.538 -20.780  0.00  0.00    +0.099 C 
ENDBRANCH  21  25
ENDBRANCH   1  22
BRANCH   1  34
ATOM     34  C   UNL     1      35.685 -18.475 -23.854  0.00  0.00    -0.072 C 
BRANCH  34  35
ATOM     35  N   UNL     1      35.318 -19.859 -24.141  0.00  0.00    +0.381 N 
ATOM     36  H   UNL     1      34.445 -20.085 -23.666  0.00  0.00    -0.089 HD
ATOM     37  H   UNL     1      36.056 -20.481 -23.810  0.00  0.00    -0.089 HD
ATOM     38  H   UNL     1      35.200 -19.977 -25.147  0.00  0.00    -0.089 HD
ENDBRANCH  34  35
ENDBRANCH   1  34
TORSDOF 9
ENDMDL
MODEL 5
REMARK VINA RESULT:     -11.9      3.261     10.434
REMARK  Name = 66599893
REMARK  9 active torsions:
REMARK  status: ('A' for Active; 'I' for Inactive)
REMARK    1  A    between atoms: C_1  and  C_2
REMARK    2  A    between atoms: C_1  and  C_22
REMARK    3  A    between atoms: C_1  and  C_34
REMARK    4  A    between atoms: C_5  and  C_8
REMARK    5  A    between atoms: C_8  and  O_9
REMARK    6  A    between atoms: O_9  and  C_11
REMARK    7  A    between atoms: C_11  and  C_12
REMARK    8  A    between atoms: N_21  and  C_25
REMARK    9  A    between atoms: C_34  and  N_35
REMARK                            x       y       z     vdW  Elec       q    Type
REMARK                         _______ _______ _______ _____ _____    ______ ____
ROOT
ATOM      1  C   UNL     1      36.288 -22.051 -18.957  0.00  0.00    +0.077 C 
ENDROOT
BRANCH   1   2
ATOM      2  C   UNL     1      36.039 -20.953 -19.979  0.00  0.00    -0.016 C 
ATOM      3  C   UNL     1      34.751 -20.734 -20.468  0.00  0.00    -0.004 C 
ATOM      4  C   UNL     1      37.099 -20.165 -20.430  0.00  0.00    -0.004 C 
ATOM      5  C   UNL     1      35.582 -18.941 -21.857  0.00  0.00    +0.021 C 
ATOM      6  C   UNL     1      34.523 -19.728 -21.407  0.00  0.00    -0.001 C 
ATOM      7  C   UNL     1      36.870 -19.160 -21.369  0.00  0.00    -0.001 C 
BRANCH   5   8
ATOM      8  C   UNL     1      35.338 -17.864 -22.860  0.00  0.00    +0.235 C 
BRANCH   8   9
ATOM      9  O   UNL     1      35.313 -16.603 -22.203  0.00  0.00    -0.440 OA
BRANCH   9  11
ATOM     10  O   UNL     1      35.665 -15.316 -24.078  0.00  0.00    -0.245 OA
ATOM     11  C   UNL     1      35.124 -15.518 -23.002  0.00  0.00    +0.341 C 
BRANCH  11  12
ATOM     12  C   UNL     1      34.151 -14.577 -22.390  0.00  0.00    +0.072 C 
ATOM     13  C   UNL     1      33.510 -13.604 -23.155  0.00  0.00    -0.016 C 
ATOM     14  C   UNL     1      32.333 -12.833 -21.191  0.00  0.00    -0.022 C 
ATOM     15  C   UNL     1      32.601 -12.732 -22.557  0.00  0.00    -0.008 C 
ATOM     16  C   UNL     1      33.884 -14.679 -21.025  0.00  0.00    +0.006 C 
ATOM     17  C   UNL     1      32.975 -13.807 -20.425  0.00  0.00    -0.004 C 
ATOM     18  C   UNL     1      33.777 -13.474 -24.619  0.00  0.00    +0.031 C 
ATOM     19  C   UNL     1      31.363 -11.902 -20.549  0.00  0.00    +0.031 C 
ENDBRANCH  11  12
ENDBRANCH   9  11
ENDBRANCH   8   9
ENDBRANCH   5   8
ENDBRANCH   1   2
BRANCH   1  22
ATOM     20  O   UNL     1      34.376 -23.422 -19.506  0.00  0.00    -0.275 OA
ATOM     21  N   UNL     1      34.594 -22.634 -17.302  0.00  0.00    -0.284 N 
ATOM     22  C   UNL     1      34.980 -22.792 -18.643  0.00  0.00    +0.228 C 
ATOM     23  H   UNL     1      35.191 -22.085 -16.744  0.00  0.00    +0.155 HD
BRANCH  21  25
ATOM     24  N   UNL     1      28.802 -24.398 -15.151  0.00  0.00    -0.242 NA
ATOM     25  C   UNL     1      33.471 -23.158 -16.659  0.00  0.00    +0.050 C 
ATOM     26  C   UNL     1      32.192 -22.813 -17.100  0.00  0.00    +0.015 C 
ATOM     27  C   UNL     1      31.053 -23.330 -16.463  0.00  0.00    +0.004 C 
ATOM     28  C   UNL     1      33.628 -24.024 -15.580  0.00  0.00    +0.015 C 
ATOM     29  C   UNL     1      31.216 -24.208 -15.370  0.00  0.00    +0.019 C 
ATOM     30  C   UNL     1      32.509 -24.549 -14.936  0.00  0.00    +0.003 C 
ATOM     31  C   UNL     1      29.757 -23.004 -16.881  0.00  0.00    +0.021 C 
ATOM     32  C   UNL     1      30.061 -24.703 -14.763  0.00  0.00    +0.099 C 
ATOM     33  C   UNL     1      28.683 -23.557 -16.201  0.00  0.00    +0.099 C 
ENDBRANCH  21  25
ENDBRANCH   1  22
BRANCH   1  34
ATOM     34  C   UNL     1      36.930 -21.524 -17.657  0.00  0.00    -0.072 C 
BRANCH  34  35
ATOM     35  N   UNL     1      37.935 -22.445 -17.134  0.00  0.00    +0.381 N 
ATOM     36  H   UNL     1      38.747 -21.916 -16.815  0.00  0.00    -0.089 HD
ATOM     37  H   UNL     1      38.219 -23.091 -17.870  0.00  0.00    -0.089 HD
ATOM     38  H   UNL     1      37.542 -22.970 -16.353  0.00  0.00    -0.089 HD
ENDBRANCH  34  35
ENDBRANCH   1  34
TORSDOF 9
ENDMDL
MODEL 6
REMARK VINA RESULT:     -11.9      2.819     10.313
REMARK  Name = 66599893
REMARK  9 active torsions:
REMARK  status: ('A' for Active; 'I' for Inactive)
REMARK    1  A    between atoms: C_1  and  C_2
REMARK    2  A    between atoms: C_1  and  C_22
REMARK    3  A    between atoms: C_1  and  C_34
REMARK    4  A    between atoms: C_5  and  C_8
REMARK    5  A    between atoms: C_8  and  O_9
REMARK    6  A    between atoms: O_9  and  C_11
REMARK    7  A    between atoms: C_11  and  C_12
REMARK    8  A    between atoms: N_21  and  C_25
REMARK    9  A    between atoms: C_34  and  N_35
REMARK                            x       y       z     vdW  Elec       q    Type
REMARK                         _______ _______ _______ _____ _____    ______ ____
ROOT
ATOM      1  C   UNL     1      36.285 -19.169 -22.721  0.00  0.00    +0.077 C 
ENDROOT
BRANCH   1   2
ATOM      2  C   UNL     1      35.626 -18.008 -23.449  0.00  0.00    -0.016 C 
ATOM      3  C   UNL     1      35.728 -16.714 -22.936  0.00  0.00    -0.004 C 
ATOM      4  C   UNL     1      34.920 -18.235 -24.631  0.00  0.00    -0.004 C 
ATOM      5  C   UNL     1      34.417 -15.877 -24.784  0.00  0.00    +0.021 C 
ATOM      6  C   UNL     1      35.123 -15.650 -23.603  0.00  0.00    -0.001 C 
ATOM      7  C   UNL     1      34.314 -17.170 -25.297  0.00  0.00    -0.001 C 
BRANCH   5   8
ATOM      8  C   UNL     1      33.771 -14.738 -25.499  0.00  0.00    +0.235 C 
BRANCH   8   9
ATOM      9  O   UNL     1      33.008 -13.972 -24.574  0.00  0.00    -0.440 OA
BRANCH   9  11
ATOM     10  O   UNL     1      34.486 -12.210 -24.670  0.00  0.00    -0.245 OA
ATOM     11  C   UNL     1      33.598 -12.836 -24.112  0.00  0.00    +0.341 C 
BRANCH  11  12
ATOM     12  C   UNL     1      33.016 -12.437 -22.805  0.00  0.00    +0.072 C 
ATOM     13  C   UNL     1      32.619 -11.122 -22.565  0.00  0.00    -0.016 C 
ATOM     14  C   UNL     1      31.930 -11.737 -20.332  0.00  0.00    -0.022 C 
ATOM     15  C   UNL     1      32.076 -10.772 -21.329  0.00  0.00    -0.008 C 
ATOM     16  C   UNL     1      32.871 -13.403 -21.809  0.00  0.00    +0.006 C 
ATOM     17  C   UNL     1      32.328 -13.053 -20.573  0.00  0.00    -0.004 C 
ATOM     18  C   UNL     1      32.763 -10.068 -23.614  0.00  0.00    +0.031 C 
ATOM     19  C   UNL     1      31.351 -11.365 -19.010  0.00  0.00    +0.031 C 
ENDBRANCH  11  12
ENDBRANCH   9  11
ENDBRANCH   8   9
ENDBRANCH   5   8
ENDBRANCH   1   2
BRANCH   1  22
ATOM     20  O   UNL     1      34.548 -18.858 -21.069  0.00  0.00    -0.275 OA
ATOM     21  N   UNL     1      35.846 -20.818 -20.978  0.00  0.00    -0.284 N 
ATOM     22  C   UNL     1      35.445 -19.577 -21.502  0.00  0.00    +0.228 C 
ATOM     23  H   UNL     1      36.592 -21.259 -21.442  0.00  0.00    +0.155 HD
BRANCH  21  25
ATOM     24  N   UNL     1      34.527 -23.856 -15.472  0.00  0.00    -0.242 NA
ATOM     25  C   UNL     1      35.318 -21.503 -19.882  0.00  0.00    +0.050 C 
ATOM     26  C   UNL     1      36.127 -21.781 -18.779  0.00  0.00    +0.015 C 
ATOM     27  C   UNL     1      35.612 -22.471 -17.670  0.00  0.00    +0.004 C 
ATOM     28  C   UNL     1      33.986 -21.909 -19.892  0.00  0.00    +0.015 C 
ATOM     29  C   UNL     1      34.261 -22.880 -17.684  0.00  0.00    +0.019 C 
ATOM     30  C   UNL     1      33.456 -22.594 -18.799  0.00  0.00    +0.003 C 
ATOM     31  C   UNL     1      36.397 -22.764 -16.549  0.00  0.00    +0.021 C 
ATOM     32  C   UNL     1      33.784 -23.563 -16.563  0.00  0.00    +0.099 C 
ATOM     33  C   UNL     1      35.814 -23.449 -15.494  0.00  0.00    +0.099 C 
ENDBRANCH  21  25
ENDBRANCH   1  22
BRANCH   1  34
ATOM     34  C   UNL     1      37.735 -18.864 -22.294  0.00  0.00    -0.072 C 
BRANCH  34  35
ATOM     35  N   UNL     1      37.844 -18.644 -20.855  0.00  0.00    +0.381 N 
ATOM     36  H   UNL     1      36.966 -18.901 -20.404  0.00  0.00    -0.089 HD
ATOM     37  H   UNL     1      38.042 -17.660 -20.676  0.00  0.00    -0.089 HD
ATOM     38  H   UNL     1      38.600 -19.216 -20.480  0.00  0.00    -0.089 HD
ENDBRANCH  34  35
ENDBRANCH   1  34
TORSDOF 9
ENDMDL
MODEL 7
REMARK VINA RESULT:     -11.8      2.439      4.542
REMARK  Name = 66599893
REMARK  9 active torsions:
REMARK  status: ('A' for Active; 'I' for Inactive)
REMARK    1  A    between atoms: C_1  and  C_2
REMARK    2  A    between atoms: C_1  and  C_22
REMARK    3  A    between atoms: C_1  and  C_34
REMARK    4  A    between atoms: C_5  and  C_8
REMARK    5  A    between atoms: C_8  and  O_9
REMARK    6  A    between atoms: O_9  and  C_11
REMARK    7  A    between atoms: C_11  and  C_12
REMARK    8  A    between atoms: N_21  and  C_25
REMARK    9  A    between atoms: C_34  and  N_35
REMARK                            x       y       z     vdW  Elec       q    Type
REMARK                         _______ _______ _______ _____ _____    ______ ____
ROOT
ATOM      1  C   UNL     1      34.170 -14.231 -25.844  0.00  0.00    +0.077 C 
ENDROOT
BRANCH   1   2
ATOM      2  C   UNL     1      34.466 -15.617 -25.292  0.00  0.00    -0.016 C 
ATOM      3  C   UNL     1      33.908 -16.744 -25.898  0.00  0.00    -0.004 C 
ATOM      4  C   UNL     1      35.296 -15.762 -24.180  0.00  0.00    -0.004 C 
ATOM      5  C   UNL     1      35.009 -18.159 -24.279  0.00  0.00    +0.021 C 
ATOM      6  C   UNL     1      34.179 -18.014 -25.390  0.00  0.00    -0.001 C 
ATOM      7  C   UNL     1      35.567 -17.033 -23.673  0.00  0.00    -0.001 C 
BRANCH   5   8
ATOM      8  C   UNL     1      35.300 -19.518 -23.738  0.00  0.00    +0.235 C 
BRANCH   8   9
ATOM      9  O   UNL     1      34.572 -19.712 -22.531  0.00  0.00    -0.440 OA
BRANCH   9  11
ATOM     10  O   UNL     1      36.331 -19.120 -21.170  0.00  0.00    -0.245 OA
ATOM     11  C   UNL     1      35.311 -19.755 -21.389  0.00  0.00    +0.341 C 
BRANCH  11  12
ATOM     12  C   UNL     1      34.711 -20.697 -20.410  0.00  0.00    +0.072 C 
ATOM     13  C   UNL     1      35.510 -21.538 -19.637  0.00  0.00    -0.016 C 
ATOM     14  C   UNL     1      33.534 -22.450 -18.587  0.00  0.00    -0.022 C 
ATOM     15  C   UNL     1      34.922 -22.415 -18.725  0.00  0.00    -0.008 C 
ATOM     16  C   UNL     1      33.323 -20.732 -20.273  0.00  0.00    +0.006 C 
ATOM     17  C   UNL     1      32.735 -21.608 -19.361  0.00  0.00    -0.004 C 
ATOM     18  C   UNL     1      36.998 -21.521 -19.764  0.00  0.00    +0.031 C 
ATOM     19  C   UNL     1      32.904 -23.387 -17.613  0.00  0.00    +0.031 C 
ENDBRANCH  11  12
ENDBRANCH   9  11
ENDBRANCH   8   9
ENDBRANCH   5   8
ENDBRANCH   1   2
BRANCH   1  22
ATOM     20  O   UNL     1      34.566 -12.128 -24.721  0.00  0.00    -0.275 OA
ATOM     21  N   UNL     1      33.204 -13.725 -23.662  0.00  0.00    -0.284 N 
ATOM     22  C   UNL     1      34.013 -13.224 -24.695  0.00  0.00    +0.228 C 
ATOM     23  H   UNL     1      32.847 -14.633 -23.798  0.00  0.00    +0.155 HD
BRANCH  21  25
ATOM     24  N   UNL     1      31.560  -9.828 -18.825  0.00  0.00    -0.242 NA
ATOM     25  C   UNL     1      32.840 -13.099 -22.468  0.00  0.00    +0.050 C 
ATOM     26  C   UNL     1      32.654 -11.716 -22.437  0.00  0.00    +0.015 C 
ATOM     27  C   UNL     1      32.290 -11.071 -21.244  0.00  0.00    +0.004 C 
ATOM     28  C   UNL     1      32.666 -13.854 -21.312  0.00  0.00    +0.015 C 
ATOM     29  C   UNL     1      32.114 -11.840 -20.074  0.00  0.00    +0.019 C 
ATOM     30  C   UNL     1      32.304 -13.232 -20.118  0.00  0.00    +0.003 C 
ATOM     31  C   UNL     1      32.096  -9.686 -21.179  0.00  0.00    +0.021 C 
ATOM     32  C   UNL     1      31.752 -11.164 -18.907  0.00  0.00    +0.099 C 
ATOM     33  C   UNL     1      31.736  -9.124 -19.963  0.00  0.00    +0.099 C 
ENDBRANCH  21  25
ENDBRANCH   1  22
BRANCH   1  34
ATOM     34  C   UNL     1      32.926 -14.202 -26.755  0.00  0.00    -0.072 C 
BRANCH  34  35
ATOM     35  N   UNL     1      32.912 -13.024 -27.619  0.00  0.00    +0.381 N 
ATOM     36  H   UNL     1      32.757 -12.190 -27.053  0.00  0.00    -0.089 HD
ATOM     37  H   UNL     1      32.161 -13.115 -28.303  0.00  0.00    -0.089 HD
ATOM     38  H   UNL     1      33.806 -12.947 -28.103  0.00  0.00    -0.089 HD
ENDBRANCH  34  35
ENDBRANCH   1  34
TORSDOF 9
ENDMDL
MODEL 8
REMARK VINA RESULT:     -11.7      5.221      9.311
REMARK  Name = 66599893
REMARK  9 active torsions:
REMARK  status: ('A' for Active; 'I' for Inactive)
REMARK    1  A    between atoms: C_1  and  C_2
REMARK    2  A    between atoms: C_1  and  C_22
REMARK    3  A    between atoms: C_1  and  C_34
REMARK    4  A    between atoms: C_5  and  C_8
REMARK    5  A    between atoms: C_8  and  O_9
REMARK    6  A    between atoms: O_9  and  C_11
REMARK    7  A    between atoms: C_11  and  C_12
REMARK    8  A    between atoms: N_21  and  C_25
REMARK    9  A    between atoms: C_34  and  N_35
REMARK                            x       y       z     vdW  Elec       q    Type
REMARK                         _______ _______ _______ _____ _____    ______ ____
ROOT
ATOM      1  C   UNL     1      31.862  -9.899 -21.698  0.00  0.00    +0.077 C 
ENDROOT
BRANCH   1   2
ATOM      2  C   UNL     1      32.584 -10.954 -22.522  0.00  0.00    -0.016 C 
ATOM      3  C   UNL     1      32.468 -12.303 -22.185  0.00  0.00    -0.004 C 
ATOM      4  C   UNL     1      33.362 -10.572 -23.616  0.00  0.00    -0.004 C 
ATOM      5  C   UNL     1      33.909 -12.888 -24.033  0.00  0.00    +0.021 C 
ATOM      6  C   UNL     1      33.132 -13.270 -22.940  0.00  0.00    -0.001 C 
ATOM      7  C   UNL     1      34.025 -11.540 -24.370  0.00  0.00    -0.001 C 
BRANCH   5   8
ATOM      8  C   UNL     1      34.617 -13.922 -24.843  0.00  0.00    +0.235 C 
BRANCH   8   9
ATOM      9  O   UNL     1      34.120 -15.211 -24.503  0.00  0.00    -0.440 OA
BRANCH   9  11
ATOM     10  O   UNL     1      35.153 -16.393 -26.186  0.00  0.00    -0.245 OA
ATOM     11  C   UNL     1      34.799 -16.269 -25.024  0.00  0.00    +0.341 C 
BRANCH  11  12
ATOM     12  C   UNL     1      35.065 -17.288 -23.977  0.00  0.00    +0.072 C 
ATOM     13  C   UNL     1      34.711 -18.624 -24.165  0.00  0.00    -0.016 C 
ATOM     14  C   UNL     1      35.586 -19.164 -21.979  0.00  0.00    -0.022 C 
ATOM     15  C   UNL     1      34.972 -19.562 -23.167  0.00  0.00    -0.008 C 
ATOM     16  C   UNL     1      35.680 -16.890 -22.790  0.00  0.00    +0.006 C 
ATOM     17  C   UNL     1      35.940 -17.828 -21.791  0.00  0.00    -0.004 C 
ATOM     18  C   UNL     1      34.053 -19.078 -25.427  0.00  0.00    +0.031 C 
ATOM     19  C   UNL     1      35.865 -20.165 -20.910  0.00  0.00    +0.031 C 
ENDBRANCH  11  12
ENDBRANCH   9  11
ENDBRANCH   8   9
ENDBRANCH   5   8
ENDBRANCH   1   2
BRANCH   1  22
ATOM     20  O   UNL     1      33.475  -8.104 -21.563  0.00  0.00    -0.275 OA
ATOM     21  N   UNL     1      31.548  -7.785 -22.872  0.00  0.00    -0.284 N 
ATOM     22  C   UNL     1      32.410  -8.502 -22.026  0.00  0.00    +0.228 C 
ATOM     23  H   UNL     1      30.725  -8.251 -23.143  0.00  0.00    +0.155 HD
BRANCH  21  25
ATOM     24  N   UNL     1      33.036  -2.376 -26.007  0.00  0.00    -0.242 NA
ATOM     25  C   UNL     1      31.713  -6.494 -23.379  0.00  0.00    +0.050 C 
ATOM     26  C   UNL     1      32.539  -6.280 -24.483  0.00  0.00    +0.015 C 
ATOM     27  C   UNL     1      32.717  -4.987 -25.003  0.00  0.00    +0.004 C 
ATOM     28  C   UNL     1      31.053  -5.424 -22.781  0.00  0.00    +0.015 C 
ATOM     29  C   UNL     1      32.046  -3.905 -24.395  0.00  0.00    +0.019 C 
ATOM     30  C   UNL     1      31.217  -4.133 -23.284  0.00  0.00    +0.003 C 
ATOM     31  C   UNL     1      33.538  -4.740 -26.110  0.00  0.00    +0.021 C 
ATOM     32  C   UNL     1      32.246  -2.636 -24.940  0.00  0.00    +0.099 C 
ATOM     33  C   UNL     1      33.660  -3.435 -26.564  0.00  0.00    +0.099 C 
ENDBRANCH  21  25
ENDBRANCH   1  22
BRANCH   1  34
ATOM     34  C   UNL     1      31.945 -10.164 -20.181  0.00  0.00    -0.072 C 
BRANCH  34  35
ATOM     35  N   UNL     1      31.893  -8.925 -19.408  0.00  0.00    +0.381 N 
ATOM     36  H   UNL     1      32.698  -8.881 -18.783  0.00  0.00    -0.089 HD
ATOM     37  H   UNL     1      31.034  -8.903 -18.859  0.00  0.00    -0.089 HD
ATOM     38  H   UNL     1      31.911  -8.128 -20.044  0.00  0.00    -0.089 HD
ENDBRANCH  34  35
ENDBRANCH   1  34
TORSDOF 9
ENDMDL
MODEL 9
REMARK VINA RESULT:     -11.5      2.648      4.799
REMARK  Name = 66599893
REMARK  9 active torsions:
REMARK  status: ('A' for Active; 'I' for Inactive)
REMARK    1  A    between atoms: C_1  and  C_2
REMARK    2  A    between atoms: C_1  and  C_22
REMARK    3  A    between atoms: C_1  and  C_34
REMARK    4  A    between atoms: C_5  and  C_8
REMARK    5  A    between atoms: C_8  and  O_9
REMARK    6  A    between atoms: O_9  and  C_11
REMARK    7  A    between atoms: C_11  and  C_12
REMARK    8  A    between atoms: N_21  and  C_25
REMARK    9  A    between atoms: C_34  and  N_35
REMARK                            x       y       z     vdW  Elec       q    Type
REMARK                         _______ _______ _______ _____ _____    ______ ____
ROOT
ATOM      1  C   UNL     1      34.234 -14.230 -25.416  0.00  0.00    +0.077 C 
ENDROOT
BRANCH   1   2
ATOM      2  C   UNL     1      34.592 -15.621 -24.917  0.00  0.00    -0.016 C 
ATOM      3  C   UNL     1      35.312 -15.775 -23.732  0.00  0.00    -0.004 C 
ATOM      4  C   UNL     1      34.201 -16.746 -25.645  0.00  0.00    -0.004 C 
ATOM      5  C   UNL     1      35.249 -18.174 -24.003  0.00  0.00    +0.021 C 
ATOM      6  C   UNL     1      35.641 -17.051 -23.276  0.00  0.00    -0.001 C 
ATOM      7  C   UNL     1      34.530 -18.021 -25.189  0.00  0.00    -0.001 C 
BRANCH   5   8
ATOM      8  C   UNL     1      35.600 -19.539 -23.515  0.00  0.00    +0.235 C 
BRANCH   8   9
ATOM      9  O   UNL     1      34.953 -19.777 -22.271  0.00  0.00    -0.440 OA
BRANCH   9  11
ATOM     10  O   UNL     1      36.841 -19.356 -21.022  0.00  0.00    -0.245 OA
ATOM     11  C   UNL     1      35.770 -19.919 -21.192  0.00  0.00    +0.341 C 
BRANCH  11  12
ATOM     12  C   UNL     1      35.187 -20.873 -20.213  0.00  0.00    +0.072 C 
ATOM     13  C   UNL     1      33.808 -21.056 -20.120  0.00  0.00    -0.016 C 
ATOM     14  C   UNL     1      34.142 -22.675 -18.358  0.00  0.00    -0.022 C 
ATOM     15  C   UNL     1      33.285 -21.957 -19.192  0.00  0.00    -0.008 C 
ATOM     16  C   UNL     1      36.044 -21.590 -19.379  0.00  0.00    +0.006 C 
ATOM     17  C   UNL     1      35.522 -22.491 -18.451  0.00  0.00    -0.004 C 
ATOM     18  C   UNL     1      32.867 -20.301 -21.001  0.00  0.00    +0.031 C 
ATOM     19  C   UNL     1      33.585 -23.638 -17.365  0.00  0.00    +0.031 C 
ENDBRANCH  11  12
ENDBRANCH   9  11
ENDBRANCH   8   9
ENDBRANCH   5   8
ENDBRANCH   1   2
BRANCH   1  22
ATOM     20  O   UNL     1      32.932 -13.958 -23.398  0.00  0.00    -0.275 OA
ATOM     21  N   UNL     1      33.797 -12.037 -24.442  0.00  0.00    -0.284 N 
ATOM     22  C   UNL     1      33.577 -13.416 -24.291  0.00  0.00    +0.228 C 
ATOM     23  H   UNL     1      34.330 -11.770 -25.225  0.00  0.00    +0.155 HD
BRANCH  21  25
ATOM     24  N   UNL     1      32.469  -6.557 -21.361  0.00  0.00    -0.242 NA
ATOM     25  C   UNL     1      33.357 -10.997 -23.620  0.00  0.00    +0.050 C 
ATOM     26  C   UNL     1      33.800  -9.694 -23.849  0.00  0.00    +0.015 C 
ATOM     27  C   UNL     1      33.368  -8.638 -23.031  0.00  0.00    +0.004 C 
ATOM     28  C   UNL     1      32.478 -11.263 -22.574  0.00  0.00    +0.015 C 
ATOM     29  C   UNL     1      32.477  -8.911 -21.972  0.00  0.00    +0.019 C 
ATOM     30  C   UNL     1      32.037 -10.227 -21.751  0.00  0.00    +0.003 C 
ATOM     31  C   UNL     1      33.794  -7.319 -23.235  0.00  0.00    +0.021 C 
ATOM     32  C   UNL     1      32.068  -7.836 -21.180  0.00  0.00    +0.099 C 
ATOM     33  C   UNL     1      33.321  -6.332 -22.384  0.00  0.00    +0.099 C 
ENDBRANCH  21  25
ENDBRANCH   1  22
BRANCH   1  34
ATOM     34  C   UNL     1      33.325 -14.255 -26.661  0.00  0.00    -0.072 C 
BRANCH  34  35
ATOM     35  N   UNL     1      33.803 -13.349 -27.702  0.00  0.00    +0.381 N 
ATOM     36  H   UNL     1      34.815 -13.433 -27.788  0.00  0.00    -0.089 HD
ATOM     37  H   UNL     1      33.561 -12.390 -27.454  0.00  0.00    -0.089 HD
ATOM     38  H   UNL     1      33.364 -13.590 -28.590  0.00  0.00    -0.089 HD
ENDBRANCH  34  35
ENDBRANCH   1  34
TORSDOF 9
ENDMDL
