MODEL 1
REMARK VINA RESULT:     -11.7      0.000      0.000
REMARK  Name = 58507717
REMARK  2 active torsions:
REMARK  status: ('A' for Active; 'I' for Inactive)
REMARK    1  A    between atoms: C_18  and  C_21
REMARK    2  A    between atoms: C_22  and  C_31
REMARK                            x       y       z     vdW  Elec       q    Type
REMARK                         _______ _______ _______ _____ _____    ______ ____
ROOT
ATOM      1  O   UNL     1      29.961 -24.074 -14.442  0.00  0.00    -0.350 OA
ATOM      2  O   UNL     1      39.137 -26.194 -13.092  0.00  0.00    -0.350 OA
ATOM      3  N   UNL     1      32.624 -23.959 -15.334  0.00  0.00    -0.228 N 
ATOM      4  N   UNL     1      37.119 -25.012 -14.652  0.00  0.00    -0.228 N 
ATOM      5  N   UNL     1      34.862 -24.509 -14.964  0.00  0.00    -0.246 NA
ATOM      6  N   UNL     1      36.552 -23.507 -16.342  0.00  0.00    -0.260 NA
ATOM      7  N   UNL     1      34.240 -22.966 -16.694  0.00  0.00    -0.260 NA
ATOM      8  C   UNL     1      32.248 -24.855 -14.236  0.00  0.00    +0.135 C 
ATOM      9  C   UNL     1      31.718 -22.822 -15.551  0.00  0.00    +0.135 C 
ATOM     10  C   UNL     1      38.531 -24.846 -15.017  0.00  0.00    +0.135 C 
ATOM     11  C   UNL     1      36.872 -25.338 -13.241  0.00  0.00    +0.135 C 
ATOM     12  C   UNL     1      30.779 -25.240 -14.365  0.00  0.00    +0.164 C 
ATOM     13  C   UNL     1      30.277 -23.315 -15.610  0.00  0.00    +0.164 C 
ATOM     14  C   UNL     1      37.769 -26.495 -12.816  0.00  0.00    +0.164 C 
ATOM     15  C   UNL     1      39.340 -26.029 -14.495  0.00  0.00    +0.164 C 
ATOM     16  C   UNL     1      33.971 -23.804 -15.680  0.00  0.00    +0.224 C 
ATOM     17  C   UNL     1      36.132 -24.310 -15.352  0.00  0.00    +0.224 C 
ATOM     18  C   UNL     1      35.550 -22.867 -16.969  0.00  0.00    +0.164 C 
ENDROOT
BRANCH  18  21
ATOM     19  N   UNL     1      37.511 -20.388 -18.918  0.00  0.00    -0.229 NA
ATOM     20  N   UNL     1      37.124 -19.394 -21.048  0.00  0.00    -0.343 N 
ATOM     21  C   UNL     1      35.921 -21.985 -18.044  0.00  0.00    +0.110 C 
ATOM     22  C   UNL     1      35.140 -21.843 -19.186  0.00  0.00    +0.087 C 
ATOM     23  C   UNL     1      37.086 -21.241 -17.960  0.00  0.00    +0.112 C 
ATOM     24  C   UNL     1      35.544 -20.975 -20.194  0.00  0.00    +0.038 C 
ATOM     25  C   UNL     1      36.727 -20.277 -20.014  0.00  0.00    +0.125 C 
ATOM     26  H   UNL     1      37.958 -18.878 -20.962  0.00  0.00    +0.144 HD
ATOM     27  H   UNL     1      36.567 -19.298 -21.855  0.00  0.00    +0.144 HD
BRANCH  22  31
ATOM     28  F   UNL     1      33.266 -22.350 -20.559  0.00  0.00    -0.166 F 
ATOM     29  F   UNL     1      34.028 -23.957 -19.309  0.00  0.00    -0.166 F 
ATOM     30  F   UNL     1      32.928 -22.318 -18.412  0.00  0.00    -0.166 F 
ATOM     31  C   UNL     1      33.865 -22.604 -19.360  0.00  0.00    +0.419 C 
ENDBRANCH  22  31
ENDBRANCH  18  21
TORSDOF 2
ENDMDL
MODEL 2
REMARK VINA RESULT:     -11.4      3.060      6.025
REMARK  Name = 58507717
REMARK  2 active torsions:
REMARK  status: ('A' for Active; 'I' for Inactive)
REMARK    1  A    between atoms: C_18  and  C_21
REMARK    2  A    between atoms: C_22  and  C_31
REMARK                            x       y       z     vdW  Elec       q    Type
REMARK                         _______ _______ _______ _____ _____    ______ ____
ROOT
ATOM      1  O   UNL     1      29.945 -24.674 -14.207  0.00  0.00    -0.350 OA
ATOM      2  O   UNL     1      35.478 -20.816 -20.916  0.00  0.00    -0.350 OA
ATOM      3  N   UNL     1      32.517 -24.050 -15.153  0.00  0.00    -0.228 N 
ATOM      4  N   UNL     1      35.211 -22.149 -18.456  0.00  0.00    -0.228 N 
ATOM      5  N   UNL     1      33.833 -23.084 -16.821  0.00  0.00    -0.246 NA
ATOM      6  N   UNL     1      36.204 -23.450 -16.794  0.00  0.00    -0.260 NA
ATOM      7  N   UNL     1      34.819 -24.427 -15.094  0.00  0.00    -0.260 NA
ATOM      8  C   UNL     1      31.333 -23.448 -15.774  0.00  0.00    +0.135 C 
ATOM      9  C   UNL     1      32.275 -25.310 -14.435  0.00  0.00    +0.135 C 
ATOM     10  C   UNL     1      36.539 -21.937 -19.044  0.00  0.00    +0.135 C 
ATOM     11  C   UNL     1      34.093 -22.118 -19.409  0.00  0.00    +0.135 C 
ATOM     12  C   UNL     1      30.196 -23.383 -14.761  0.00  0.00    +0.164 C 
ATOM     13  C   UNL     1      31.088 -25.145 -13.493  0.00  0.00    +0.164 C 
ATOM     14  C   UNL     1      34.198 -20.874 -20.285  0.00  0.00    +0.164 C 
ATOM     15  C   UNL     1      36.514 -20.704 -19.941  0.00  0.00    +0.164 C 
ATOM     16  C   UNL     1      33.781 -23.844 -15.715  0.00  0.00    +0.224 C 
ATOM     17  C   UNL     1      35.077 -22.931 -17.304  0.00  0.00    +0.224 C 
ATOM     18  C   UNL     1      35.998 -24.187 -15.689  0.00  0.00    +0.164 C 
ENDROOT
BRANCH  18  21
ATOM     19  N   UNL     1      38.790 -26.567 -15.106  0.00  0.00    -0.229 NA
ATOM     20  N   UNL     1      40.500 -26.615 -13.450  0.00  0.00    -0.343 N 
ATOM     21  C   UNL     1      37.162 -24.780 -15.083  0.00  0.00    +0.110 C 
ATOM     22  C   UNL     1      37.775 -24.226 -13.964  0.00  0.00    +0.087 C 
ATOM     23  C   UNL     1      37.703 -25.941 -15.611  0.00  0.00    +0.112 C 
ATOM     24  C   UNL     1      38.895 -24.841 -13.417  0.00  0.00    +0.038 C 
ATOM     25  C   UNL     1      39.360 -25.999 -14.020  0.00  0.00    +0.125 C 
ATOM     26  H   UNL     1      40.865 -27.440 -13.846  0.00  0.00    +0.144 HD
ATOM     27  H   UNL     1      40.931 -26.219 -12.657  0.00  0.00    +0.144 HD
BRANCH  22  31
ATOM     28  F   UNL     1      37.096 -21.962 -14.222  0.00  0.00    -0.166 F 
ATOM     29  F   UNL     1      36.041 -23.137 -12.728  0.00  0.00    -0.166 F 
ATOM     30  F   UNL     1      38.075 -22.484 -12.354  0.00  0.00    -0.166 F 
ATOM     31  C   UNL     1      37.257 -22.977 -13.326  0.00  0.00    +0.419 C 
ENDBRANCH  22  31
ENDBRANCH  18  21
TORSDOF 2
ENDMDL
MODEL 3
REMARK VINA RESULT:     -11.3      1.877      2.279
REMARK  Name = 58507717
REMARK  2 active torsions:
REMARK  status: ('A' for Active; 'I' for Inactive)
REMARK    1  A    between atoms: C_18  and  C_21
REMARK    2  A    between atoms: C_22  and  C_31
REMARK                            x       y       z     vdW  Elec       q    Type
REMARK                         _______ _______ _______ _____ _____    ______ ____
ROOT
ATOM      1  O   UNL     1      29.683 -24.234 -14.182  0.00  0.00    -0.350 OA
ATOM      2  O   UNL     1      38.943 -26.158 -13.157  0.00  0.00    -0.350 OA
ATOM      3  N   UNL     1      32.298 -24.143 -15.209  0.00  0.00    -0.228 N 
ATOM      4  N   UNL     1      36.836 -25.099 -14.685  0.00  0.00    -0.228 N 
ATOM      5  N   UNL     1      34.559 -24.643 -14.916  0.00  0.00    -0.246 NA
ATOM      6  N   UNL     1      36.165 -23.708 -16.434  0.00  0.00    -0.260 NA
ATOM      7  N   UNL     1      33.831 -23.216 -16.704  0.00  0.00    -0.260 NA
ATOM      8  C   UNL     1      31.989 -24.974 -14.041  0.00  0.00    +0.135 C 
ATOM      9  C   UNL     1      31.366 -23.032 -15.450  0.00  0.00    +0.135 C 
ATOM     10  C   UNL     1      38.225 -24.939 -15.128  0.00  0.00    +0.135 C 
ATOM     11  C   UNL     1      36.662 -25.340 -13.247  0.00  0.00    +0.135 C 
ATOM     12  C   UNL     1      30.521 -25.384 -14.074  0.00  0.00    +0.164 C 
ATOM     13  C   UNL     1      29.931 -23.546 -15.408  0.00  0.00    +0.164 C 
ATOM     14  C   UNL     1      37.595 -26.458 -12.796  0.00  0.00    +0.164 C 
ATOM     15  C   UNL     1      39.076 -26.078 -14.576  0.00  0.00    +0.164 C 
ATOM     16  C   UNL     1      33.623 -23.994 -15.629  0.00  0.00    +0.224 C 
ATOM     17  C   UNL     1      35.806 -24.453 -15.377  0.00  0.00    +0.224 C 
ATOM     18  C   UNL     1      35.125 -23.119 -17.048  0.00  0.00    +0.164 C 
ENDROOT
BRANCH  18  21
ATOM     19  N   UNL     1      34.768 -21.525 -20.384  0.00  0.00    -0.229 NA
ATOM     20  N   UNL     1      36.170 -20.003 -21.563  0.00  0.00    -0.343 N 
ATOM     21  C   UNL     1      35.431 -22.300 -18.193  0.00  0.00    +0.110 C 
ATOM     22  C   UNL     1      36.588 -21.533 -18.264  0.00  0.00    +0.087 C 
ATOM     23  C   UNL     1      34.561 -22.263 -19.270  0.00  0.00    +0.112 C 
ATOM     24  C   UNL     1      36.836 -20.762 -19.394  0.00  0.00    +0.038 C 
ATOM     25  C   UNL     1      35.902 -20.792 -20.417  0.00  0.00    +0.125 C 
ATOM     26  H   UNL     1      35.534 -19.994 -22.314  0.00  0.00    +0.144 HD
ATOM     27  H   UNL     1      36.991 -19.462 -21.608  0.00  0.00    +0.144 HD
BRANCH  22  31
ATOM     28  F   UNL     1      38.449 -20.465 -17.238  0.00  0.00    -0.166 F 
ATOM     29  F   UNL     1      37.016 -21.423 -15.913  0.00  0.00    -0.166 F 
ATOM     30  F   UNL     1      38.367 -22.633 -17.103  0.00  0.00    -0.166 F 
ATOM     31  C   UNL     1      37.585 -21.517 -17.149  0.00  0.00    +0.419 C 
ENDBRANCH  22  31
ENDBRANCH  18  21
TORSDOF 2
ENDMDL
MODEL 4
REMARK VINA RESULT:     -10.7      3.066      6.634
REMARK  Name = 58507717
REMARK  2 active torsions:
REMARK  status: ('A' for Active; 'I' for Inactive)
REMARK    1  A    between atoms: C_18  and  C_21
REMARK    2  A    between atoms: C_22  and  C_31
REMARK                            x       y       z     vdW  Elec       q    Type
REMARK                         _______ _______ _______ _____ _____    ______ ____
ROOT
ATOM      1  O   UNL     1      35.374 -20.511 -20.676  0.00  0.00    -0.350 OA
ATOM      2  O   UNL     1      30.155 -24.258 -13.660  0.00  0.00    -0.350 OA
ATOM      3  N   UNL     1      35.174 -22.251 -18.478  0.00  0.00    -0.228 N 
ATOM      4  N   UNL     1      32.593 -24.078 -15.045  0.00  0.00    -0.228 N 
ATOM      5  N   UNL     1      33.852 -23.149 -16.777  0.00  0.00    -0.246 NA
ATOM      6  N   UNL     1      34.897 -24.445 -15.049  0.00  0.00    -0.260 NA
ATOM      7  N   UNL     1      36.225 -23.507 -16.815  0.00  0.00    -0.260 NA
ATOM      8  C   UNL     1      33.968 -21.666 -19.072  0.00  0.00    +0.135 C 
ATOM      9  C   UNL     1      36.417 -21.508 -18.726  0.00  0.00    +0.135 C 
ATOM     10  C   UNL     1      32.498 -24.866 -13.811  0.00  0.00    +0.135 C 
ATOM     11  C   UNL     1      31.573 -23.032 -15.199  0.00  0.00    +0.135 C 
ATOM     12  C   UNL     1      34.221 -21.341 -20.539  0.00  0.00    +0.164 C 
ATOM     13  C   UNL     1      36.541 -21.192 -20.212  0.00  0.00    +0.164 C 
ATOM     14  C   UNL     1      30.191 -23.619 -14.936  0.00  0.00    +0.164 C 
ATOM     15  C   UNL     1      31.066 -25.355 -13.621  0.00  0.00    +0.164 C 
ATOM     16  C   UNL     1      35.079 -23.004 -17.303  0.00  0.00    +0.224 C 
ATOM     17  C   UNL     1      33.839 -23.881 -15.651  0.00  0.00    +0.224 C 
ATOM     18  C   UNL     1      36.057 -24.216 -15.688  0.00  0.00    +0.164 C 
ENDROOT
BRANCH  18  21
ATOM     19  N   UNL     1      38.951 -26.493 -15.205  0.00  0.00    -0.229 NA
ATOM     20  N   UNL     1      40.645 -26.557 -13.532  0.00  0.00    -0.343 N 
ATOM     21  C   UNL     1      37.241 -24.788 -15.101  0.00  0.00    +0.110 C 
ATOM     22  C   UNL     1      37.816 -24.272 -13.945  0.00  0.00    +0.087 C 
ATOM     23  C   UNL     1      37.841 -25.890 -15.687  0.00  0.00    +0.112 C 
ATOM     24  C   UNL     1      38.958 -24.865 -13.419  0.00  0.00    +0.038 C 
ATOM     25  C   UNL     1      39.483 -25.963 -14.081  0.00  0.00    +0.125 C 
ATOM     26  H   UNL     1      41.052 -27.340 -13.969  0.00  0.00    +0.144 HD
ATOM     27  H   UNL     1      41.048 -26.188 -12.713  0.00  0.00    +0.144 HD
BRANCH  22  31
ATOM     28  F   UNL     1      36.892 -22.086 -14.105  0.00  0.00    -0.166 F 
ATOM     29  F   UNL     1      36.096 -23.375 -12.545  0.00  0.00    -0.166 F 
ATOM     30  F   UNL     1      38.079 -22.521 -12.337  0.00  0.00    -0.166 F 
ATOM     31  C   UNL     1      37.233 -23.087 -13.243  0.00  0.00    +0.419 C 
ENDBRANCH  22  31
ENDBRANCH  18  21
TORSDOF 2
ENDMDL
MODEL 5
REMARK VINA RESULT:      -9.9      2.930      5.912
REMARK  Name = 58507717
REMARK  2 active torsions:
REMARK  status: ('A' for Active; 'I' for Inactive)
REMARK    1  A    between atoms: C_18  and  C_21
REMARK    2  A    between atoms: C_22  and  C_31
REMARK                            x       y       z     vdW  Elec       q    Type
REMARK                         _______ _______ _______ _____ _____    ______ ____
ROOT
ATOM      1  O   UNL     1      29.040 -24.867 -15.186  0.00  0.00    -0.350 OA
ATOM      2  O   UNL     1      35.782 -21.264 -20.850  0.00  0.00    -0.350 OA
ATOM      3  N   UNL     1      31.697 -24.025 -15.546  0.00  0.00    -0.228 N 
ATOM      4  N   UNL     1      34.988 -22.253 -18.342  0.00  0.00    -0.228 N 
ATOM      5  N   UNL     1      33.316 -23.131 -16.971  0.00  0.00    -0.246 NA
ATOM      6  N   UNL     1      35.613 -23.147 -16.280  0.00  0.00    -0.260 NA
ATOM      7  N   UNL     1      33.921 -24.057 -14.841  0.00  0.00    -0.260 NA
ATOM      8  C   UNL     1      30.674 -23.694 -16.542  0.00  0.00    +0.135 C 
ATOM      9  C   UNL     1      31.395 -25.190 -14.702  0.00  0.00    +0.135 C 
ATOM     10  C   UNL     1      36.397 -21.941 -18.603  0.00  0.00    +0.135 C 
ATOM     11  C   UNL     1      34.175 -22.519 -19.536  0.00  0.00    +0.135 C 
ATOM     12  C   UNL     1      29.303 -23.646 -15.877  0.00  0.00    +0.164 C 
ATOM     13  C   UNL     1      29.986 -25.062 -14.135  0.00  0.00    +0.164 C 
ATOM     14  C   UNL     1      34.391 -21.412 -20.563  0.00  0.00    +0.164 C 
ATOM     15  C   UNL     1      36.495 -20.866 -19.680  0.00  0.00    +0.164 C 
ATOM     16  C   UNL     1      33.040 -23.723 -15.797  0.00  0.00    +0.224 C 
ATOM     17  C   UNL     1      34.622 -22.873 -17.142  0.00  0.00    +0.224 C 
ATOM     18  C   UNL     1      35.188 -23.740 -15.151  0.00  0.00    +0.164 C 
ENDROOT
BRANCH  18  21
ATOM     19  N   UNL     1      37.455 -23.378 -12.232  0.00  0.00    -0.229 NA
ATOM     20  N   UNL     1      39.076 -24.855 -11.301  0.00  0.00    -0.343 N 
ATOM     21  C   UNL     1      36.195 -24.067 -14.176  0.00  0.00    +0.110 C 
ATOM     22  C   UNL     1      36.868 -25.284 -14.189  0.00  0.00    +0.087 C 
ATOM     23  C   UNL     1      36.523 -23.156 -13.185  0.00  0.00    +0.112 C 
ATOM     24  C   UNL     1      37.834 -25.549 -13.224  0.00  0.00    +0.038 C 
ATOM     25  C   UNL     1      38.088 -24.571 -12.275  0.00  0.00    +0.125 C 
ATOM     26  H   UNL     1      39.288 -24.189 -10.607  0.00  0.00    +0.144 HD
ATOM     27  H   UNL     1      39.549 -25.718 -11.315  0.00  0.00    +0.144 HD
BRANCH  22  31
ATOM     28  F   UNL     1      36.456 -27.572 -14.688  0.00  0.00    -0.166 F 
ATOM     29  F   UNL     1      35.426 -26.102 -15.913  0.00  0.00    -0.166 F 
ATOM     30  F   UNL     1      37.554 -26.428 -16.174  0.00  0.00    -0.166 F 
ATOM     31  C   UNL     1      36.582 -26.325 -15.224  0.00  0.00    +0.419 C 
ENDBRANCH  22  31
ENDBRANCH  18  21
TORSDOF 2
ENDMDL
MODEL 6
REMARK VINA RESULT:      -9.7      2.935      6.918
REMARK  Name = 58507717
REMARK  2 active torsions:
REMARK  status: ('A' for Active; 'I' for Inactive)
REMARK    1  A    between atoms: C_18  and  C_21
REMARK    2  A    between atoms: C_22  and  C_31
REMARK                            x       y       z     vdW  Elec       q    Type
REMARK                         _______ _______ _______ _____ _____    ______ ____
ROOT
ATOM      1  O   UNL     1      36.020 -20.891 -20.564  0.00  0.00    -0.350 OA
ATOM      2  O   UNL     1      28.899 -24.470 -15.368  0.00  0.00    -0.350 OA
ATOM      3  N   UNL     1      35.164 -22.380 -18.340  0.00  0.00    -0.228 N 
ATOM      4  N   UNL     1      31.654 -24.128 -15.808  0.00  0.00    -0.228 N 
ATOM      5  N   UNL     1      33.384 -23.245 -17.102  0.00  0.00    -0.246 NA
ATOM      6  N   UNL     1      33.818 -24.187 -14.939  0.00  0.00    -0.260 NA
ATOM      7  N   UNL     1      35.624 -23.289 -16.241  0.00  0.00    -0.260 NA
ATOM      8  C   UNL     1      34.219 -22.031 -19.406  0.00  0.00    +0.135 C 
ATOM      9  C   UNL     1      36.346 -21.512 -18.242  0.00  0.00    +0.135 C 
ATOM     10  C   UNL     1      31.174 -24.777 -14.583  0.00  0.00    +0.135 C 
ATOM     11  C   UNL     1      30.682 -23.251 -16.474  0.00  0.00    +0.135 C 
ATOM     12  C   UNL     1      34.970 -21.844 -20.719  0.00  0.00    +0.164 C 
ATOM     13  C   UNL     1      36.983 -21.354 -19.618  0.00  0.00    +0.164 C 
ATOM     14  C   UNL     1      29.353 -23.982 -16.631  0.00  0.00    +0.164 C 
ATOM     15  C   UNL     1      29.818 -25.425 -14.841  0.00  0.00    +0.164 C 
ATOM     16  C   UNL     1      34.702 -23.000 -17.174  0.00  0.00    +0.224 C 
ATOM     17  C   UNL     1      33.015 -23.840 -15.956  0.00  0.00    +0.224 C 
ATOM     18  C   UNL     1      35.109 -23.881 -15.151  0.00  0.00    +0.164 C 
ENDROOT
BRANCH  18  21
ATOM     19  N   UNL     1      37.070 -23.594 -12.010  0.00  0.00    -0.229 NA
ATOM     20  N   UNL     1      38.667 -25.051 -11.009  0.00  0.00    -0.343 N 
ATOM     21  C   UNL     1      36.035 -24.221 -14.102  0.00  0.00    +0.110 C 
ATOM     22  C   UNL     1      36.765 -25.405 -14.117  0.00  0.00    +0.087 C 
ATOM     23  C   UNL     1      36.223 -23.357 -13.036  0.00  0.00    +0.112 C 
ATOM     24  C   UNL     1      37.647 -25.683 -13.079  0.00  0.00    +0.038 C 
ATOM     25  C   UNL     1      37.762 -24.754 -12.058  0.00  0.00    +0.125 C 
ATOM     26  H   UNL     1      38.780 -24.419 -10.263  0.00  0.00    +0.144 HD
ATOM     27  H   UNL     1      39.181 -25.890 -11.025  0.00  0.00    +0.144 HD
BRANCH  22  31
ATOM     28  F   UNL     1      37.637 -26.295 -16.142  0.00  0.00    -0.166 F 
ATOM     29  F   UNL     1      36.639 -27.691 -14.808  0.00  0.00    -0.166 F 
ATOM     30  F   UNL     1      35.473 -26.256 -15.941  0.00  0.00    -0.166 F 
ATOM     31  C   UNL     1      36.628 -26.394 -15.230  0.00  0.00    +0.419 C 
ENDBRANCH  22  31
ENDBRANCH  18  21
TORSDOF 2
ENDMDL
MODEL 7
REMARK VINA RESULT:      -8.9      3.034      6.007
REMARK  Name = 58507717
REMARK  2 active torsions:
REMARK  status: ('A' for Active; 'I' for Inactive)
REMARK    1  A    between atoms: C_18  and  C_21
REMARK    2  A    between atoms: C_22  and  C_31
REMARK                            x       y       z     vdW  Elec       q    Type
REMARK                         _______ _______ _______ _____ _____    ______ ____
ROOT
ATOM      1  O   UNL     1      36.474 -20.786 -20.991  0.00  0.00    -0.350 OA
ATOM      2  O   UNL     1      37.496 -25.865 -13.011  0.00  0.00    -0.350 OA
ATOM      3  N   UNL     1      35.347 -21.865 -18.652  0.00  0.00    -0.228 N 
ATOM      4  N   UNL     1      35.874 -24.358 -14.742  0.00  0.00    -0.228 N 
ATOM      5  N   UNL     1      35.649 -23.111 -16.702  0.00  0.00    -0.246 NA
ATOM      6  N   UNL     1      33.722 -23.794 -15.446  0.00  0.00    -0.260 NA
ATOM      7  N   UNL     1      33.451 -22.511 -17.456  0.00  0.00    -0.260 NA
ATOM      8  C   UNL     1      36.803 -21.838 -18.830  0.00  0.00    +0.135 C 
ATOM      9  C   UNL     1      34.565 -21.806 -19.895  0.00  0.00    +0.135 C 
ATOM     10  C   UNL     1      35.286 -25.051 -13.591  0.00  0.00    +0.135 C 
ATOM     11  C   UNL     1      37.156 -24.901 -15.211  0.00  0.00    +0.135 C 
ATOM     12  C   UNL     1      37.188 -20.693 -19.759  0.00  0.00    +0.164 C 
ATOM     13  C   UNL     1      35.069 -20.662 -20.767  0.00  0.00    +0.164 C 
ATOM     14  C   UNL     1      38.105 -25.071 -14.030  0.00  0.00    +0.164 C 
ATOM     15  C   UNL     1      36.335 -25.215 -12.497  0.00  0.00    +0.164 C 
ATOM     16  C   UNL     1      34.791 -22.526 -17.553  0.00  0.00    +0.224 C 
ATOM     17  C   UNL     1      35.043 -23.725 -15.673  0.00  0.00    +0.224 C 
ATOM     18  C   UNL     1      32.988 -23.164 -16.379  0.00  0.00    +0.164 C 
ENDROOT
BRANCH  18  21
ATOM     19  N   UNL     1      29.384 -22.606 -17.077  0.00  0.00    -0.229 NA
ATOM     20  N   UNL     1      27.430 -23.192 -15.847  0.00  0.00    -0.343 N 
ATOM     21  C   UNL     1      31.559 -23.195 -16.205  0.00  0.00    +0.110 C 
ATOM     22  C   UNL     1      30.963 -23.781 -15.094  0.00  0.00    +0.087 C 
ATOM     23  C   UNL     1      30.733 -22.625 -17.159  0.00  0.00    +0.112 C 
ATOM     24  C   UNL     1      29.578 -23.781 -14.974  0.00  0.00    +0.038 C 
ATOM     25  C   UNL     1      28.839 -23.186 -15.985  0.00  0.00    +0.125 C 
ATOM     26  H   UNL     1      26.866 -22.780 -16.541  0.00  0.00    +0.144 HD
ATOM     27  H   UNL     1      27.013 -23.608 -15.058  0.00  0.00    +0.144 HD
BRANCH  22  31
ATOM     28  F   UNL     1      31.010 -24.886 -12.988  0.00  0.00    -0.166 F 
ATOM     29  F   UNL     1      32.513 -25.482 -14.441  0.00  0.00    -0.166 F 
ATOM     30  F   UNL     1      32.676 -23.565 -13.439  0.00  0.00    -0.166 F 
ATOM     31  C   UNL     1      31.778 -24.416 -14.012  0.00  0.00    +0.419 C 
ENDBRANCH  22  31
ENDBRANCH  18  21
TORSDOF 2
ENDMDL
MODEL 8
REMARK VINA RESULT:      -8.9      3.024      6.695
REMARK  Name = 58507717
REMARK  2 active torsions:
REMARK  status: ('A' for Active; 'I' for Inactive)
REMARK    1  A    between atoms: C_18  and  C_21
REMARK    2  A    between atoms: C_22  and  C_31
REMARK                            x       y       z     vdW  Elec       q    Type
REMARK                         _______ _______ _______ _____ _____    ______ ____
ROOT
ATOM      1  O   UNL     1      37.824 -25.473 -13.192  0.00  0.00    -0.350 OA
ATOM      2  O   UNL     1      36.309 -20.333 -21.052  0.00  0.00    -0.350 OA
ATOM      3  N   UNL     1      36.030 -24.427 -15.086  0.00  0.00    -0.228 N 
ATOM      4  N   UNL     1      35.312 -21.903 -18.946  0.00  0.00    -0.228 N 
ATOM      5  N   UNL     1      35.709 -23.164 -17.023  0.00  0.00    -0.246 NA
ATOM      6  N   UNL     1      33.479 -22.546 -17.654  0.00  0.00    -0.260 NA
ATOM      7  N   UNL     1      33.847 -23.845 -15.670  0.00  0.00    -0.260 NA
ATOM      8  C   UNL     1      37.474 -24.402 -15.340  0.00  0.00    +0.135 C 
ATOM      9  C   UNL     1      35.646 -24.518 -13.670  0.00  0.00    +0.135 C 
ATOM     10  C   UNL     1      34.391 -21.227 -19.866  0.00  0.00    +0.135 C 
ATOM     11  C   UNL     1      36.656 -21.316 -18.862  0.00  0.00    +0.135 C 
ATOM     12  C   UNL     1      38.151 -25.536 -14.579  0.00  0.00    +0.164 C 
ATOM     13  C   UNL     1      36.419 -25.646 -12.998  0.00  0.00    +0.164 C 
ATOM     14  C   UNL     1      37.215 -21.108 -20.266  0.00  0.00    +0.164 C 
ATOM     15  C   UNL     1      35.071 -21.022 -21.216  0.00  0.00    +0.164 C 
ATOM     16  C   UNL     1      35.156 -23.782 -15.967  0.00  0.00    +0.224 C 
ATOM     17  C   UNL     1      34.810 -22.568 -17.822  0.00  0.00    +0.224 C 
ATOM     18  C   UNL     1      33.070 -23.204 -16.557  0.00  0.00    +0.164 C 
ENDROOT
BRANCH  18  21
ATOM     19  N   UNL     1      29.437 -22.613 -17.060  0.00  0.00    -0.229 NA
ATOM     20  N   UNL     1      27.547 -23.189 -15.730  0.00  0.00    -0.343 N 
ATOM     21  C   UNL     1      31.651 -23.224 -16.307  0.00  0.00    +0.110 C 
ATOM     22  C   UNL     1      31.110 -23.811 -15.169  0.00  0.00    +0.087 C 
ATOM     23  C   UNL     1      30.780 -22.643 -17.213  0.00  0.00    +0.112 C 
ATOM     24  C   UNL     1      29.733 -23.800 -14.975  0.00  0.00    +0.038 C 
ATOM     25  C   UNL     1      28.947 -23.194 -15.942  0.00  0.00    +0.125 C 
ATOM     26  H   UNL     1      26.950 -22.770 -16.391  0.00  0.00    +0.144 HD
ATOM     27  H   UNL     1      27.169 -23.606 -14.922  0.00  0.00    +0.144 HD
BRANCH  22  31
ATOM     28  F   UNL     1      31.254 -24.990 -13.108  0.00  0.00    -0.166 F 
ATOM     29  F   UNL     1      32.732 -25.483 -14.624  0.00  0.00    -0.166 F 
ATOM     30  F   UNL     1      32.864 -23.599 -13.556  0.00  0.00    -0.166 F 
ATOM     31  C   UNL     1      31.976 -24.457 -14.135  0.00  0.00    +0.419 C 
ENDBRANCH  22  31
ENDBRANCH  18  21
TORSDOF 2
ENDMDL
