MODEL 1
REMARK VINA RESULT:     -11.0      0.000      0.000
REMARK  Name = 10430040
REMARK  12 active torsions:
REMARK  status: ('A' for Active; 'I' for Inactive)
REMARK    1  A    between atoms: C_1  and  N_3
REMARK    2  A    between atoms: C_1  and  C_12
REMARK    3  A    between atoms: C_1  and  C_19
REMARK    4  A    between atoms: C_4  and  C_6
REMARK    5  A    between atoms: C_6  and  C_7
REMARK    6  A    between atoms: C_7  and  C_9
REMARK    7  A    between atoms: C_9  and  O_10
REMARK    8  A    between atoms: C_12  and  C_13
REMARK    9  A    between atoms: C_13  and  C_16
REMARK   10  A    between atoms: C_16  and  O_17
REMARK   11  A    between atoms: C_19  and  C_20
REMARK   12  A    between atoms: C_23  and  C_26
REMARK                            x       y       z     vdW  Elec       q    Type
REMARK                         _______ _______ _______ _____ _____    ______ ____
ROOT
ATOM      1  C   UNL     1      33.818 -22.842 -16.723  0.00  0.00    +0.076 C 
ENDROOT
BRANCH   1   3
ATOM      2  O   UNL     1      31.050 -22.349 -17.406  0.00  0.00    -0.275 OA
ATOM      3  N   UNL     1      32.657 -23.583 -16.268  0.00  0.00    -0.306 N 
ATOM      4  C   UNL     1      31.365 -23.268 -16.654  0.00  0.00    +0.223 C 
ATOM      5  H   UNL     1      32.794 -24.344 -15.659  0.00  0.00    +0.149 HD
BRANCH   4   6
ATOM      6  C   UNL     1      30.355 -24.210 -16.024  0.00  0.00    +0.097 C 
BRANCH   6   7
ATOM      7  C   UNL     1      29.015 -23.533 -15.757  0.00  0.00    +0.119 C 
BRANCH   7   9
ATOM      8  O   UNL     1      27.837 -24.206 -17.777  0.00  0.00    -0.250 OA
ATOM      9  C   UNL     1      28.225 -23.321 -17.028  0.00  0.00    +0.314 C 
BRANCH   9  10
ATOM     10  O   UNL     1      27.985 -22.003 -17.249  0.00  0.00    -0.480 OA
ATOM     11  H   UNL     1      28.666 -21.373 -17.112  0.00  0.00    +0.295 HD
ENDBRANCH   9  10
ENDBRANCH   7   9
ENDBRANCH   6   7
ENDBRANCH   4   6
ENDBRANCH   1   3
BRANCH   1  12
ATOM     12  C   UNL     1      34.910 -22.925 -15.636  0.00  0.00    +0.031 C 
BRANCH  12  13
ATOM     13  C   UNL     1      36.017 -23.962 -15.900  0.00  0.00    +0.101 C 
ATOM     14  C   UNL     1      37.323 -23.532 -15.236  0.00  0.00    +0.012 C 
BRANCH  13  16
ATOM     15  O   UNL     1      36.077 -26.394 -15.795  0.00  0.00    -0.250 OA
ATOM     16  C   UNL     1      35.640 -25.333 -15.368  0.00  0.00    +0.313 C 
BRANCH  16  17
ATOM     17  O   UNL     1      34.725 -25.264 -14.366  0.00  0.00    -0.480 OA
ATOM     18  H   UNL     1      34.383 -24.433 -14.102  0.00  0.00    +0.295 HD
ENDBRANCH  16  17
ENDBRANCH  13  16
ENDBRANCH  12  13
ENDBRANCH   1  12
BRANCH   1  19
ATOM     19  C   UNL     1      34.294 -23.377 -18.085  0.00  0.00    +0.046 C 
BRANCH  19  20
ATOM     20  C   UNL     1      34.498 -22.285 -19.110  0.00  0.00    -0.021 C 
ATOM     21  C   UNL     1      33.394 -21.668 -19.701  0.00  0.00    -0.004 C 
ATOM     22  C   UNL     1      35.789 -21.895 -19.467  0.00  0.00    -0.004 C 
ATOM     23  C   UNL     1      34.874 -20.269 -21.002  0.00  0.00    -0.000 C 
ATOM     24  C   UNL     1      33.583 -20.660 -20.646  0.00  0.00    -0.000 C 
ATOM     25  C   UNL     1      35.977 -20.887 -20.412  0.00  0.00    -0.000 C 
BRANCH  23  26
ATOM     26  C   UNL     1      35.069 -19.225 -21.982  0.00  0.00    -0.000 C 
ATOM     27  C   UNL     1      34.826 -19.480 -23.332  0.00  0.00    -0.000 C 
ATOM     28  C   UNL     1      35.499 -17.960 -21.579  0.00  0.00    -0.000 C 
ATOM     29  C   UNL     1      35.013 -18.472 -24.278  0.00  0.00    +0.000 C 
ATOM     30  C   UNL     1      35.686 -16.952 -22.525  0.00  0.00    +0.000 C 
ATOM     31  C   UNL     1      35.444 -17.208 -23.875  0.00  0.00    +0.000 C 
ENDBRANCH  23  26
ENDBRANCH  19  20
ENDBRANCH   1  19
TORSDOF 12
ENDMDL
MODEL 2
REMARK VINA RESULT:     -10.7      0.716      1.517
REMARK  Name = 10430040
REMARK  12 active torsions:
REMARK  status: ('A' for Active; 'I' for Inactive)
REMARK    1  A    between atoms: C_1  and  N_3
REMARK    2  A    between atoms: C_1  and  C_12
REMARK    3  A    between atoms: C_1  and  C_19
REMARK    4  A    between atoms: C_4  and  C_6
REMARK    5  A    between atoms: C_6  and  C_7
REMARK    6  A    between atoms: C_7  and  C_9
REMARK    7  A    between atoms: C_9  and  O_10
REMARK    8  A    between atoms: C_12  and  C_13
REMARK    9  A    between atoms: C_13  and  C_16
REMARK   10  A    between atoms: C_16  and  O_17
REMARK   11  A    between atoms: C_19  and  C_20
REMARK   12  A    between atoms: C_23  and  C_26
REMARK                            x       y       z     vdW  Elec       q    Type
REMARK                         _______ _______ _______ _____ _____    ______ ____
ROOT
ATOM      1  C   UNL     1      33.310 -22.920 -16.711  0.00  0.00    +0.076 C 
ENDROOT
BRANCH   1   3
ATOM      2  O   UNL     1      30.620 -22.103 -17.392  0.00  0.00    -0.275 OA
ATOM      3  N   UNL     1      32.072 -23.553 -16.303  0.00  0.00    -0.306 N 
ATOM      4  C   UNL     1      30.826 -23.084 -16.684  0.00  0.00    +0.223 C 
ATOM      5  H   UNL     1      32.119 -24.353 -15.731  0.00  0.00    +0.149 HD
BRANCH   4   6
ATOM      6  C   UNL     1      29.713 -23.942 -16.109  0.00  0.00    +0.097 C 
BRANCH   6   7
ATOM      7  C   UNL     1      28.441 -23.887 -16.950  0.00  0.00    +0.119 C 
BRANCH   7   9
ATOM      8  O   UNL     1      26.856 -22.675 -15.558  0.00  0.00    -0.250 OA
ATOM      9  C   UNL     1      27.555 -22.728 -16.560  0.00  0.00    +0.314 C 
BRANCH   9  10
ATOM     10  O   UNL     1      27.625 -21.722 -17.470  0.00  0.00    -0.480 OA
ATOM     11  H   UNL     1      27.918 -21.898 -18.342  0.00  0.00    +0.295 HD
ENDBRANCH   9  10
ENDBRANCH   7   9
ENDBRANCH   6   7
ENDBRANCH   4   6
ENDBRANCH   1   3
BRANCH   1  12
ATOM     12  C   UNL     1      34.358 -23.127 -15.597  0.00  0.00    +0.031 C 
BRANCH  12  13
ATOM     13  C   UNL     1      35.655 -23.826 -16.043  0.00  0.00    +0.101 C 
ATOM     14  C   UNL     1      36.859 -22.911 -15.825  0.00  0.00    +0.012 C 
BRANCH  13  16
ATOM     15  O   UNL     1      35.933 -26.231 -15.776  0.00  0.00    -0.250 OA
ATOM     16  C   UNL     1      35.890 -25.115 -15.275  0.00  0.00    +0.313 C 
BRANCH  16  17
ATOM     17  O   UNL     1      36.021 -24.902 -13.939  0.00  0.00    -0.480 OA
ATOM     18  H   UNL     1      35.263 -24.895 -13.390  0.00  0.00    +0.295 HD
ENDBRANCH  16  17
ENDBRANCH  13  16
ENDBRANCH  12  13
ENDBRANCH   1  12
BRANCH   1  19
ATOM     19  C   UNL     1      33.771 -23.473 -18.071  0.00  0.00    +0.046 C 
BRANCH  19  20
ATOM     20  C   UNL     1      34.089 -22.387 -19.073  0.00  0.00    -0.021 C 
ATOM     21  C   UNL     1      35.409 -22.172 -19.474  0.00  0.00    -0.004 C 
ATOM     22  C   UNL     1      33.064 -21.600 -19.598  0.00  0.00    -0.004 C 
ATOM     23  C   UNL     1      34.676 -20.383 -20.924  0.00  0.00    -0.000 C 
ATOM     24  C   UNL     1      35.701 -21.170 -20.399  0.00  0.00    -0.000 C 
ATOM     25  C   UNL     1      33.357 -20.599 -20.524  0.00  0.00    -0.000 C 
BRANCH  23  26
ATOM     26  C   UNL     1      34.980 -19.345 -21.883  0.00  0.00    -0.000 C 
ATOM     27  C   UNL     1      35.436 -18.102 -21.444  0.00  0.00    -0.000 C 
ATOM     28  C   UNL     1      34.818 -19.586 -23.248  0.00  0.00    -0.000 C 
ATOM     29  C   UNL     1      35.731 -17.100 -22.369  0.00  0.00    +0.000 C 
ATOM     30  C   UNL     1      35.113 -18.584 -24.173  0.00  0.00    +0.000 C 
ATOM     31  C   UNL     1      35.568 -17.341 -23.733  0.00  0.00    +0.000 C 
ENDBRANCH  23  26
ENDBRANCH  19  20
ENDBRANCH   1  19
TORSDOF 12
ENDMDL
MODEL 3
REMARK VINA RESULT:     -10.6      1.209      2.345
REMARK  Name = 10430040
REMARK  12 active torsions:
REMARK  status: ('A' for Active; 'I' for Inactive)
REMARK    1  A    between atoms: C_1  and  N_3
REMARK    2  A    between atoms: C_1  and  C_12
REMARK    3  A    between atoms: C_1  and  C_19
REMARK    4  A    between atoms: C_4  and  C_6
REMARK    5  A    between atoms: C_6  and  C_7
REMARK    6  A    between atoms: C_7  and  C_9
REMARK    7  A    between atoms: C_9  and  O_10
REMARK    8  A    between atoms: C_12  and  C_13
REMARK    9  A    between atoms: C_13  and  C_16
REMARK   10  A    between atoms: C_16  and  O_17
REMARK   11  A    between atoms: C_19  and  C_20
REMARK   12  A    between atoms: C_23  and  C_26
REMARK                            x       y       z     vdW  Elec       q    Type
REMARK                         _______ _______ _______ _____ _____    ______ ____
ROOT
ATOM      1  C   UNL     1      33.671 -22.832 -16.708  0.00  0.00    +0.076 C 
ENDROOT
BRANCH   1   3
ATOM      2  O   UNL     1      30.847 -22.454 -17.209  0.00  0.00    -0.275 OA
ATOM      3  N   UNL     1      32.572 -23.602 -16.159  0.00  0.00    -0.306 N 
ATOM      4  C   UNL     1      31.246 -23.343 -16.461  0.00  0.00    +0.223 C 
ATOM      5  H   UNL     1      32.778 -24.344 -15.545  0.00  0.00    +0.149 HD
BRANCH   4   6
ATOM      6  C   UNL     1      30.317 -24.305 -15.744  0.00  0.00    +0.097 C 
BRANCH   6   7
ATOM      7  C   UNL     1      31.072 -25.416 -15.021  0.00  0.00    +0.119 C 
BRANCH   7   9
ATOM      8  O   UNL     1      30.737 -24.557 -12.770  0.00  0.00    -0.250 OA
ATOM      9  C   UNL     1      31.484 -25.005 -13.627  0.00  0.00    +0.314 C 
BRANCH   9  10
ATOM     10  O   UNL     1      32.814 -25.196 -13.427  0.00  0.00    -0.480 OA
ATOM     11  H   UNL     1      33.111 -25.919 -12.910  0.00  0.00    +0.295 HD
ENDBRANCH   9  10
ENDBRANCH   7   9
ENDBRANCH   6   7
ENDBRANCH   4   6
ENDBRANCH   1   3
BRANCH   1  12
ATOM     12  C   UNL     1      34.833 -22.843 -15.694  0.00  0.00    +0.031 C 
BRANCH  12  13
ATOM     13  C   UNL     1      36.107 -23.567 -16.167  0.00  0.00    +0.101 C 
ATOM     14  C   UNL     1      37.327 -22.661 -16.012  0.00  0.00    +0.012 C 
BRANCH  13  16
ATOM     15  O   UNL     1      35.593 -25.303 -14.539  0.00  0.00    -0.250 OA
ATOM     16  C   UNL     1      36.355 -24.840 -15.377  0.00  0.00    +0.313 C 
BRANCH  16  17
ATOM     17  O   UNL     1      37.550 -25.410 -15.681  0.00  0.00    -0.480 OA
ATOM     18  H   UNL     1      38.342 -24.921 -15.578  0.00  0.00    +0.295 HD
ENDBRANCH  16  17
ENDBRANCH  13  16
ENDBRANCH  12  13
ENDBRANCH   1  12
BRANCH   1  19
ATOM     19  C   UNL     1      34.078 -23.387 -18.085  0.00  0.00    +0.046 C 
BRANCH  19  20
ATOM     20  C   UNL     1      34.322 -22.303 -19.110  0.00  0.00    -0.021 C 
ATOM     21  C   UNL     1      33.245 -21.611 -19.664  0.00  0.00    -0.004 C 
ATOM     22  C   UNL     1      35.626 -21.995 -19.503  0.00  0.00    -0.004 C 
ATOM     23  C   UNL     1      34.773 -20.303 -21.002  0.00  0.00    -0.000 C 
ATOM     24  C   UNL     1      33.470 -20.612 -20.609  0.00  0.00    -0.000 C 
ATOM     25  C   UNL     1      35.851 -20.995 -20.448  0.00  0.00    -0.000 C 
BRANCH  23  26
ATOM     26  C   UNL     1      35.007 -19.267 -21.982  0.00  0.00    -0.000 C 
ATOM     27  C   UNL     1      35.491 -18.022 -21.579  0.00  0.00    -0.000 C 
ATOM     28  C   UNL     1      34.750 -19.511 -23.332  0.00  0.00    -0.000 C 
ATOM     29  C   UNL     1      35.719 -17.022 -22.525  0.00  0.00    +0.000 C 
ATOM     30  C   UNL     1      34.977 -18.511 -24.278  0.00  0.00    +0.000 C 
ATOM     31  C   UNL     1      35.461 -17.266 -23.874  0.00  0.00    +0.000 C 
ENDBRANCH  23  26
ENDBRANCH  19  20
ENDBRANCH   1  19
TORSDOF 12
ENDMDL
MODEL 4
REMARK VINA RESULT:      -9.7      2.692      6.075
REMARK  Name = 10430040
REMARK  12 active torsions:
REMARK  status: ('A' for Active; 'I' for Inactive)
REMARK    1  A    between atoms: C_1  and  N_3
REMARK    2  A    between atoms: C_1  and  C_12
REMARK    3  A    between atoms: C_1  and  C_19
REMARK    4  A    between atoms: C_4  and  C_6
REMARK    5  A    between atoms: C_6  and  C_7
REMARK    6  A    between atoms: C_7  and  C_9
REMARK    7  A    between atoms: C_9  and  O_10
REMARK    8  A    between atoms: C_12  and  C_13
REMARK    9  A    between atoms: C_13  and  C_16
REMARK   10  A    between atoms: C_16  and  O_17
REMARK   11  A    between atoms: C_19  and  C_20
REMARK   12  A    between atoms: C_23  and  C_26
REMARK                            x       y       z     vdW  Elec       q    Type
REMARK                         _______ _______ _______ _____ _____    ______ ____
ROOT
ATOM      1  C   UNL     1      36.031 -24.400 -16.031  0.00  0.00    +0.076 C 
ENDROOT
BRANCH   1   3
ATOM      2  O   UNL     1      36.805 -27.174 -16.307  0.00  0.00    -0.275 OA
ATOM      3  N   UNL     1      36.963 -25.137 -15.201  0.00  0.00    -0.306 N 
ATOM      4  C   UNL     1      37.271 -26.470 -15.415  0.00  0.00    +0.223 C 
ATOM      5  H   UNL     1      37.398 -24.669 -14.452  0.00  0.00    +0.149 HD
BRANCH   4   6
ATOM      6  C   UNL     1      38.272 -26.978 -14.394  0.00  0.00    +0.097 C 
BRANCH   6   7
ATOM      7  C   UNL     1      39.378 -25.967 -14.109  0.00  0.00    +0.119 C 
BRANCH   7   9
ATOM      8  O   UNL     1      40.798 -25.944 -16.085  0.00  0.00    -0.250 OA
ATOM      9  C   UNL     1      40.625 -26.251 -14.914  0.00  0.00    +0.314 C 
BRANCH   9  10
ATOM     10  O   UNL     1      41.557 -26.902 -14.171  0.00  0.00    -0.480 OA
ATOM     11  H   UNL     1      41.513 -27.833 -14.073  0.00  0.00    +0.295 HD
ENDBRANCH   9  10
ENDBRANCH   7   9
ENDBRANCH   6   7
ENDBRANCH   4   6
ENDBRANCH   1   3
BRANCH   1  12
ATOM     12  C   UNL     1      34.595 -24.806 -15.637  0.00  0.00    +0.031 C 
BRANCH  12  13
ATOM     13  C   UNL     1      33.787 -23.720 -14.905  0.00  0.00    +0.101 C 
ATOM     14  C   UNL     1      32.590 -23.282 -15.747  0.00  0.00    +0.012 C 
BRANCH  13  16
ATOM     15  O   UNL     1      32.127 -24.061 -13.156  0.00  0.00    -0.250 OA
ATOM     16  C   UNL     1      33.271 -24.212 -13.564  0.00  0.00    +0.313 C 
BRANCH  16  17
ATOM     17  O   UNL     1      34.238 -24.826 -12.833  0.00  0.00    -0.480 OA
ATOM     18  H   UNL     1      34.179 -25.744 -12.655  0.00  0.00    +0.295 HD
ENDBRANCH  16  17
ENDBRANCH  13  16
ENDBRANCH  12  13
ENDBRANCH   1  12
BRANCH   1  19
ATOM     19  C   UNL     1      36.278 -22.887 -15.900  0.00  0.00    +0.046 C 
BRANCH  19  20
ATOM     20  C   UNL     1      36.249 -22.166 -17.228  0.00  0.00    -0.021 C 
ATOM     21  C   UNL     1      35.187 -22.369 -18.109  0.00  0.00    -0.004 C 
ATOM     22  C   UNL     1      37.286 -21.298 -17.573  0.00  0.00    -0.004 C 
ATOM     23  C   UNL     1      36.196 -20.836 -19.680  0.00  0.00    -0.000 C 
ATOM     24  C   UNL     1      35.161 -21.704 -19.334  0.00  0.00    -0.000 C 
ATOM     25  C   UNL     1      37.259 -20.632 -18.798  0.00  0.00    -0.000 C 
BRANCH  23  26
ATOM     26  C   UNL     1      36.169 -20.146 -20.950  0.00  0.00    -0.000 C 
ATOM     27  C   UNL     1      37.269 -19.391 -21.357  0.00  0.00    -0.000 C 
ATOM     28  C   UNL     1      35.044 -20.236 -21.769  0.00  0.00    -0.000 C 
ATOM     29  C   UNL     1      37.244 -18.725 -22.583  0.00  0.00    +0.000 C 
ATOM     30  C   UNL     1      35.019 -19.571 -22.996  0.00  0.00    +0.000 C 
ATOM     31  C   UNL     1      36.119 -18.815 -23.402  0.00  0.00    +0.000 C 
ENDBRANCH  23  26
ENDBRANCH  19  20
ENDBRANCH   1  19
TORSDOF 12
ENDMDL
MODEL 5
REMARK VINA RESULT:      -9.5      2.201      5.314
REMARK  Name = 10430040
REMARK  12 active torsions:
REMARK  status: ('A' for Active; 'I' for Inactive)
REMARK    1  A    between atoms: C_1  and  N_3
REMARK    2  A    between atoms: C_1  and  C_12
REMARK    3  A    between atoms: C_1  and  C_19
REMARK    4  A    between atoms: C_4  and  C_6
REMARK    5  A    between atoms: C_6  and  C_7
REMARK    6  A    between atoms: C_7  and  C_9
REMARK    7  A    between atoms: C_9  and  O_10
REMARK    8  A    between atoms: C_12  and  C_13
REMARK    9  A    between atoms: C_13  and  C_16
REMARK   10  A    between atoms: C_16  and  O_17
REMARK   11  A    between atoms: C_19  and  C_20
REMARK   12  A    between atoms: C_23  and  C_26
REMARK                            x       y       z     vdW  Elec       q    Type
REMARK                         _______ _______ _______ _____ _____    ______ ____
ROOT
ATOM      1  C   UNL     1      33.487 -23.605 -15.895  0.00  0.00    +0.076 C 
ENDROOT
BRANCH   1   3
ATOM      2  O   UNL     1      35.021 -24.536 -13.625  0.00  0.00    -0.275 OA
ATOM      3  N   UNL     1      34.844 -23.237 -15.543  0.00  0.00    -0.306 N 
ATOM      4  C   UNL     1      35.497 -23.740 -14.430  0.00  0.00    +0.223 C 
ATOM      5  H   UNL     1      35.325 -22.602 -16.123  0.00  0.00    +0.149 HD
BRANCH   4   6
ATOM      6  C   UNL     1      36.902 -23.180 -14.313  0.00  0.00    +0.097 C 
BRANCH   6   7
ATOM      7  C   UNL     1      37.826 -24.086 -13.506  0.00  0.00    +0.119 C 
BRANCH   7   9
ATOM      8  O   UNL     1      37.673 -24.367 -11.093  0.00  0.00    -0.250 OA
ATOM      9  C   UNL     1      37.917 -23.658 -12.060  0.00  0.00    +0.314 C 
BRANCH   9  10
ATOM     10  O   UNL     1      38.311 -22.363 -11.950  0.00  0.00    -0.480 OA
ATOM     11  H   UNL     1      38.362 -21.822 -12.713  0.00  0.00    +0.295 HD
ENDBRANCH   9  10
ENDBRANCH   7   9
ENDBRANCH   6   7
ENDBRANCH   4   6
ENDBRANCH   1   3
BRANCH   1  12
ATOM     12  C   UNL     1      32.560 -22.409 -15.591  0.00  0.00    +0.031 C 
BRANCH  12  13
ATOM     13  C   UNL     1      31.305 -22.749 -14.766  0.00  0.00    +0.101 C 
ATOM     14  C   UNL     1      30.231 -23.372 -15.656  0.00  0.00    +0.012 C 
BRANCH  13  16
ATOM     15  O   UNL     1      31.169 -24.859 -13.557  0.00  0.00    -0.250 OA
ATOM     16  C   UNL     1      31.619 -23.723 -13.644  0.00  0.00    +0.313 C 
BRANCH  16  17
ATOM     17  O   UNL     1      32.443 -23.184 -12.709  0.00  0.00    -0.480 OA
ATOM     18  H   UNL     1      32.120 -22.531 -12.120  0.00  0.00    +0.295 HD
ENDBRANCH  16  17
ENDBRANCH  13  16
ENDBRANCH  12  13
ENDBRANCH   1  12
BRANCH   1  19
ATOM     19  C   UNL     1      33.417 -24.053 -17.365  0.00  0.00    +0.046 C 
BRANCH  19  20
ATOM     20  C   UNL     1      33.982 -23.028 -18.322  0.00  0.00    -0.021 C 
ATOM     21  C   UNL     1      35.362 -22.832 -18.400  0.00  0.00    -0.004 C 
ATOM     22  C   UNL     1      33.124 -22.277 -19.127  0.00  0.00    -0.004 C 
ATOM     23  C   UNL     1      35.025 -21.137 -20.088  0.00  0.00    -0.000 C 
ATOM     24  C   UNL     1      35.882 -21.887 -19.284  0.00  0.00    -0.000 C 
ATOM     25  C   UNL     1      33.646 -21.333 -20.010  0.00  0.00    -0.000 C 
BRANCH  23  26
ATOM     26  C   UNL     1      35.565 -20.157 -21.004  0.00  0.00    -0.000 C 
ATOM     27  C   UNL     1      34.780 -19.674 -22.052  0.00  0.00    -0.000 C 
ATOM     28  C   UNL     1      36.870 -19.691 -20.839  0.00  0.00    -0.000 C 
ATOM     29  C   UNL     1      35.300 -18.728 -22.935  0.00  0.00    +0.000 C 
ATOM     30  C   UNL     1      37.390 -18.745 -21.722  0.00  0.00    +0.000 C 
ATOM     31  C   UNL     1      36.605 -18.263 -22.770  0.00  0.00    +0.000 C 
ENDBRANCH  23  26
ENDBRANCH  19  20
ENDBRANCH   1  19
TORSDOF 12
ENDMDL
MODEL 6
REMARK VINA RESULT:      -9.4      5.245      8.151
REMARK  Name = 10430040
REMARK  12 active torsions:
REMARK  status: ('A' for Active; 'I' for Inactive)
REMARK    1  A    between atoms: C_1  and  N_3
REMARK    2  A    between atoms: C_1  and  C_12
REMARK    3  A    between atoms: C_1  and  C_19
REMARK    4  A    between atoms: C_4  and  C_6
REMARK    5  A    between atoms: C_6  and  C_7
REMARK    6  A    between atoms: C_7  and  C_9
REMARK    7  A    between atoms: C_9  and  O_10
REMARK    8  A    between atoms: C_12  and  C_13
REMARK    9  A    between atoms: C_13  and  C_16
REMARK   10  A    between atoms: C_16  and  O_17
REMARK   11  A    between atoms: C_19  and  C_20
REMARK   12  A    between atoms: C_23  and  C_26
REMARK                            x       y       z     vdW  Elec       q    Type
REMARK                         _______ _______ _______ _____ _____    ______ ____
ROOT
ATOM      1  C   UNL     1      35.494 -24.744 -14.313  0.00  0.00    +0.076 C 
ENDROOT
BRANCH   1   3
ATOM      2  O   UNL     1      36.210 -26.949 -16.044  0.00  0.00    -0.275 OA
ATOM      3  N   UNL     1      36.794 -25.373 -14.440  0.00  0.00    -0.306 N 
ATOM      4  C   UNL     1      37.039 -26.429 -15.302  0.00  0.00    +0.223 C 
ATOM      5  H   UNL     1      37.537 -25.034 -13.890  0.00  0.00    +0.149 HD
BRANCH   4   6
ATOM      6  C   UNL     1      38.485 -26.883 -15.224  0.00  0.00    +0.097 C 
BRANCH   6   7
ATOM      7  C   UNL     1      39.351 -25.936 -14.400  0.00  0.00    +0.119 C 
BRANCH   7   9
ATOM      8  O   UNL     1      41.368 -24.630 -14.783  0.00  0.00    -0.250 OA
ATOM      9  C   UNL     1      40.565 -25.467 -15.168  0.00  0.00    +0.314 C 
BRANCH   9  10
ATOM     10  O   UNL     1      40.667 -26.098 -16.367  0.00  0.00    -0.480 OA
ATOM     11  H   UNL     1      40.227 -25.752 -17.118  0.00  0.00    +0.295 HD
ENDBRANCH   9  10
ENDBRANCH   7   9
ENDBRANCH   6   7
ENDBRANCH   4   6
ENDBRANCH   1   3
BRANCH   1  12
ATOM     12  C   UNL     1      35.476 -23.914 -13.013  0.00  0.00    +0.031 C 
BRANCH  12  13
ATOM     13  C   UNL     1      36.641 -24.192 -12.044  0.00  0.00    +0.101 C 
ATOM     14  C   UNL     1      37.483 -22.933 -11.844  0.00  0.00    +0.012 C 
BRANCH  13  16
ATOM     15  O   UNL     1      35.311 -25.534 -10.507  0.00  0.00    -0.250 OA
ATOM     16  C   UNL     1      36.142 -24.652 -10.685  0.00  0.00    +0.313 C 
BRANCH  16  17
ATOM     17  O   UNL     1      36.701 -23.951  -9.666  0.00  0.00    -0.480 OA
ATOM     18  H   UNL     1      36.761 -24.333  -8.812  0.00  0.00    +0.295 HD
ENDBRANCH  16  17
ENDBRANCH  13  16
ENDBRANCH  12  13
ENDBRANCH   1  12
BRANCH   1  19
ATOM     19  C   UNL     1      35.184 -23.901 -15.561  0.00  0.00    +0.046 C 
BRANCH  19  20
ATOM     20  C   UNL     1      33.706 -23.644 -15.748  0.00  0.00    -0.021 C 
ATOM     21  C   UNL     1      33.229 -23.173 -16.972  0.00  0.00    -0.004 C 
ATOM     22  C   UNL     1      32.819 -23.876 -14.696  0.00  0.00    -0.004 C 
ATOM     23  C   UNL     1      30.978 -23.170 -16.093  0.00  0.00    -0.000 C 
ATOM     24  C   UNL     1      31.865 -22.937 -17.144  0.00  0.00    -0.000 C 
ATOM     25  C   UNL     1      31.455 -23.640 -14.869  0.00  0.00    -0.000 C 
BRANCH  23  26
ATOM     26  C   UNL     1      29.565 -22.924 -16.271  0.00  0.00    -0.000 C 
ATOM     27  C   UNL     1      28.797 -22.460 -15.203  0.00  0.00    -0.000 C 
ATOM     28  C   UNL     1      28.968 -23.151 -17.512  0.00  0.00    -0.000 C 
ATOM     29  C   UNL     1      27.433 -22.222 -15.375  0.00  0.00    +0.000 C 
ATOM     30  C   UNL     1      27.604 -22.913 -17.684  0.00  0.00    +0.000 C 
ATOM     31  C   UNL     1      26.837 -22.449 -16.615  0.00  0.00    +0.000 C 
ENDBRANCH  23  26
ENDBRANCH  19  20
ENDBRANCH   1  19
TORSDOF 12
ENDMDL
MODEL 7
REMARK VINA RESULT:      -9.4      2.246      5.196
REMARK  Name = 10430040
REMARK  12 active torsions:
REMARK  status: ('A' for Active; 'I' for Inactive)
REMARK    1  A    between atoms: C_1  and  N_3
REMARK    2  A    between atoms: C_1  and  C_12
REMARK    3  A    between atoms: C_1  and  C_19
REMARK    4  A    between atoms: C_4  and  C_6
REMARK    5  A    between atoms: C_6  and  C_7
REMARK    6  A    between atoms: C_7  and  C_9
REMARK    7  A    between atoms: C_9  and  O_10
REMARK    8  A    between atoms: C_12  and  C_13
REMARK    9  A    between atoms: C_13  and  C_16
REMARK   10  A    between atoms: C_16  and  O_17
REMARK   11  A    between atoms: C_19  and  C_20
REMARK   12  A    between atoms: C_23  and  C_26
REMARK                            x       y       z     vdW  Elec       q    Type
REMARK                         _______ _______ _______ _____ _____    ______ ____
ROOT
ATOM      1  C   UNL     1      33.448 -23.572 -15.982  0.00  0.00    +0.076 C 
ENDROOT
BRANCH   1   3
ATOM      2  O   UNL     1      35.237 -24.465 -13.891  0.00  0.00    -0.275 OA
ATOM      3  N   UNL     1      34.792 -23.098 -15.716  0.00  0.00    -0.306 N 
ATOM      4  C   UNL     1      35.575 -23.591 -14.685  0.00  0.00    +0.223 C 
ATOM      5  H   UNL     1      35.166 -22.394 -16.294  0.00  0.00    +0.149 HD
BRANCH   4   6
ATOM      6  C   UNL     1      36.931 -22.910 -14.645  0.00  0.00    +0.097 C 
BRANCH   6   7
ATOM      7  C   UNL     1      37.924 -23.532 -15.621  0.00  0.00    +0.119 C 
BRANCH   7   9
ATOM      8  O   UNL     1      39.502 -24.755 -14.230  0.00  0.00    -0.250 OA
ATOM      9  C   UNL     1      38.591 -24.759 -15.045  0.00  0.00    +0.314 C 
BRANCH   9  10
ATOM     10  O   UNL     1      38.049 -25.900 -15.547  0.00  0.00    -0.480 OA
ATOM     11  H   UNL     1      38.373 -26.734 -15.271  0.00  0.00    +0.295 HD
ENDBRANCH   9  10
ENDBRANCH   7   9
ENDBRANCH   6   7
ENDBRANCH   4   6
ENDBRANCH   1   3
BRANCH   1  12
ATOM     12  C   UNL     1      32.449 -22.472 -15.566  0.00  0.00    +0.031 C 
BRANCH  12  13
ATOM     13  C   UNL     1      31.317 -22.938 -14.632  0.00  0.00    +0.101 C 
ATOM     14  C   UNL     1      30.262 -23.717 -15.415  0.00  0.00    +0.012 C 
BRANCH  13  16
ATOM     15  O   UNL     1      31.534 -25.005 -13.362  0.00  0.00    -0.250 OA
ATOM     16  C   UNL     1      31.840 -23.830 -13.519  0.00  0.00    +0.313 C 
BRANCH  16  17
ATOM     17  O   UNL     1      32.678 -23.168 -12.679  0.00  0.00    -0.480 OA
ATOM     18  H   UNL     1      32.331 -22.699 -11.946  0.00  0.00    +0.295 HD
ENDBRANCH  16  17
ENDBRANCH  13  16
ENDBRANCH  12  13
ENDBRANCH   1  12
BRANCH   1  19
ATOM     19  C   UNL     1      33.307 -23.976 -17.460  0.00  0.00    +0.046 C 
BRANCH  19  20
ATOM     20  C   UNL     1      33.900 -22.962 -18.410  0.00  0.00    -0.021 C 
ATOM     21  C   UNL     1      33.064 -22.179 -19.207  0.00  0.00    -0.004 C 
ATOM     22  C   UNL     1      35.285 -22.808 -18.490  0.00  0.00    -0.004 C 
ATOM     23  C   UNL     1      34.996 -21.089 -20.164  0.00  0.00    -0.000 C 
ATOM     24  C   UNL     1      33.612 -21.243 -20.083  0.00  0.00    -0.000 C 
ATOM     25  C   UNL     1      35.832 -21.871 -19.366  0.00  0.00    -0.000 C 
BRANCH  23  26
ATOM     26  C   UNL     1      35.564 -20.118 -21.072  0.00  0.00    -0.000 C 
ATOM     27  C   UNL     1      36.873 -19.673 -20.887  0.00  0.00    -0.000 C 
ATOM     28  C   UNL     1      34.804 -19.628 -22.135  0.00  0.00    -0.000 C 
ATOM     29  C   UNL     1      37.422 -18.737 -21.764  0.00  0.00    +0.000 C 
ATOM     30  C   UNL     1      35.354 -18.693 -23.012  0.00  0.00    +0.000 C 
ATOM     31  C   UNL     1      36.663 -18.247 -22.826  0.00  0.00    +0.000 C 
ENDBRANCH  23  26
ENDBRANCH  19  20
ENDBRANCH   1  19
TORSDOF 12
ENDMDL
MODEL 8
REMARK VINA RESULT:      -9.3      4.159      6.558
REMARK  Name = 10430040
REMARK  12 active torsions:
REMARK  status: ('A' for Active; 'I' for Inactive)
REMARK    1  A    between atoms: C_1  and  N_3
REMARK    2  A    between atoms: C_1  and  C_12
REMARK    3  A    between atoms: C_1  and  C_19
REMARK    4  A    between atoms: C_4  and  C_6
REMARK    5  A    between atoms: C_6  and  C_7
REMARK    6  A    between atoms: C_7  and  C_9
REMARK    7  A    between atoms: C_9  and  O_10
REMARK    8  A    between atoms: C_12  and  C_13
REMARK    9  A    between atoms: C_13  and  C_16
REMARK   10  A    between atoms: C_16  and  O_17
REMARK   11  A    between atoms: C_19  and  C_20
REMARK   12  A    between atoms: C_23  and  C_26
REMARK                            x       y       z     vdW  Elec       q    Type
REMARK                         _______ _______ _______ _____ _____    ______ ____
ROOT
ATOM      1  C   UNL     1      35.337 -24.898 -13.684  0.00  0.00    +0.076 C 
ENDROOT
BRANCH   1   3
ATOM      2  O   UNL     1      37.223 -26.876 -12.734  0.00  0.00    -0.275 OA
ATOM      3  N   UNL     1      36.394 -25.537 -14.442  0.00  0.00    -0.306 N 
ATOM      4  C   UNL     1      37.251 -26.478 -13.895  0.00  0.00    +0.223 C 
ATOM      5  H   UNL     1      36.508 -25.292 -15.389  0.00  0.00    +0.149 HD
BRANCH   4   6
ATOM      6  C   UNL     1      38.255 -26.973 -14.919  0.00  0.00    +0.097 C 
BRANCH   6   7
ATOM      7  C   UNL     1      39.264 -25.899 -15.314  0.00  0.00    +0.119 C 
BRANCH   7   9
ATOM      8  O   UNL     1      41.357 -26.681 -14.351  0.00  0.00    -0.250 OA
ATOM      9  C   UNL     1      40.448 -25.864 -14.376  0.00  0.00    +0.314 C 
BRANCH   9  10
ATOM     10  O   UNL     1      40.390 -24.792 -13.544  0.00  0.00    -0.480 OA
ATOM     11  H   UNL     1      39.875 -24.045 -13.777  0.00  0.00    +0.295 HD
ENDBRANCH   9  10
ENDBRANCH   7   9
ENDBRANCH   6   7
ENDBRANCH   4   6
ENDBRANCH   1   3
BRANCH   1  12
ATOM     12  C   UNL     1      35.826 -23.504 -13.238  0.00  0.00    +0.031 C 
BRANCH  12  13
ATOM     13  C   UNL     1      36.352 -23.428 -11.793  0.00  0.00    +0.101 C 
ATOM     14  C   UNL     1      35.799 -24.582 -10.959  0.00  0.00    +0.012 C 
BRANCH  13  16
ATOM     15  O   UNL     1      38.617 -22.589 -12.099  0.00  0.00    -0.250 OA
ATOM     16  C   UNL     1      37.869 -23.490 -11.744  0.00  0.00    +0.313 C 
BRANCH  16  17
ATOM     17  O   UNL     1      38.322 -24.684 -11.284  0.00  0.00    -0.480 OA
ATOM     18  H   UNL     1      38.738 -24.736 -10.446  0.00  0.00    +0.295 HD
ENDBRANCH  16  17
ENDBRANCH  13  16
ENDBRANCH  12  13
ENDBRANCH   1  12
BRANCH   1  19
ATOM     19  C   UNL     1      34.044 -24.836 -14.516  0.00  0.00    +0.046 C 
BRANCH  19  20
ATOM     20  C   UNL     1      34.185 -23.998 -15.765  0.00  0.00    -0.021 C 
ATOM     21  C   UNL     1      33.067 -23.732 -16.557  0.00  0.00    -0.004 C 
ATOM     22  C   UNL     1      35.434 -23.492 -16.129  0.00  0.00    -0.004 C 
ATOM     23  C   UNL     1      34.445 -22.451 -18.073  0.00  0.00    -0.000 C 
ATOM     24  C   UNL     1      33.198 -22.959 -17.710  0.00  0.00    -0.000 C 
ATOM     25  C   UNL     1      35.563 -22.718 -17.281  0.00  0.00    -0.000 C 
BRANCH  23  26
ATOM     26  C   UNL     1      34.581 -21.650 -19.268  0.00  0.00    -0.000 C 
ATOM     27  C   UNL     1      33.443 -21.186 -19.930  0.00  0.00    -0.000 C 
ATOM     28  C   UNL     1      35.849 -21.338 -19.760  0.00  0.00    -0.000 C 
ATOM     29  C   UNL     1      33.573 -20.411 -21.083  0.00  0.00    +0.000 C 
ATOM     30  C   UNL     1      35.979 -20.563 -20.913  0.00  0.00    +0.000 C 
ATOM     31  C   UNL     1      34.841 -20.100 -21.574  0.00  0.00    +0.000 C 
ENDBRANCH  23  26
ENDBRANCH  19  20
ENDBRANCH   1  19
TORSDOF 12
ENDMDL
MODEL 9
REMARK VINA RESULT:      -9.1      5.920      9.744
REMARK  Name = 10430040
REMARK  12 active torsions:
REMARK  status: ('A' for Active; 'I' for Inactive)
REMARK    1  A    between atoms: C_1  and  N_3
REMARK    2  A    between atoms: C_1  and  C_12
REMARK    3  A    between atoms: C_1  and  C_19
REMARK    4  A    between atoms: C_4  and  C_6
REMARK    5  A    between atoms: C_6  and  C_7
REMARK    6  A    between atoms: C_7  and  C_9
REMARK    7  A    between atoms: C_9  and  O_10
REMARK    8  A    between atoms: C_12  and  C_13
REMARK    9  A    between atoms: C_13  and  C_16
REMARK   10  A    between atoms: C_16  and  O_17
REMARK   11  A    between atoms: C_19  and  C_20
REMARK   12  A    between atoms: C_23  and  C_26
REMARK                            x       y       z     vdW  Elec       q    Type
REMARK                         _______ _______ _______ _____ _____    ______ ____
ROOT
ATOM      1  C   UNL     1      35.240 -17.353 -23.235  0.00  0.00    +0.076 C 
ENDROOT
BRANCH   1   3
ATOM      2  O   UNL     1      35.202 -14.462 -23.148  0.00  0.00    -0.275 OA
ATOM      3  N   UNL     1      34.923 -16.514 -22.096  0.00  0.00    -0.306 N 
ATOM      4  C   UNL     1      34.932 -15.131 -22.154  0.00  0.00    +0.223 C 
ATOM      5  H   UNL     1      34.690 -16.947 -21.243  0.00  0.00    +0.149 HD
BRANCH   4   6
ATOM      6  C   UNL     1      34.563 -14.518 -20.816  0.00  0.00    +0.097 C 
BRANCH   6   7
ATOM      7  C   UNL     1      33.055 -14.381 -20.633  0.00  0.00    +0.119 C 
BRANCH   7   9
ATOM      8  O   UNL     1      32.232 -12.091 -20.655  0.00  0.00    -0.250 OA
ATOM      9  C   UNL     1      32.522 -13.114 -21.260  0.00  0.00    +0.314 C 
BRANCH   9  10
ATOM     10  O   UNL     1      32.398 -13.241 -22.607  0.00  0.00    -0.480 OA
ATOM     11  H   UNL     1      31.696 -13.746 -22.968  0.00  0.00    +0.295 HD
ENDBRANCH   9  10
ENDBRANCH   7   9
ENDBRANCH   6   7
ENDBRANCH   4   6
ENDBRANCH   1   3
BRANCH   1  12
ATOM     12  C   UNL     1      35.574 -16.445 -24.436  0.00  0.00    +0.031 C 
BRANCH  12  13
ATOM     13  C   UNL     1      34.792 -16.753 -25.726  0.00  0.00    +0.101 C 
ATOM     14  C   UNL     1      33.897 -17.976 -25.531  0.00  0.00    +0.012 C 
BRANCH  13  16
ATOM     15  O   UNL     1      33.779 -15.190 -27.294  0.00  0.00    -0.250 OA
ATOM     16  C   UNL     1      33.916 -15.585 -26.144  0.00  0.00    +0.313 C 
BRANCH  16  17
ATOM     17  O   UNL     1      33.310 -14.989 -25.084  0.00  0.00    -0.480 OA
ATOM     18  H   UNL     1      32.508 -15.337 -24.747  0.00  0.00    +0.295 HD
ENDBRANCH  16  17
ENDBRANCH  13  16
ENDBRANCH  12  13
ENDBRANCH   1  12
BRANCH   1  19
ATOM     19  C   UNL     1      36.384 -18.321 -22.885  0.00  0.00    +0.046 C 
BRANCH  19  20
ATOM     20  C   UNL     1      36.018 -19.297 -21.790  0.00  0.00    -0.021 C 
ATOM     21  C   UNL     1      36.999 -19.759 -20.911  0.00  0.00    -0.004 C 
ATOM     22  C   UNL     1      34.701 -19.738 -21.660  0.00  0.00    -0.004 C 
ATOM     23  C   UNL     1      35.344 -21.100 -19.770  0.00  0.00    -0.000 C 
ATOM     24  C   UNL     1      36.661 -20.659 -19.901  0.00  0.00    -0.000 C 
ATOM     25  C   UNL     1      34.363 -20.638 -20.650  0.00  0.00    -0.000 C 
BRANCH  23  26
ATOM     26  C   UNL     1      34.993 -22.034 -18.724  0.00  0.00    -0.000 C 
ATOM     27  C   UNL     1      35.889 -22.284 -17.684  0.00  0.00    -0.000 C 
ATOM     28  C   UNL     1      33.758 -22.682 -18.752  0.00  0.00    -0.000 C 
ATOM     29  C   UNL     1      35.551 -23.184 -16.673  0.00  0.00    +0.000 C 
ATOM     30  C   UNL     1      33.420 -23.582 -17.741  0.00  0.00    +0.000 C 
ATOM     31  C   UNL     1      34.317 -23.834 -16.702  0.00  0.00    +0.000 C 
ENDBRANCH  23  26
ENDBRANCH  19  20
ENDBRANCH   1  19
TORSDOF 12
ENDMDL
