MODEL 1
REMARK VINA RESULT:     -11.5      0.000      0.000
REMARK  Name = 46937052
REMARK  7 active torsions:
REMARK  status: ('A' for Active; 'I' for Inactive)
REMARK    1  A    between atoms: O_1  and  C_3
REMARK    2  A    between atoms: O_1  and  C_17
REMARK    3  A    between atoms: C_4  and  C_11
REMARK    4  A    between atoms: C_17  and  C_18
REMARK    5  A    between atoms: C_18  and  N_19
REMARK    6  A    between atoms: C_18  and  C_23
REMARK    7  A    between atoms: C_23  and  C_25
REMARK                            x       y       z     vdW  Elec       q    Type
REMARK                         _______ _______ _______ _____ _____    ______ ____
ROOT
ATOM      1  O   UNL     1      35.683 -15.448 -23.503  0.00  0.00    -0.476 OA
ENDROOT
BRANCH   1   3
ATOM      2  N   UNL     1      34.587 -18.676 -24.833  0.00  0.00    -0.239 NA
ATOM      3  C   UNL     1      35.394 -16.787 -23.558  0.00  0.00    +0.158 C 
ATOM      4  C   UNL     1      35.294 -18.964 -22.539  0.00  0.00    +0.039 C 
ATOM      5  C   UNL     1      35.595 -17.609 -22.454  0.00  0.00    +0.042 C 
ATOM      6  C   UNL     1      34.893 -17.364 -24.713  0.00  0.00    +0.136 C 
ATOM      7  C   UNL     1      34.797 -19.443 -23.740  0.00  0.00    +0.101 C 
BRANCH   4  11
ATOM      8  N   UNL     1      36.663 -19.910 -20.830  0.00  0.00    -0.264 NA
ATOM      9  N   UNL     1      35.717 -22.411 -18.263  0.00  0.00    -0.150 NA
ATOM     10  N   UNL     1      34.358 -22.951 -18.225  0.00  0.00    -0.147 NA
ATOM     11  C   UNL     1      35.497 -19.870 -21.376  0.00  0.00    +0.078 C 
ATOM     12  C   UNL     1      34.502 -21.464 -19.927  0.00  0.00    +0.040 C 
ATOM     13  C   UNL     1      35.773 -21.559 -19.251  0.00  0.00    +0.107 C 
ATOM     14  C   UNL     1      36.954 -20.770 -19.680  0.00  0.00    +0.173 C 
ATOM     15  C   UNL     1      34.308 -20.667 -20.965  0.00  0.00    +0.022 C 
ATOM     16  C   UNL     1      33.681 -22.396 -19.189  0.00  0.00    +0.123 C 
ENDBRANCH   4  11
ENDBRANCH   1   3
BRANCH   1  17
ATOM     17  C   UNL     1      34.932 -14.595 -24.357  0.00  0.00    +0.184 C 
BRANCH  17  18
ATOM     18  C   UNL     1      34.396 -13.390 -23.573  0.00  0.00    -0.017 C 
BRANCH  18  19
ATOM     19  N   UNL     1      34.570 -12.192 -24.398  0.00  0.00    +0.384 N 
ATOM     20  H   UNL     1      33.960 -12.249 -25.213  0.00  0.00    -0.089 HD
ATOM     21  H   UNL     1      35.541 -12.127 -24.704  0.00  0.00    -0.089 HD
ATOM     22  H   UNL     1      34.330 -11.365 -23.851  0.00  0.00    -0.089 HD
ENDBRANCH  18  19
BRANCH  18  23
ATOM     23  C   UNL     1      32.901 -13.529 -23.192  0.00  0.00    +0.010 C 
BRANCH  23  25
ATOM     24  N   UNL     1      32.207 -13.542 -19.519  0.00  0.00    -0.244 NA
ATOM     25  C   UNL     1      32.579 -13.135 -21.809  0.00  0.00    -0.004 C 
ATOM     26  C   UNL     1      32.289 -11.974 -21.209  0.00  0.00    +0.011 C 
ATOM     27  C   UNL     1      32.058 -12.211 -19.799  0.00  0.00    +0.080 C 
ATOM     28  C   UNL     1      32.504 -14.064 -20.670  0.00  0.00    +0.094 C 
ATOM     29  C   UNL     1      32.199 -10.655 -21.783  0.00  0.00    -0.020 C 
ATOM     30  C   UNL     1      31.749 -11.202 -18.975  0.00  0.00    +0.015 C 
ATOM     31  C   UNL     1      31.630  -9.780 -19.487  0.00  0.00    -0.020 C 
ATOM     32  C   UNL     1      31.890  -9.625 -20.975  0.00  0.00    +0.052 C 
ENDBRANCH  23  25
ENDBRANCH  18  23
ENDBRANCH  17  18
ENDBRANCH   1  17
TORSDOF 7
ENDMDL
MODEL 2
REMARK VINA RESULT:     -11.4      3.090      6.187
REMARK  Name = 46937052
REMARK  7 active torsions:
REMARK  status: ('A' for Active; 'I' for Inactive)
REMARK    1  A    between atoms: O_1  and  C_3
REMARK    2  A    between atoms: O_1  and  C_17
REMARK    3  A    between atoms: C_4  and  C_11
REMARK    4  A    between atoms: C_17  and  C_18
REMARK    5  A    between atoms: C_18  and  N_19
REMARK    6  A    between atoms: C_18  and  C_23
REMARK    7  A    between atoms: C_23  and  C_25
REMARK                            x       y       z     vdW  Elec       q    Type
REMARK                         _______ _______ _______ _____ _____    ______ ____
ROOT
ATOM      1  O   UNL     1      33.989 -20.402 -21.295  0.00  0.00    -0.476 OA
ENDROOT
BRANCH   1   3
ATOM      2  N   UNL     1      36.104 -22.194 -18.908  0.00  0.00    -0.239 NA
ATOM      3  C   UNL     1      34.351 -21.153 -20.207  0.00  0.00    +0.158 C 
ATOM      4  C   UNL     1      33.794 -22.391 -18.222  0.00  0.00    +0.039 C 
ATOM      5  C   UNL     1      33.397 -21.633 -19.317  0.00  0.00    +0.042 C 
ATOM      6  C   UNL     1      35.680 -21.459 -19.960  0.00  0.00    +0.136 C 
ATOM      7  C   UNL     1      35.148 -22.642 -18.064  0.00  0.00    +0.101 C 
BRANCH   4  11
ATOM      8  N   UNL     1      31.549 -22.710 -17.483  0.00  0.00    -0.264 NA
ATOM      9  N   UNL     1      30.367 -24.472 -14.444  0.00  0.00    -0.150 NA
ATOM     10  N   UNL     1      31.329 -25.067 -13.516  0.00  0.00    -0.147 NA
ATOM     11  C   UNL     1      32.798 -22.919 -17.251  0.00  0.00    +0.078 C 
ATOM     12  C   UNL     1      32.465 -24.106 -15.223  0.00  0.00    +0.040 C 
ATOM     13  C   UNL     1      31.047 -23.925 -15.416  0.00  0.00    +0.107 C 
ATOM     14  C   UNL     1      30.499 -23.194 -16.585  0.00  0.00    +0.173 C 
ATOM     15  C   UNL     1      33.363 -23.638 -16.074  0.00  0.00    +0.022 C 
ATOM     16  C   UNL     1      32.524 -24.842 -13.982  0.00  0.00    +0.123 C 
ENDBRANCH   4  11
ENDBRANCH   1   3
BRANCH   1  17
ATOM     17  C   UNL     1      35.022 -20.052 -22.206  0.00  0.00    +0.184 C 
BRANCH  17  18
ATOM     18  C   UNL     1      35.099 -18.529 -22.370  0.00  0.00    -0.017 C 
BRANCH  18  19
ATOM     19  N   UNL     1      35.829 -17.980 -21.224  0.00  0.00    +0.384 N 
ATOM     20  H   UNL     1      36.128 -17.028 -21.437  0.00  0.00    -0.089 HD
ATOM     21  H   UNL     1      36.648 -18.558 -21.034  0.00  0.00    -0.089 HD
ATOM     22  H   UNL     1      35.221 -17.970 -20.406  0.00  0.00    -0.089 HD
ENDBRANCH  18  19
BRANCH  18  23
ATOM     23  C   UNL     1      35.805 -18.093 -23.677  0.00  0.00    +0.010 C 
BRANCH  23  25
ATOM     24  N   UNL     1      33.916 -16.298 -26.357  0.00  0.00    -0.244 NA
ATOM     25  C   UNL     1      35.077 -17.081 -24.463  0.00  0.00    -0.004 C 
ATOM     26  C   UNL     1      34.721 -15.809 -24.251  0.00  0.00    +0.011 C 
ATOM     27  C   UNL     1      34.005 -15.315 -25.409  0.00  0.00    +0.080 C 
ATOM     28  C   UNL     1      34.530 -17.304 -25.811  0.00  0.00    +0.094 C 
ATOM     29  C   UNL     1      34.960 -14.981 -23.096  0.00  0.00    -0.020 C 
ATOM     30  C   UNL     1      33.539 -14.061 -25.445  0.00  0.00    +0.015 C 
ATOM     31  C   UNL     1      33.743 -13.115 -24.278  0.00  0.00    -0.020 C 
ATOM     32  C   UNL     1      34.502 -13.716 -23.108  0.00  0.00    +0.052 C 
ENDBRANCH  23  25
ENDBRANCH  18  23
ENDBRANCH  17  18
ENDBRANCH   1  17
TORSDOF 7
ENDMDL
MODEL 3
REMARK VINA RESULT:     -11.3      1.772      9.102
REMARK  Name = 46937052
REMARK  7 active torsions:
REMARK  status: ('A' for Active; 'I' for Inactive)
REMARK    1  A    between atoms: O_1  and  C_3
REMARK    2  A    between atoms: O_1  and  C_17
REMARK    3  A    between atoms: C_4  and  C_11
REMARK    4  A    between atoms: C_17  and  C_18
REMARK    5  A    between atoms: C_18  and  N_19
REMARK    6  A    between atoms: C_18  and  C_23
REMARK    7  A    between atoms: C_23  and  C_25
REMARK                            x       y       z     vdW  Elec       q    Type
REMARK                         _______ _______ _______ _____ _____    ______ ____
ROOT
ATOM      1  O   UNL     1      35.994 -17.489 -23.506  0.00  0.00    -0.476 OA
ENDROOT
BRANCH   1   3
ATOM      2  N   UNL     1      34.063 -16.102 -26.286  0.00  0.00    -0.239 NA
ATOM      3  C   UNL     1      35.229 -16.614 -24.231  0.00  0.00    +0.158 C 
ATOM      4  C   UNL     1      34.064 -14.521 -24.457  0.00  0.00    +0.039 C 
ATOM      5  C   UNL     1      34.841 -15.389 -23.698  0.00  0.00    +0.042 C 
ATOM      6  C   UNL     1      34.817 -16.920 -25.518  0.00  0.00    +0.136 C 
ATOM      7  C   UNL     1      33.705 -14.922 -25.734  0.00  0.00    +0.101 C 
BRANCH   4  11
ATOM      8  N   UNL     1      34.062 -12.136 -24.496  0.00  0.00    -0.264 NA
ATOM      9  N   UNL     1      32.288  -9.812 -22.218  0.00  0.00    -0.150 NA
ATOM     10  N   UNL     1      31.474 -10.333 -21.120  0.00  0.00    -0.147 NA
ATOM     11  C   UNL     1      33.633 -13.204 -23.916  0.00  0.00    +0.078 C 
ATOM     12  C   UNL     1      32.364 -12.077 -22.257  0.00  0.00    +0.040 C 
ATOM     13  C   UNL     1      32.790 -10.836 -22.855  0.00  0.00    +0.107 C 
ATOM     14  C   UNL     1      33.688 -10.798 -24.035  0.00  0.00    +0.173 C 
ATOM     15  C   UNL     1      32.743 -13.256 -22.722  0.00  0.00    +0.022 C 
ATOM     16  C   UNL     1      31.535 -11.633 -21.161  0.00  0.00    +0.123 C 
ENDBRANCH   4  11
ENDBRANCH   1   3
BRANCH   1  17
ATOM     17  C   UNL     1      35.556 -17.783 -22.186  0.00  0.00    +0.184 C 
BRANCH  17  18
ATOM     18  C   UNL     1      35.053 -19.229 -22.098  0.00  0.00    -0.017 C 
BRANCH  18  19
ATOM     19  N   UNL     1      35.084 -19.810 -23.443  0.00  0.00    +0.384 N 
ATOM     20  H   UNL     1      34.671 -19.154 -24.106  0.00  0.00    -0.089 HD
ATOM     21  H   UNL     1      34.554 -20.681 -23.450  0.00  0.00    -0.089 HD
ATOM     22  H   UNL     1      36.051 -19.997 -23.709  0.00  0.00    -0.089 HD
ENDBRANCH  18  19
BRANCH  18  23
ATOM     23  C   UNL     1      35.899 -20.110 -21.146  0.00  0.00    +0.010 C 
BRANCH  23  25
ATOM     24  N   UNL     1      33.173 -22.120 -19.564  0.00  0.00    -0.244 NA
ATOM     25  C   UNL     1      35.115 -20.976 -20.247  0.00  0.00    -0.004 C 
ATOM     26  C   UNL     1      35.378 -21.623 -19.105  0.00  0.00    +0.011 C 
ATOM     27  C   UNL     1      34.190 -22.331 -18.674  0.00  0.00    +0.080 C 
ATOM     28  C   UNL     1      33.707 -21.345 -20.460  0.00  0.00    +0.094 C 
ATOM     29  C   UNL     1      36.606 -21.670 -18.352  0.00  0.00    -0.020 C 
ATOM     30  C   UNL     1      34.194 -23.059 -17.551  0.00  0.00    +0.015 C 
ATOM     31  C   UNL     1      35.439 -23.168 -16.692  0.00  0.00    -0.020 C 
ATOM     32  C   UNL     1      36.635 -22.395 -17.220  0.00  0.00    +0.052 C 
ENDBRANCH  23  25
ENDBRANCH  18  23
ENDBRANCH  17  18
ENDBRANCH   1  17
TORSDOF 7
ENDMDL
MODEL 4
REMARK VINA RESULT:     -11.3      4.344     10.539
REMARK  Name = 46937052
REMARK  7 active torsions:
REMARK  status: ('A' for Active; 'I' for Inactive)
REMARK    1  A    between atoms: O_1  and  C_3
REMARK    2  A    between atoms: O_1  and  C_17
REMARK    3  A    between atoms: C_4  and  C_11
REMARK    4  A    between atoms: C_17  and  C_18
REMARK    5  A    between atoms: C_18  and  N_19
REMARK    6  A    between atoms: C_18  and  C_23
REMARK    7  A    between atoms: C_23  and  C_25
REMARK                            x       y       z     vdW  Elec       q    Type
REMARK                         _______ _______ _______ _____ _____    ______ ____
ROOT
ATOM      1  O   UNL     1      33.157 -22.420 -19.101  0.00  0.00    -0.476 OA
ENDROOT
BRANCH   1   3
ATOM      2  N   UNL     1      36.694 -21.591 -19.533  0.00  0.00    -0.239 NA
ATOM      3  C   UNL     1      34.285 -21.791 -19.560  0.00  0.00    +0.158 C 
ATOM      4  C   UNL     1      35.363 -20.133 -20.929  0.00  0.00    +0.039 C 
ATOM      5  C   UNL     1      34.202 -20.752 -20.480  0.00  0.00    +0.042 C 
ATOM      6  C   UNL     1      35.543 -22.169 -19.121  0.00  0.00    +0.136 C 
ATOM      7  C   UNL     1      36.574 -20.586 -20.428  0.00  0.00    +0.101 C 
BRANCH   4  11
ATOM      8  N   UNL     1      35.625 -17.835 -21.513  0.00  0.00    -0.264 NA
ATOM      9  N   UNL     1      35.061 -16.233 -24.808  0.00  0.00    -0.150 NA
ATOM     10  N   UNL     1      34.608 -17.030 -25.947  0.00  0.00    -0.147 NA
ATOM     11  C   UNL     1      35.309 -19.018 -21.913  0.00  0.00    +0.078 C 
ATOM     12  C   UNL     1      34.830 -18.391 -24.151  0.00  0.00    +0.040 C 
ATOM     13  C   UNL     1      35.179 -17.039 -23.787  0.00  0.00    +0.107 C 
ATOM     14  C   UNL     1      35.603 -16.679 -22.411  0.00  0.00    +0.173 C 
ATOM     15  C   UNL     1      34.868 -19.391 -23.286  0.00  0.00    +0.022 C 
ATOM     16  C   UNL     1      34.480 -18.262 -25.546  0.00  0.00    +0.123 C 
ENDBRANCH   4  11
ENDBRANCH   1   3
BRANCH   1  17
ATOM     17  C   UNL     1      33.348 -23.495 -18.190  0.00  0.00    +0.184 C 
BRANCH  17  18
ATOM     18  C   UNL     1      32.970 -23.064 -16.768  0.00  0.00    -0.017 C 
BRANCH  18  19
ATOM     19  N   UNL     1      31.511 -23.122 -16.642  0.00  0.00    +0.384 N 
ATOM     20  H   UNL     1      31.192 -22.366 -16.037  0.00  0.00    -0.089 HD
ATOM     21  H   UNL     1      31.239 -24.019 -16.239  0.00  0.00    -0.089 HD
ATOM     22  H   UNL     1      31.086 -23.021 -17.565  0.00  0.00    -0.089 HD
ENDBRANCH  18  19
BRANCH  18  23
ATOM     23  C   UNL     1      33.607 -23.956 -15.674  0.00  0.00    +0.010 C 
BRANCH  23  25
ATOM     24  N   UNL     1      37.086 -22.606 -15.451  0.00  0.00    -0.244 NA
ATOM     25  C   UNL     1      35.069 -23.819 -15.541  0.00  0.00    -0.004 C 
ATOM     26  C   UNL     1      36.078 -24.679 -15.362  0.00  0.00    +0.011 C 
ATOM     27  C   UNL     1      37.326 -23.946 -15.305  0.00  0.00    +0.080 C 
ATOM     28  C   UNL     1      35.796 -22.540 -15.585  0.00  0.00    +0.094 C 
ATOM     29  C   UNL     1      36.034 -26.114 -15.235  0.00  0.00    -0.020 C 
ATOM     30  C   UNL     1      38.490 -24.583 -15.131  0.00  0.00    +0.015 C 
ATOM     31  C   UNL     1      38.544 -26.091 -14.988  0.00  0.00    -0.020 C 
ATOM     32  C   UNL     1      37.191 -26.777 -15.059  0.00  0.00    +0.052 C 
ENDBRANCH  23  25
ENDBRANCH  18  23
ENDBRANCH  17  18
ENDBRANCH   1  17
TORSDOF 7
ENDMDL
MODEL 5
REMARK VINA RESULT:     -11.3      3.249      6.150
REMARK  Name = 46937052
REMARK  7 active torsions:
REMARK  status: ('A' for Active; 'I' for Inactive)
REMARK    1  A    between atoms: O_1  and  C_3
REMARK    2  A    between atoms: O_1  and  C_17
REMARK    3  A    between atoms: C_4  and  C_11
REMARK    4  A    between atoms: C_17  and  C_18
REMARK    5  A    between atoms: C_18  and  N_19
REMARK    6  A    between atoms: C_18  and  C_23
REMARK    7  A    between atoms: C_23  and  C_25
REMARK                            x       y       z     vdW  Elec       q    Type
REMARK                         _______ _______ _______ _____ _____    ______ ____
ROOT
ATOM      1  O   UNL     1      35.700 -20.651 -20.866  0.00  0.00    -0.476 OA
ENDROOT
BRANCH   1   3
ATOM      2  N   UNL     1      32.963 -22.420 -19.203  0.00  0.00    -0.239 NA
ATOM      3  C   UNL     1      35.024 -21.382 -19.924  0.00  0.00    +0.158 C 
ATOM      4  C   UNL     1      34.949 -22.565 -17.831  0.00  0.00    +0.039 C 
ATOM      5  C   UNL     1      35.659 -21.824 -18.769  0.00  0.00    +0.042 C 
ATOM      6  C   UNL     1      33.687 -21.704 -20.092  0.00  0.00    +0.136 C 
ATOM      7  C   UNL     1      33.614 -22.833 -18.093  0.00  0.00    +0.101 C 
BRANCH   4  11
ATOM      8  N   UNL     1      36.886 -23.091 -16.542  0.00  0.00    -0.264 NA
ATOM      9  N   UNL     1      37.042 -24.413 -13.082  0.00  0.00    -0.150 NA
ATOM     10  N   UNL     1      35.811 -24.688 -12.342  0.00  0.00    -0.147 NA
ATOM     11  C   UNL     1      35.598 -23.052 -16.584  0.00  0.00    +0.078 C 
ATOM     12  C   UNL     1      35.265 -23.895 -14.391  0.00  0.00    +0.040 C 
ATOM     13  C   UNL     1      36.699 -23.959 -14.258  0.00  0.00    +0.107 C 
ATOM     14  C   UNL     1      37.611 -23.554 -15.356  0.00  0.00    +0.173 C 
ATOM     15  C   UNL     1      34.672 -23.469 -15.494  0.00  0.00    +0.022 C 
ATOM     16  C   UNL     1      34.806 -24.387 -13.113  0.00  0.00    +0.123 C 
ENDBRANCH   4  11
ENDBRANCH   1   3
BRANCH   1  17
ATOM     17  C   UNL     1      34.912 -19.937 -21.809  0.00  0.00    +0.184 C 
BRANCH  17  18
ATOM     18  C   UNL     1      35.482 -18.530 -22.027  0.00  0.00    -0.017 C 
BRANCH  18  19
ATOM     19  N   UNL     1      36.569 -18.320 -21.066  0.00  0.00    +0.384 N 
ATOM     20  H   UNL     1      36.459 -18.965 -20.283  0.00  0.00    -0.089 HD
ATOM     21  H   UNL     1      36.539 -17.360 -20.723  0.00  0.00    -0.089 HD
ATOM     22  H   UNL     1      37.465 -18.491 -21.524  0.00  0.00    -0.089 HD
ENDBRANCH  18  19
BRANCH  18  23
ATOM     23  C   UNL     1      36.025 -18.309 -23.461  0.00  0.00    +0.010 C 
BRANCH  23  25
ATOM     24  N   UNL     1      33.974 -16.749 -26.169  0.00  0.00    -0.244 NA
ATOM     25  C   UNL     1      35.236 -17.371 -24.280  0.00  0.00    -0.004 C 
ATOM     26  C   UNL     1      34.854 -16.097 -24.139  0.00  0.00    +0.011 C 
ATOM     27  C   UNL     1      34.076 -15.701 -25.295  0.00  0.00    +0.080 C 
ATOM     28  C   UNL     1      34.639 -17.700 -25.584  0.00  0.00    +0.094 C 
ATOM     29  C   UNL     1      35.120 -15.186 -23.054  0.00  0.00    -0.020 C 
ATOM     30  C   UNL     1      33.574 -14.464 -25.395  0.00  0.00    +0.015 C 
ATOM     31  C   UNL     1      33.802 -13.436 -24.304  0.00  0.00    -0.020 C 
ATOM     32  C   UNL     1      34.626 -13.937 -23.131  0.00  0.00    +0.052 C 
ENDBRANCH  23  25
ENDBRANCH  18  23
ENDBRANCH  17  18
ENDBRANCH   1  17
TORSDOF 7
ENDMDL
MODEL 6
REMARK VINA RESULT:     -11.1      4.177      7.965
REMARK  Name = 46937052
REMARK  7 active torsions:
REMARK  status: ('A' for Active; 'I' for Inactive)
REMARK    1  A    between atoms: O_1  and  C_3
REMARK    2  A    between atoms: O_1  and  C_17
REMARK    3  A    between atoms: C_4  and  C_11
REMARK    4  A    between atoms: C_17  and  C_18
REMARK    5  A    between atoms: C_18  and  N_19
REMARK    6  A    between atoms: C_18  and  C_23
REMARK    7  A    between atoms: C_23  and  C_25
REMARK                            x       y       z     vdW  Elec       q    Type
REMARK                         _______ _______ _______ _____ _____    ______ ____
ROOT
ATOM      1  O   UNL     1      33.143 -22.592 -19.069  0.00  0.00    -0.476 OA
ENDROOT
BRANCH   1   3
ATOM      2  N   UNL     1      32.000 -23.644 -15.757  0.00  0.00    -0.239 NA
ATOM      3  C   UNL     1      33.188 -23.024 -17.769  0.00  0.00    +0.158 C 
ATOM      4  C   UNL     1      34.415 -23.718 -15.820  0.00  0.00    +0.039 C 
ATOM      5  C   UNL     1      34.401 -23.280 -17.140  0.00  0.00    +0.042 C 
ATOM      6  C   UNL     1      32.026 -23.221 -17.041  0.00  0.00    +0.136 C 
ATOM      7  C   UNL     1      33.198 -23.883 -15.179  0.00  0.00    +0.101 C 
BRANCH   4  11
ATOM      8  N   UNL     1      36.504 -24.856 -15.642  0.00  0.00    -0.264 NA
ATOM      9  N   UNL     1      39.065 -24.534 -12.981  0.00  0.00    -0.150 NA
ATOM     10  N   UNL     1      38.847 -23.629 -11.854  0.00  0.00    -0.147 NA
ATOM     11  C   UNL     1      35.697 -24.000 -15.118  0.00  0.00    +0.078 C 
ATOM     12  C   UNL     1      37.056 -23.514 -13.235  0.00  0.00    +0.040 C 
ATOM     13  C   UNL     1      38.020 -24.450 -13.760  0.00  0.00    +0.107 C 
ATOM     14  C   UNL     1      37.788 -25.194 -15.023  0.00  0.00    +0.173 C 
ATOM     15  C   UNL     1      35.910 -23.257 -13.844  0.00  0.00    +0.022 C 
ATOM     16  C   UNL     1      37.688 -23.058 -12.019  0.00  0.00    +0.123 C 
ENDBRANCH   4  11
ENDBRANCH   1   3
BRANCH   1  17
ATOM     17  C   UNL     1      34.364 -22.135 -19.635  0.00  0.00    +0.184 C 
BRANCH  17  18
ATOM     18  C   UNL     1      34.093 -21.086 -20.720  0.00  0.00    -0.017 C 
BRANCH  18  19
ATOM     19  N   UNL     1      32.849 -20.388 -20.383  0.00  0.00    +0.384 N 
ATOM     20  H   UNL     1      32.958 -19.915 -19.486  0.00  0.00    -0.089 HD
ATOM     21  H   UNL     1      32.086 -21.062 -20.322  0.00  0.00    -0.089 HD
ATOM     22  H   UNL     1      32.639 -19.700 -21.106  0.00  0.00    -0.089 HD
ENDBRANCH  18  19
BRANCH  18  23
ATOM     23  C   UNL     1      35.234 -20.048 -20.860  0.00  0.00    +0.010 C 
BRANCH  23  25
ATOM     24  N   UNL     1      35.138 -18.967 -24.437  0.00  0.00    -0.244 NA
ATOM     25  C   UNL     1      35.193 -19.252 -22.100  0.00  0.00    -0.004 C 
ATOM     26  C   UNL     1      35.164 -17.941 -22.371  0.00  0.00    +0.011 C 
ATOM     27  C   UNL     1      35.130 -17.753 -23.807  0.00  0.00    +0.080 C 
ATOM     28  C   UNL     1      35.175 -19.819 -23.458  0.00  0.00    +0.094 C 
ATOM     29  C   UNL     1      35.162 -16.827 -21.458  0.00  0.00    -0.020 C 
ATOM     30  C   UNL     1      35.096 -16.524 -24.338  0.00  0.00    +0.015 C 
ATOM     31  C   UNL     1      35.093 -15.290 -23.457  0.00  0.00    -0.020 C 
ATOM     32  C   UNL     1      35.128 -15.582 -21.967  0.00  0.00    +0.052 C 
ENDBRANCH  23  25
ENDBRANCH  18  23
ENDBRANCH  17  18
ENDBRANCH   1  17
TORSDOF 7
ENDMDL
MODEL 7
REMARK VINA RESULT:     -11.1      4.393      9.980
REMARK  Name = 46937052
REMARK  7 active torsions:
REMARK  status: ('A' for Active; 'I' for Inactive)
REMARK    1  A    between atoms: O_1  and  C_3
REMARK    2  A    between atoms: O_1  and  C_17
REMARK    3  A    between atoms: C_4  and  C_11
REMARK    4  A    between atoms: C_17  and  C_18
REMARK    5  A    between atoms: C_18  and  N_19
REMARK    6  A    between atoms: C_18  and  C_23
REMARK    7  A    between atoms: C_23  and  C_25
REMARK                            x       y       z     vdW  Elec       q    Type
REMARK                         _______ _______ _______ _____ _____    ______ ____
ROOT
ATOM      1  O   UNL     1      36.679 -22.478 -18.752  0.00  0.00    -0.476 OA
ENDROOT
BRANCH   1   3
ATOM      2  N   UNL     1      33.273 -21.820 -19.915  0.00  0.00    -0.239 NA
ATOM      3  C   UNL     1      35.640 -21.892 -19.427  0.00  0.00    +0.158 C 
ATOM      4  C   UNL     1      34.782 -20.241 -20.952  0.00  0.00    +0.039 C 
ATOM      5  C   UNL     1      35.856 -20.816 -20.281  0.00  0.00    +0.042 C 
ATOM      6  C   UNL     1      34.341 -22.352 -19.280  0.00  0.00    +0.136 C 
ATOM      7  C   UNL     1      33.522 -20.776 -20.737  0.00  0.00    +0.101 C 
BRANCH   4  11
ATOM      8  N   UNL     1      35.428 -17.985 -21.383  0.00  0.00    -0.264 NA
ATOM      9  N   UNL     1      35.402 -16.177 -24.619  0.00  0.00    -0.150 NA
ATOM     10  N   UNL     1      34.943 -16.848 -25.835  0.00  0.00    -0.147 NA
ATOM     11  C   UNL     1      34.980 -19.090 -21.874  0.00  0.00    +0.078 C 
ATOM     12  C   UNL     1      34.801 -18.302 -24.105  0.00  0.00    +0.040 C 
ATOM     13  C   UNL     1      35.310 -17.035 -23.639  0.00  0.00    +0.107 C 
ATOM     14  C   UNL     1      35.655 -16.802 -22.215  0.00  0.00    +0.173 C 
ATOM     15  C   UNL     1      34.615 -19.333 -23.297  0.00  0.00    +0.022 C 
ATOM     16  C   UNL     1      34.601 -18.063 -25.515  0.00  0.00    +0.123 C 
ENDBRANCH   4  11
ENDBRANCH   1   3
BRANCH   1  17
ATOM     17  C   UNL     1      36.872 -22.079 -17.402  0.00  0.00    +0.184 C 
BRANCH  17  18
ATOM     18  C   UNL     1      36.270 -23.116 -16.445  0.00  0.00    -0.017 C 
BRANCH  18  19
ATOM     19  N   UNL     1      37.369 -23.849 -15.812  0.00  0.00    +0.384 N 
ATOM     20  H   UNL     1      37.833 -24.433 -16.507  0.00  0.00    -0.089 HD
ATOM     21  H   UNL     1      36.999 -24.439 -15.066  0.00  0.00    -0.089 HD
ATOM     22  H   UNL     1      38.039 -23.187 -15.422  0.00  0.00    -0.089 HD
ENDBRANCH  18  19
BRANCH  18  23
ATOM     23  C   UNL     1      35.382 -22.484 -15.345  0.00  0.00    +0.010 C 
BRANCH  23  25
ATOM     24  N   UNL     1      33.442 -24.964 -13.330  0.00  0.00    -0.244 NA
ATOM     25  C   UNL     1      34.326 -23.369 -14.820  0.00  0.00    -0.004 C 
ATOM     26  C   UNL     1      33.062 -23.630 -15.173  0.00  0.00    +0.011 C 
ATOM     27  C   UNL     1      32.506 -24.610 -14.264  0.00  0.00    +0.080 C 
ATOM     28  C   UNL     1      34.479 -24.251 -13.653  0.00  0.00    +0.094 C 
ATOM     29  C   UNL     1      32.292 -23.079 -16.260  0.00  0.00    -0.020 C 
ATOM     30  C   UNL     1      31.247 -25.042 -14.405  0.00  0.00    +0.015 C 
ATOM     31  C   UNL     1      30.361 -24.521 -15.519  0.00  0.00    -0.020 C 
ATOM     32  C   UNL     1      31.024 -23.497 -16.422  0.00  0.00    +0.052 C 
ENDBRANCH  23  25
ENDBRANCH  18  23
ENDBRANCH  17  18
ENDBRANCH   1  17
TORSDOF 7
ENDMDL
MODEL 8
REMARK VINA RESULT:     -11.1      5.757      9.513
REMARK  Name = 46937052
REMARK  7 active torsions:
REMARK  status: ('A' for Active; 'I' for Inactive)
REMARK    1  A    between atoms: O_1  and  C_3
REMARK    2  A    between atoms: O_1  and  C_17
REMARK    3  A    between atoms: C_4  and  C_11
REMARK    4  A    between atoms: C_17  and  C_18
REMARK    5  A    between atoms: C_18  and  N_19
REMARK    6  A    between atoms: C_18  and  C_23
REMARK    7  A    between atoms: C_23  and  C_25
REMARK                            x       y       z     vdW  Elec       q    Type
REMARK                         _______ _______ _______ _____ _____    ______ ____
ROOT
ATOM      1  O   UNL     1      37.073 -23.451 -16.331  0.00  0.00    -0.476 OA
ENDROOT
BRANCH   1   3
ATOM      2  N   UNL     1      35.788 -24.233 -12.996  0.00  0.00    -0.239 NA
ATOM      3  C   UNL     1      36.184 -23.748 -15.331  0.00  0.00    +0.158 C 
ATOM      4  C   UNL     1      33.945 -24.170 -14.560  0.00  0.00    +0.039 C 
ATOM      5  C   UNL     1      34.824 -23.868 -15.594  0.00  0.00    +0.042 C 
ATOM      6  C   UNL     1      36.611 -23.937 -14.027  0.00  0.00    +0.136 C 
ATOM      7  C   UNL     1      34.473 -24.341 -13.290  0.00  0.00    +0.101 C 
BRANCH   4  11
ATOM      8  N   UNL     1      31.851 -25.260 -14.216  0.00  0.00    -0.264 NA
ATOM      9  N   UNL     1      28.557 -24.403 -15.685  0.00  0.00    -0.150 NA
ATOM     10  N   UNL     1      28.434 -23.278 -16.612  0.00  0.00    -0.147 NA
ATOM     11  C   UNL     1      32.484 -24.306 -14.808  0.00  0.00    +0.078 C 
ATOM     12  C   UNL     1      30.594 -23.444 -15.955  0.00  0.00    +0.040 C 
ATOM     13  C   UNL     1      29.810 -24.477 -15.324  0.00  0.00    +0.107 C 
ATOM     14  C   UNL     1      30.413 -25.469 -14.399  0.00  0.00    +0.173 C 
ATOM     15  C   UNL     1      31.895 -23.313 -15.749  0.00  0.00    +0.022 C 
ATOM     16  C   UNL     1      29.614 -22.746 -16.754  0.00  0.00    +0.123 C 
ENDBRANCH   4  11
ENDBRANCH   1   3
BRANCH   1  17
ATOM     17  C   UNL     1      37.670 -22.161 -16.296  0.00  0.00    +0.184 C 
BRANCH  17  18
ATOM     18  C   UNL     1      37.055 -21.256 -17.371  0.00  0.00    -0.017 C 
BRANCH  18  19
ATOM     19  N   UNL     1      37.930 -20.095 -17.551  0.00  0.00    +0.384 N 
ATOM     20  H   UNL     1      38.621 -20.299 -18.273  0.00  0.00    -0.089 HD
ATOM     21  H   UNL     1      38.408 -19.890 -16.673  0.00  0.00    -0.089 HD
ATOM     22  H   UNL     1      37.372 -19.289 -17.832  0.00  0.00    -0.089 HD
ENDBRANCH  18  19
BRANCH  18  23
ATOM     23  C   UNL     1      36.873 -21.969 -18.734  0.00  0.00    +0.010 C 
BRANCH  23  25
ATOM     24  N   UNL     1      33.842 -20.869 -20.625  0.00  0.00    -0.244 NA
ATOM     25  C   UNL     1      35.950 -21.295 -19.664  0.00  0.00    -0.004 C 
ATOM     26  C   UNL     1      36.091 -20.357 -20.609  0.00  0.00    +0.011 C 
ATOM     27  C   UNL     1      34.801 -20.085 -21.208  0.00  0.00    +0.080 C 
ATOM     28  C   UNL     1      34.504 -21.557 -19.744  0.00  0.00    +0.094 C 
ATOM     29  C   UNL     1      37.285 -19.670 -21.032  0.00  0.00    -0.020 C 
ATOM     30  C   UNL     1      34.674 -19.179 -22.184  0.00  0.00    +0.015 C 
ATOM     31  C   UNL     1      35.874 -18.407 -22.697  0.00  0.00    -0.020 C 
ATOM     32  C   UNL     1      37.184 -18.754 -22.012  0.00  0.00    +0.052 C 
ENDBRANCH  23  25
ENDBRANCH  18  23
ENDBRANCH  17  18
ENDBRANCH   1  17
TORSDOF 7
ENDMDL
MODEL 9
REMARK VINA RESULT:     -10.9      1.527      2.240
REMARK  Name = 46937052
REMARK  7 active torsions:
REMARK  status: ('A' for Active; 'I' for Inactive)
REMARK    1  A    between atoms: O_1  and  C_3
REMARK    2  A    between atoms: O_1  and  C_17
REMARK    3  A    between atoms: C_4  and  C_11
REMARK    4  A    between atoms: C_17  and  C_18
REMARK    5  A    between atoms: C_18  and  N_19
REMARK    6  A    between atoms: C_18  and  C_23
REMARK    7  A    between atoms: C_23  and  C_25
REMARK                            x       y       z     vdW  Elec       q    Type
REMARK                         _______ _______ _______ _____ _____    ______ ____
ROOT
ATOM      1  O   UNL     1      34.989 -14.002 -23.694  0.00  0.00    -0.476 OA
ENDROOT
BRANCH   1   3
ATOM      2  N   UNL     1      34.679 -17.139 -25.550  0.00  0.00    -0.239 NA
ATOM      3  C   UNL     1      35.000 -15.346 -23.960  0.00  0.00    +0.158 C 
ATOM      4  C   UNL     1      35.330 -17.628 -23.273  0.00  0.00    +0.039 C 
ATOM      5  C   UNL     1      35.326 -16.270 -22.974  0.00  0.00    +0.042 C 
ATOM      6  C   UNL     1      34.687 -15.828 -25.221  0.00  0.00    +0.136 C 
ATOM      7  C   UNL     1      35.002 -18.007 -24.565  0.00  0.00    +0.101 C 
BRANCH   4  11
ATOM      8  N   UNL     1      36.899 -18.723 -21.849  0.00  0.00    -0.264 NA
ATOM      9  N   UNL     1      36.274 -21.475 -19.445  0.00  0.00    -0.150 NA
ATOM     10  N   UNL     1      34.929 -22.030 -19.294  0.00  0.00    -0.147 NA
ATOM     11  C   UNL     1      35.674 -18.641 -22.240  0.00  0.00    +0.078 C 
ATOM     12  C   UNL     1      34.864 -20.381 -20.844  0.00  0.00    +0.040 C 
ATOM     13  C   UNL     1      36.209 -20.529 -20.344  0.00  0.00    +0.107 C 
ATOM     14  C   UNL     1      37.328 -19.689 -20.835  0.00  0.00    +0.173 C 
ATOM     15  C   UNL     1      34.544 -19.489 -21.767  0.00  0.00    +0.022 C 
ATOM     16  C   UNL     1      34.139 -21.390 -20.107  0.00  0.00    +0.123 C 
ENDBRANCH   4  11
ENDBRANCH   1   3
BRANCH   1  17
ATOM     17  C   UNL     1      34.091 -13.205 -24.455  0.00  0.00    +0.184 C 
BRANCH  17  18
ATOM     18  C   UNL     1      34.254 -11.723 -24.096  0.00  0.00    -0.017 C 
BRANCH  18  19
ATOM     19  N   UNL     1      35.138 -11.104 -25.087  0.00  0.00    +0.384 N 
ATOM     20  H   UNL     1      34.577 -10.709 -25.843  0.00  0.00    -0.089 HD
ATOM     21  H   UNL     1      35.771 -11.808 -25.465  0.00  0.00    -0.089 HD
ATOM     22  H   UNL     1      35.679 -10.362 -24.643  0.00  0.00    -0.089 HD
ENDBRANCH  18  19
BRANCH  18  23
ATOM     23  C   UNL     1      32.909 -10.954 -24.066  0.00  0.00    +0.010 C 
BRANCH  23  25
ATOM     24  N   UNL     1      32.143  -8.569 -21.291  0.00  0.00    -0.244 NA
ATOM     25  C   UNL     1      32.568 -10.360 -22.761  0.00  0.00    -0.004 C 
ATOM     26  C   UNL     1      32.288 -10.856 -21.550  0.00  0.00    +0.011 C 
ATOM     27  C   UNL     1      32.024  -9.764 -20.636  0.00  0.00    +0.080 C 
ATOM     28  C   UNL     1      32.453  -8.915 -22.504  0.00  0.00    +0.094 C 
ATOM     29  C   UNL     1      32.232 -12.232 -21.126  0.00  0.00    -0.020 C 
ATOM     30  C   UNL     1      31.717 -10.000 -19.355  0.00  0.00    +0.015 C 
ATOM     31  C   UNL     1      31.636 -11.415 -18.816  0.00  0.00    -0.020 C 
ATOM     32  C   UNL     1      31.925 -12.495 -19.842  0.00  0.00    +0.052 C 
ENDBRANCH  23  25
ENDBRANCH  18  23
ENDBRANCH  17  18
ENDBRANCH   1  17
TORSDOF 7
ENDMDL
