MODEL 1
REMARK VINA RESULT:     -12.2      0.000      0.000
REMARK  Name = 23629645
REMARK  6 active torsions:
REMARK  status: ('A' for Active; 'I' for Inactive)
REMARK    1  A    between atoms: N_1  and  C_6
REMARK    2  A    between atoms: N_1  and  C_21
REMARK    3  A    between atoms: C_3  and  C_16
REMARK    4  A    between atoms: C_11  and  C_18
REMARK    5  A    between atoms: C_18  and  O_19
REMARK    6  A    between atoms: C_21  and  C_28
REMARK                            x       y       z     vdW  Elec       q    Type
REMARK                         _______ _______ _______ _____ _____    ______ ____
ROOT
ATOM      1  N   UNL     1      35.928 -19.257 -22.505  0.00  0.00    -0.300 N 
ATOM      2  C   UNL     1      37.141 -18.496 -22.283  0.00  0.00    +0.113 C 
ENDROOT
BRANCH   1   6
ATOM      3  C   UNL     1      34.352 -21.678 -19.462  0.00  0.00    +0.054 C 
ATOM      4  C   UNL     1      35.726 -21.652 -19.685  0.00  0.00    +0.006 C 
ATOM      5  C   UNL     1      33.498 -20.905 -20.244  0.00  0.00    +0.006 C 
ATOM      6  C   UNL     1      35.398 -20.071 -21.481  0.00  0.00    +0.048 C 
ATOM      7  C   UNL     1      36.250 -20.846 -20.696  0.00  0.00    +0.015 C 
ATOM      8  C   UNL     1      34.021 -20.100 -21.256  0.00  0.00    +0.015 C 
BRANCH   3  16
ATOM      9  O   UNL     1      32.588 -22.727 -18.438  0.00  0.00    -0.270 OA
ATOM     10  N   UNL     1      34.676 -23.023 -17.430  0.00  0.00    -0.276 N 
ATOM     11  C   UNL     1      35.980 -22.959 -14.839  0.00  0.00    +0.102 C 
ATOM     12  C   UNL     1      34.495 -23.307 -14.997  0.00  0.00    +0.033 C 
ATOM     13  C   UNL     1      36.522 -22.171 -16.039  0.00  0.00    +0.033 C 
ATOM     14  C   UNL     1      34.169 -23.892 -16.371  0.00  0.00    +0.094 C 
ATOM     15  C   UNL     1      36.123 -22.784 -17.380  0.00  0.00    +0.094 C 
ATOM     16  C   UNL     1      33.800 -22.526 -18.397  0.00  0.00    +0.249 C 
BRANCH  11  18
ATOM     17  O   UNL     1      36.293 -25.294 -14.335  0.00  0.00    -0.250 OA
ATOM     18  C   UNL     1      36.782 -24.206 -14.604  0.00  0.00    +0.317 C 
BRANCH  18  19
ATOM     19  O   UNL     1      38.109 -23.925 -14.736  0.00  0.00    -0.444 OA
ATOM     20  C   UNL     1      38.959 -25.058 -14.948  0.00  0.00    +0.256 C 
ENDBRANCH  18  19
ENDBRANCH  11  18
ENDBRANCH   3  16
ENDBRANCH   1   6
BRANCH   1  21
ATOM     21  C   UNL     1      35.272 -19.182 -23.795  0.00  0.00    +0.148 C 
BRANCH  21  28
ATOM     22  N   UNL     1      34.967 -16.842 -23.237  0.00  0.00    -0.392 NA
ATOM     23  N   UNL     1      34.554 -16.179 -25.892  0.00  0.00    -0.200 NA
ATOM     24  N   UNL     1      34.270 -13.956 -25.308  0.00  0.00    -0.271 NA
ATOM     25  N   UNL     1      34.424 -13.253 -23.020  0.00  0.00    -0.310 NA
ATOM     26  N   UNL     1      34.873 -14.848 -21.336  0.00  0.00    -0.329 N 
ATOM     27  N   UNL     1      33.983 -11.702 -24.718  0.00  0.00    -0.283 N 
ATOM     28  C   UNL     1      35.000 -17.759 -24.205  0.00  0.00    +0.133 C 
ATOM     29  C   UNL     1      34.798 -17.448 -25.512  0.00  0.00    +0.193 C 
ATOM     30  C   UNL     1      34.722 -15.573 -23.619  0.00  0.00    +0.248 C 
ATOM     31  C   UNL     1      34.512 -15.224 -24.954  0.00  0.00    +0.131 C 
ATOM     32  C   UNL     1      34.665 -14.538 -22.705  0.00  0.00    +0.231 C 
ATOM     33  C   UNL     1      34.238 -13.035 -24.327  0.00  0.00    +0.207 C 
ATOM     34  H   UNL     1      34.839 -14.134 -20.659  0.00  0.00    +0.145 HD
ATOM     35  H   UNL     1      35.052 -15.777 -21.063  0.00  0.00    +0.145 HD
ATOM     36  H   UNL     1      33.838 -11.488 -25.669  0.00  0.00    +0.156 HD
ATOM     37  H   UNL     1      33.947 -10.989 -24.042  0.00  0.00    +0.156 HD
ENDBRANCH  21  28
ENDBRANCH   1  21
TORSDOF 6
ENDMDL
MODEL 2
REMARK VINA RESULT:     -12.0      1.299      2.273
REMARK  Name = 23629645
REMARK  6 active torsions:
REMARK  status: ('A' for Active; 'I' for Inactive)
REMARK    1  A    between atoms: N_1  and  C_6
REMARK    2  A    between atoms: N_1  and  C_21
REMARK    3  A    between atoms: C_3  and  C_16
REMARK    4  A    between atoms: C_11  and  C_18
REMARK    5  A    between atoms: C_18  and  O_19
REMARK    6  A    between atoms: C_21  and  C_28
REMARK                            x       y       z     vdW  Elec       q    Type
REMARK                         _______ _______ _______ _____ _____    ______ ____
ROOT
ATOM      1  N   UNL     1      35.320 -18.788 -22.916  0.00  0.00    -0.300 N 
ATOM      2  C   UNL     1      34.834 -19.025 -24.260  0.00  0.00    +0.113 C 
ENDROOT
BRANCH   1   6
ATOM      3  C   UNL     1      34.325 -21.419 -19.803  0.00  0.00    +0.054 C 
ATOM      4  C   UNL     1      35.655 -21.273 -20.189  0.00  0.00    +0.006 C 
ATOM      5  C   UNL     1      33.323 -20.697 -20.446  0.00  0.00    +0.006 C 
ATOM      6  C   UNL     1      34.985 -19.673 -21.869  0.00  0.00    +0.048 C 
ATOM      7  C   UNL     1      35.986 -20.398 -21.223  0.00  0.00    +0.015 C 
ATOM      8  C   UNL     1      33.654 -19.822 -21.481  0.00  0.00    +0.015 C 
BRANCH   3  16
ATOM      9  O   UNL     1      32.796 -22.678 -18.646  0.00  0.00    -0.270 OA
ATOM     10  N   UNL     1      34.992 -22.750 -17.846  0.00  0.00    -0.276 N 
ATOM     11  C   UNL     1      36.523 -22.577 -15.389  0.00  0.00    +0.102 C 
ATOM     12  C   UNL     1      35.079 -23.090 -15.415  0.00  0.00    +0.033 C 
ATOM     13  C   UNL     1      36.856 -21.715 -16.613  0.00  0.00    +0.033 C 
ATOM     14  C   UNL     1      34.690 -23.686 -16.768  0.00  0.00    +0.094 C 
ATOM     15  C   UNL     1      36.401 -22.348 -17.926  0.00  0.00    +0.094 C 
ATOM     16  C   UNL     1      33.977 -22.341 -18.714  0.00  0.00    +0.249 C 
BRANCH  11  18
ATOM     17  O   UNL     1      38.657 -23.679 -15.589  0.00  0.00    -0.250 OA
ATOM     18  C   UNL     1      37.479 -23.728 -15.262  0.00  0.00    +0.317 C 
BRANCH  18  19
ATOM     19  O   UNL     1      36.828 -24.804 -14.737  0.00  0.00    -0.444 OA
ATOM     20  C   UNL     1      37.374 -26.082 -15.082  0.00  0.00    +0.256 C 
ENDBRANCH  18  19
ENDBRANCH  11  18
ENDBRANCH   3  16
ENDBRANCH   1   6
BRANCH   1  21
ATOM     21  C   UNL     1      36.143 -17.623 -22.657  0.00  0.00    +0.148 C 
BRANCH  21  28
ATOM     22  N   UNL     1      34.870 -15.656 -23.281  0.00  0.00    -0.392 NA
ATOM     23  N   UNL     1      34.309 -15.079 -20.633  0.00  0.00    -0.200 NA
ATOM     24  N   UNL     1      33.104 -13.211 -21.281  0.00  0.00    -0.271 NA
ATOM     25  N   UNL     1      32.872 -12.635 -23.597  0.00  0.00    -0.310 NA
ATOM     26  N   UNL     1      33.886 -13.990 -25.245  0.00  0.00    -0.329 N 
ATOM     27  N   UNL     1      31.881 -11.317 -21.934  0.00  0.00    -0.283 N 
ATOM     28  C   UNL     1      35.315 -16.422 -22.284  0.00  0.00    +0.133 C 
ATOM     29  C   UNL     1      35.049 -16.150 -20.980  0.00  0.00    +0.193 C 
ATOM     30  C   UNL     1      34.131 -14.585 -22.933  0.00  0.00    +0.248 C 
ATOM     31  C   UNL     1      33.841 -14.282 -21.601  0.00  0.00    +0.131 C 
ATOM     32  C   UNL     1      33.615 -13.720 -23.878  0.00  0.00    +0.231 C 
ATOM     33  C   UNL     1      32.657 -12.441 -22.291  0.00  0.00    +0.207 C 
ATOM     34  H   UNL     1      33.533 -13.393 -25.944  0.00  0.00    +0.145 HD
ATOM     35  H   UNL     1      34.426 -14.775 -25.494  0.00  0.00    +0.145 HD
ATOM     36  H   UNL     1      31.694 -11.130 -20.986  0.00  0.00    +0.156 HD
ATOM     37  H   UNL     1      31.530 -10.720 -22.633  0.00  0.00    +0.156 HD
ENDBRANCH  21  28
ENDBRANCH   1  21
TORSDOF 6
ENDMDL
MODEL 3
REMARK VINA RESULT:     -11.2      4.917     10.175
REMARK  Name = 23629645
REMARK  6 active torsions:
REMARK  status: ('A' for Active; 'I' for Inactive)
REMARK    1  A    between atoms: N_1  and  C_6
REMARK    2  A    between atoms: N_1  and  C_21
REMARK    3  A    between atoms: C_3  and  C_16
REMARK    4  A    between atoms: C_11  and  C_18
REMARK    5  A    between atoms: C_18  and  O_19
REMARK    6  A    between atoms: C_21  and  C_28
REMARK                            x       y       z     vdW  Elec       q    Type
REMARK                         _______ _______ _______ _____ _____    ______ ____
ROOT
ATOM      1  N   UNL     1      35.683 -18.586 -23.483  0.00  0.00    -0.300 N 
ATOM      2  C   UNL     1      35.453 -19.504 -24.580  0.00  0.00    +0.113 C 
ENDROOT
BRANCH   1   6
ATOM      3  C   UNL     1      34.416 -14.595 -23.750  0.00  0.00    +0.054 C 
ATOM      4  C   UNL     1      34.917 -15.084 -22.546  0.00  0.00    +0.006 C 
ATOM      5  C   UNL     1      34.333 -15.424 -24.866  0.00  0.00    +0.006 C 
ATOM      6  C   UNL     1      35.257 -17.244 -23.573  0.00  0.00    +0.048 C 
ATOM      7  C   UNL     1      35.338 -16.411 -22.457  0.00  0.00    +0.015 C 
ATOM      8  C   UNL     1      34.754 -16.751 -24.777  0.00  0.00    +0.015 C 
BRANCH   3  16
ATOM      9  O   UNL     1      34.455 -12.536 -24.759  0.00  0.00    -0.270 OA
ATOM     10  N   UNL     1      33.057 -12.733 -22.896  0.00  0.00    -0.276 N 
ATOM     11  C   UNL     1      32.347 -11.375 -20.433  0.00  0.00    +0.102 C 
ATOM     12  C   UNL     1      32.855 -10.617 -21.664  0.00  0.00    +0.033 C 
ATOM     13  C   UNL     1      32.749 -12.855 -20.455  0.00  0.00    +0.033 C 
ATOM     14  C   UNL     1      32.572 -11.358 -22.971  0.00  0.00    +0.094 C 
ATOM     15  C   UNL     1      32.480 -13.523 -21.802  0.00  0.00    +0.094 C 
ATOM     16  C   UNL     1      33.971 -13.198 -23.843  0.00  0.00    +0.249 C 
BRANCH  11  18
ATOM     17  O   UNL     1      30.069 -11.444 -21.214  0.00  0.00    -0.250 OA
ATOM     18  C   UNL     1      30.859 -11.220 -20.308  0.00  0.00    +0.317 C 
BRANCH  18  19
ATOM     19  O   UNL     1      30.549 -10.799 -19.049  0.00  0.00    -0.444 OA
ATOM     20  C   UNL     1      31.512 -11.117 -18.039  0.00  0.00    +0.256 C 
ENDBRANCH  18  19
ENDBRANCH  11  18
ENDBRANCH   3  16
ENDBRANCH   1   6
BRANCH   1  21
ATOM     21  C   UNL     1      36.368 -19.060 -22.296  0.00  0.00    +0.148 C 
BRANCH  21  28
ATOM     22  N   UNL     1      36.045 -20.573 -20.429  0.00  0.00    -0.392 NA
ATOM     23  N   UNL     1      33.322 -20.709 -20.906  0.00  0.00    -0.200 NA
ATOM     24  N   UNL     1      33.066 -22.152 -19.112  0.00  0.00    -0.271 NA
ATOM     25  N   UNL     1      34.951 -22.826 -17.793  0.00  0.00    -0.310 NA
ATOM     26  N   UNL     1      37.103 -22.009 -18.327  0.00  0.00    -0.329 N 
ATOM     27  N   UNL     1      32.802 -23.613 -17.295  0.00  0.00    -0.283 N 
ATOM     28  C   UNL     1      35.470 -19.902 -21.428  0.00  0.00    +0.133 C 
ATOM     29  C   UNL     1      34.136 -19.960 -21.674  0.00  0.00    +0.193 C 
ATOM     30  C   UNL     1      35.230 -21.321 -19.661  0.00  0.00    +0.248 C 
ATOM     31  C   UNL     1      33.854 -21.400 -19.890  0.00  0.00    +0.131 C 
ATOM     32  C   UNL     1      35.710 -22.059 -18.596  0.00  0.00    +0.231 C 
ATOM     33  C   UNL     1      33.650 -22.826 -18.105  0.00  0.00    +0.207 C 
ATOM     34  H   UNL     1      37.477 -22.524 -17.576  0.00  0.00    +0.145 HD
ATOM     35  H   UNL     1      37.693 -21.460 -18.891  0.00  0.00    +0.145 HD
ATOM     36  H   UNL     1      31.836 -23.648 -17.482  0.00  0.00    +0.156 HD
ATOM     37  H   UNL     1      33.178 -24.128 -16.545  0.00  0.00    +0.156 HD
ENDBRANCH  21  28
ENDBRANCH   1  21
TORSDOF 6
ENDMDL
MODEL 4
REMARK VINA RESULT:     -11.1      1.666      3.029
REMARK  Name = 23629645
REMARK  6 active torsions:
REMARK  status: ('A' for Active; 'I' for Inactive)
REMARK    1  A    between atoms: N_1  and  C_6
REMARK    2  A    between atoms: N_1  and  C_21
REMARK    3  A    between atoms: C_3  and  C_16
REMARK    4  A    between atoms: C_11  and  C_18
REMARK    5  A    between atoms: C_18  and  O_19
REMARK    6  A    between atoms: C_21  and  C_28
REMARK                            x       y       z     vdW  Elec       q    Type
REMARK                         _______ _______ _______ _____ _____    ______ ____
ROOT
ATOM      1  N   UNL     1      35.551 -19.786 -21.421  0.00  0.00    -0.300 N 
ATOM      2  C   UNL     1      34.164 -19.854 -21.832  0.00  0.00    +0.113 C 
ENDROOT
BRANCH   1   6
ATOM      3  C   UNL     1      36.850 -21.816 -17.986  0.00  0.00    +0.054 C 
ATOM      4  C   UNL     1      35.732 -22.272 -18.680  0.00  0.00    +0.006 C 
ATOM      5  C   UNL     1      37.539 -20.688 -18.426  0.00  0.00    +0.006 C 
ATOM      6  C   UNL     1      35.988 -20.469 -20.266  0.00  0.00    +0.048 C 
ATOM      7  C   UNL     1      35.301 -21.598 -19.822  0.00  0.00    +0.015 C 
ATOM      8  C   UNL     1      37.107 -20.013 -19.568  0.00  0.00    +0.015 C 
BRANCH   3  16
ATOM      9  O   UNL     1      38.514 -22.726 -16.696  0.00  0.00    -0.270 OA
ATOM     10  N   UNL     1      36.344 -22.923 -15.850  0.00  0.00    -0.276 N 
ATOM     11  C   UNL     1      34.536 -24.852 -14.657  0.00  0.00    +0.102 C 
ATOM     12  C   UNL     1      36.058 -24.960 -14.508  0.00  0.00    +0.033 C 
ATOM     13  C   UNL     1      34.130 -24.002 -15.868  0.00  0.00    +0.033 C 
ATOM     14  C   UNL     1      36.760 -23.608 -14.630  0.00  0.00    +0.094 C 
ATOM     15  C   UNL     1      34.900 -22.685 -15.953  0.00  0.00    +0.094 C 
ATOM     16  C   UNL     1      37.304 -22.526 -16.783  0.00  0.00    +0.249 C 
BRANCH  11  18
ATOM     17  O   UNL     1      34.540 -24.187 -12.342  0.00  0.00    -0.250 OA
ATOM     18  C   UNL     1      33.929 -24.318 -13.393  0.00  0.00    +0.317 C 
BRANCH  18  19
ATOM     19  O   UNL     1      32.618 -24.013 -13.610  0.00  0.00    -0.444 OA
ATOM     20  C   UNL     1      31.722 -25.129 -13.635  0.00  0.00    +0.256 C 
ENDBRANCH  18  19
ENDBRANCH  11  18
ENDBRANCH   3  16
ENDBRANCH   1   6
BRANCH   1  21
ATOM     21  C   UNL     1      36.483 -18.997 -22.203  0.00  0.00    +0.148 C 
BRANCH  21  28
ATOM     22  N   UNL     1      35.521 -16.936 -23.043  0.00  0.00    -0.392 NA
ATOM     23  N   UNL     1      34.830 -18.140 -25.438  0.00  0.00    -0.200 NA
ATOM     24  N   UNL     1      33.925 -16.147 -26.194  0.00  0.00    -0.271 NA
ATOM     25  N   UNL     1      33.951 -14.181 -24.822  0.00  0.00    -0.310 NA
ATOM     26  N   UNL     1      34.914 -14.273 -22.666  0.00  0.00    -0.329 N 
ATOM     27  N   UNL     1      33.007 -14.128 -26.964  0.00  0.00    -0.283 N 
ATOM     28  C   UNL     1      35.787 -18.220 -23.288  0.00  0.00    +0.133 C 
ATOM     29  C   UNL     1      35.453 -18.824 -24.458  0.00  0.00    +0.193 C 
ATOM     30  C   UNL     1      34.898 -16.253 -24.023  0.00  0.00    +0.248 C 
ATOM     31  C   UNL     1      34.543 -16.847 -25.236  0.00  0.00    +0.131 C 
ATOM     32  C   UNL     1      34.573 -14.918 -23.884  0.00  0.00    +0.231 C 
ATOM     33  C   UNL     1      33.659 -14.852 -25.942  0.00  0.00    +0.207 C 
ATOM     34  H   UNL     1      34.696 -13.322 -22.535  0.00  0.00    +0.145 HD
ATOM     35  H   UNL     1      35.370 -14.777 -21.954  0.00  0.00    +0.145 HD
ATOM     36  H   UNL     1      32.770 -14.576 -27.808  0.00  0.00    +0.156 HD
ATOM     37  H   UNL     1      32.788 -13.178 -26.832  0.00  0.00    +0.156 HD
ENDBRANCH  21  28
ENDBRANCH   1  21
TORSDOF 6
ENDMDL
MODEL 5
REMARK VINA RESULT:     -11.1      9.260     15.057
REMARK  Name = 23629645
REMARK  6 active torsions:
REMARK  status: ('A' for Active; 'I' for Inactive)
REMARK    1  A    between atoms: N_1  and  C_6
REMARK    2  A    between atoms: N_1  and  C_21
REMARK    3  A    between atoms: C_3  and  C_16
REMARK    4  A    between atoms: C_11  and  C_18
REMARK    5  A    between atoms: C_18  and  O_19
REMARK    6  A    between atoms: C_21  and  C_28
REMARK                            x       y       z     vdW  Elec       q    Type
REMARK                         _______ _______ _______ _____ _____    ______ ____
ROOT
ATOM      1  N   UNL     1      31.980  -9.786 -20.842  0.00  0.00    -0.300 N 
ATOM      2  C   UNL     1      32.776  -9.870 -19.635  0.00  0.00    +0.113 C 
ENDROOT
BRANCH   1   6
ATOM      3  C   UNL     1      31.832  -6.218 -23.046  0.00  0.00    +0.054 C 
ATOM      4  C   UNL     1      32.273  -6.200 -21.725  0.00  0.00    +0.006 C 
ATOM      5  C   UNL     1      31.438  -7.415 -23.638  0.00  0.00    +0.006 C 
ATOM      6  C   UNL     1      31.930  -8.586 -21.583  0.00  0.00    +0.048 C 
ATOM      7  C   UNL     1      32.323  -7.386 -20.993  0.00  0.00    +0.015 C 
ATOM      8  C   UNL     1      31.487  -8.602 -22.906  0.00  0.00    +0.015 C 
BRANCH   3  16
ATOM      9  O   UNL     1      30.760  -4.294 -23.685  0.00  0.00    -0.270 OA
ATOM     10  N   UNL     1      32.865  -4.654 -24.635  0.00  0.00    -0.276 N 
ATOM     11  C   UNL     1      34.253  -4.578 -27.181  0.00  0.00    +0.102 C 
ATOM     12  C   UNL     1      33.038  -3.691 -26.888  0.00  0.00    +0.033 C 
ATOM     13  C   UNL     1      34.310  -5.806 -26.264  0.00  0.00    +0.033 C 
ATOM     14  C   UNL     1      32.861  -3.408 -25.396  0.00  0.00    +0.094 C 
ATOM     15  C   UNL     1      34.082  -5.459 -24.793  0.00  0.00    +0.094 C 
ATOM     16  C   UNL     1      31.779  -4.969 -23.817  0.00  0.00    +0.249 C 
BRANCH  11  18
ATOM     17  O   UNL     1      35.559  -2.553 -27.165  0.00  0.00    -0.250 OA
ATOM     18  C   UNL     1      35.517  -3.773 -27.087  0.00  0.00    +0.317 C 
BRANCH  18  19
ATOM     19  O   UNL     1      36.578  -4.610 -26.906  0.00  0.00    -0.444 OA
ATOM     20  C   UNL     1      37.838  -4.114 -27.370  0.00  0.00    +0.256 C 
ENDBRANCH  18  19
ENDBRANCH  11  18
ENDBRANCH   3  16
ENDBRANCH   1   6
BRANCH   1  21
ATOM     21  C   UNL     1      31.224 -10.946 -21.273  0.00  0.00    +0.148 C 
BRANCH  21  28
ATOM     22  N   UNL     1      32.756 -12.196 -22.676  0.00  0.00    -0.392 NA
ATOM     23  N   UNL     1      33.023 -14.175 -20.759  0.00  0.00    -0.200 NA
ATOM     24  N   UNL     1      34.482 -15.332 -22.137  0.00  0.00    -0.271 NA
ATOM     25  N   UNL     1      35.068 -14.483 -24.302  0.00  0.00    -0.310 NA
ATOM     26  N   UNL     1      34.147 -12.438 -25.044  0.00  0.00    -0.329 N 
ATOM     27  N   UNL     1      35.961 -16.506 -23.531  0.00  0.00    -0.283 N 
ATOM     28  C   UNL     1      32.111 -12.139 -21.510  0.00  0.00    +0.133 C 
ATOM     29  C   UNL     1      32.232 -13.103 -20.560  0.00  0.00    +0.193 C 
ATOM     30  C   UNL     1      33.546 -13.269 -22.874  0.00  0.00    +0.248 C 
ATOM     31  C   UNL     1      33.690 -14.275 -21.916  0.00  0.00    +0.131 C 
ATOM     32  C   UNL     1      34.264 -13.437 -24.042  0.00  0.00    +0.231 C 
ATOM     33  C   UNL     1      35.130 -15.385 -23.316  0.00  0.00    +0.207 C 
ATOM     34  H   UNL     1      34.645 -12.527 -25.888  0.00  0.00    +0.145 HD
ATOM     35  H   UNL     1      33.568 -11.656 -24.893  0.00  0.00    +0.145 HD
ATOM     36  H   UNL     1      36.042 -17.199 -22.836  0.00  0.00    +0.156 HD
ATOM     37  H   UNL     1      36.458 -16.595 -24.376  0.00  0.00    +0.156 HD
ENDBRANCH  21  28
ENDBRANCH   1  21
TORSDOF 6
ENDMDL
MODEL 6
REMARK VINA RESULT:     -11.1      1.624      2.767
REMARK  Name = 23629645
REMARK  6 active torsions:
REMARK  status: ('A' for Active; 'I' for Inactive)
REMARK    1  A    between atoms: N_1  and  C_6
REMARK    2  A    between atoms: N_1  and  C_21
REMARK    3  A    between atoms: C_3  and  C_16
REMARK    4  A    between atoms: C_11  and  C_18
REMARK    5  A    between atoms: C_18  and  O_19
REMARK    6  A    between atoms: C_21  and  C_28
REMARK                            x       y       z     vdW  Elec       q    Type
REMARK                         _______ _______ _______ _____ _____    ______ ____
ROOT
ATOM      1  N   UNL     1      34.597 -20.885 -20.394  0.00  0.00    -0.300 N 
ATOM      2  C   UNL     1      33.367 -20.548 -21.080  0.00  0.00    +0.113 C 
ENDROOT
BRANCH   1   6
ATOM      3  C   UNL     1      34.516 -23.226 -16.913  0.00  0.00    +0.054 C 
ATOM      4  C   UNL     1      35.692 -22.582 -17.288  0.00  0.00    +0.006 C 
ATOM      5  C   UNL     1      33.366 -23.097 -17.688  0.00  0.00    +0.006 C 
ATOM      6  C   UNL     1      34.570 -21.672 -19.223  0.00  0.00    +0.048 C 
ATOM      7  C   UNL     1      35.720 -21.803 -18.445  0.00  0.00    +0.015 C 
ATOM      8  C   UNL     1      33.393 -22.319 -18.845  0.00  0.00    +0.015 C 
BRANCH   3  16
ATOM      9  O   UNL     1      33.374 -24.320 -15.251  0.00  0.00    -0.270 OA
ATOM     10  N   UNL     1      35.706 -24.437 -15.136  0.00  0.00    -0.276 N 
ATOM     11  C   UNL     1      37.907 -24.155 -13.266  0.00  0.00    +0.102 C 
ATOM     12  C   UNL     1      36.509 -24.599 -12.820  0.00  0.00    +0.033 C 
ATOM     13  C   UNL     1      37.878 -23.404 -14.603  0.00  0.00    +0.033 C 
ATOM     14  C   UNL     1      35.719 -25.275 -13.940  0.00  0.00    +0.094 C 
ATOM     15  C   UNL     1      37.036 -24.111 -15.664  0.00  0.00    +0.094 C 
ATOM     16  C   UNL     1      34.488 -24.046 -15.695  0.00  0.00    +0.249 C 
BRANCH  11  18
ATOM     17  O   UNL     1      38.556 -26.444 -12.886  0.00  0.00    -0.250 OA
ATOM     18  C   UNL     1      38.829 -25.338 -13.331  0.00  0.00    +0.317 C 
BRANCH  18  19
ATOM     19  O   UNL     1      39.988 -24.979 -13.951  0.00  0.00    -0.444 OA
ATOM     20  C   UNL     1      40.537 -25.954 -14.843  0.00  0.00    +0.256 C 
ENDBRANCH  18  19
ENDBRANCH  11  18
ENDBRANCH   3  16
ENDBRANCH   1   6
BRANCH   1  21
ATOM     21  C   UNL     1      35.856 -20.392 -20.917  0.00  0.00    +0.148 C 
BRANCH  21  28
ATOM     22  N   UNL     1      35.384 -18.046 -21.304  0.00  0.00    -0.392 NA
ATOM     23  N   UNL     1      35.586 -18.374 -24.045  0.00  0.00    -0.200 NA
ATOM     24  N   UNL     1      35.130 -16.125 -24.362  0.00  0.00    -0.271 NA
ATOM     25  N   UNL     1      34.737 -14.672 -22.495  0.00  0.00    -0.310 NA
ATOM     26  N   UNL     1      34.813 -15.542 -20.300  0.00  0.00    -0.329 N 
ATOM     27  N   UNL     1      34.671 -13.846 -24.686  0.00  0.00    -0.283 N 
ATOM     28  C   UNL     1      35.659 -19.230 -21.853  0.00  0.00    +0.133 C 
ATOM     29  C   UNL     1      35.760 -19.405 -23.197  0.00  0.00    +0.193 C 
ATOM     30  C   UNL     1      35.210 -17.015 -22.154  0.00  0.00    +0.248 C 
ATOM     31  C   UNL     1      35.308 -17.165 -23.538  0.00  0.00    +0.131 C 
ATOM     32  C   UNL     1      34.923 -15.741 -21.702  0.00  0.00    +0.231 C 
ATOM     33  C   UNL     1      34.854 -14.932 -23.803  0.00  0.00    +0.207 C 
ATOM     34  H   UNL     1      34.609 -14.647 -19.945  0.00  0.00    +0.145 HD
ATOM     35  H   UNL     1      34.942 -16.299 -19.684  0.00  0.00    +0.145 HD
ATOM     36  H   UNL     1      34.746 -13.985 -25.658  0.00  0.00    +0.156 HD
ATOM     37  H   UNL     1      34.466 -12.952 -24.330  0.00  0.00    +0.156 HD
ENDBRANCH  21  28
ENDBRANCH   1  21
TORSDOF 6
ENDMDL
MODEL 7
REMARK VINA RESULT:     -10.9      1.610      3.203
REMARK  Name = 23629645
REMARK  6 active torsions:
REMARK  status: ('A' for Active; 'I' for Inactive)
REMARK    1  A    between atoms: N_1  and  C_6
REMARK    2  A    between atoms: N_1  and  C_21
REMARK    3  A    between atoms: C_3  and  C_16
REMARK    4  A    between atoms: C_11  and  C_18
REMARK    5  A    between atoms: C_18  and  O_19
REMARK    6  A    between atoms: C_21  and  C_28
REMARK                            x       y       z     vdW  Elec       q    Type
REMARK                         _______ _______ _______ _____ _____    ______ ____
ROOT
ATOM      1  N   UNL     1      35.063 -19.985 -21.561  0.00  0.00    -0.300 N 
ATOM      2  C   UNL     1      33.654 -20.100 -21.877  0.00  0.00    +0.113 C 
ENDROOT
BRANCH   1   6
ATOM      3  C   UNL     1      36.632 -21.840 -18.141  0.00  0.00    +0.054 C 
ATOM      4  C   UNL     1      35.407 -22.256 -18.654  0.00  0.00    +0.006 C 
ATOM      5  C   UNL     1      37.340 -20.811 -18.757  0.00  0.00    +0.006 C 
ATOM      6  C   UNL     1      35.591 -20.609 -20.411  0.00  0.00    +0.048 C 
ATOM      7  C   UNL     1      34.885 -21.640 -19.792  0.00  0.00    +0.015 C 
ATOM      8  C   UNL     1      36.818 -20.194 -19.894  0.00  0.00    +0.015 C 
BRANCH   3  16
ATOM      9  O   UNL     1      38.403 -22.620 -16.909  0.00  0.00    -0.270 OA
ATOM     10  N   UNL     1      36.289 -22.910 -15.954  0.00  0.00    -0.276 N 
ATOM     11  C   UNL     1      34.649 -24.899 -14.624  0.00  0.00    +0.102 C 
ATOM     12  C   UNL     1      36.180 -24.920 -14.546  0.00  0.00    +0.033 C 
ATOM     13  C   UNL     1      34.140 -24.108 -15.835  0.00  0.00    +0.033 C 
ATOM     14  C   UNL     1      36.799 -23.535 -14.737  0.00  0.00    +0.094 C 
ATOM     15  C   UNL     1      34.831 -22.754 -15.993  0.00  0.00    +0.094 C 
ATOM     16  C   UNL     1      37.181 -22.489 -16.943  0.00  0.00    +0.249 C 
BRANCH  11  18
ATOM     17  O   UNL     1      34.704 -24.251 -12.304  0.00  0.00    -0.250 OA
ATOM     18  C   UNL     1      34.073 -24.361 -13.346  0.00  0.00    +0.317 C 
BRANCH  18  19
ATOM     19  O   UNL     1      32.766 -24.027 -13.541  0.00  0.00    -0.444 OA
ATOM     20  C   UNL     1      31.846 -25.123 -13.551  0.00  0.00    +0.256 C 
ENDBRANCH  18  19
ENDBRANCH  11  18
ENDBRANCH   3  16
ENDBRANCH   1   6
BRANCH   1  21
ATOM     21  C   UNL     1      35.922 -19.210 -22.435  0.00  0.00    +0.148 C 
BRANCH  21  28
ATOM     22  N   UNL     1      35.207 -17.253 -23.674  0.00  0.00    -0.392 NA
ATOM     23  N   UNL     1      35.113 -15.726 -21.367  0.00  0.00    -0.200 NA
ATOM     24  N   UNL     1      34.432 -13.885 -22.596  0.00  0.00    -0.271 NA
ATOM     25  N   UNL     1      34.134 -14.030 -24.971  0.00  0.00    -0.310 NA
ATOM     26  N   UNL     1      34.541 -16.077 -26.077  0.00  0.00    -0.329 N 
ATOM     27  N   UNL     1      33.740 -12.018 -23.838  0.00  0.00    -0.283 N 
ATOM     28  C   UNL     1      35.516 -17.761 -22.480  0.00  0.00    +0.133 C 
ATOM     29  C   UNL     1      35.475 -17.023 -21.340  0.00  0.00    +0.193 C 
ATOM     30  C   UNL     1      34.845 -15.955 -23.699  0.00  0.00    +0.248 C 
ATOM     31  C   UNL     1      34.794 -15.173 -22.544  0.00  0.00    +0.131 C 
ATOM     32  C   UNL     1      34.502 -15.320 -24.877  0.00  0.00    +0.231 C 
ATOM     33  C   UNL     1      34.120 -13.377 -23.803  0.00  0.00    +0.207 C 
ATOM     34  H   UNL     1      34.302 -15.654 -26.934  0.00  0.00    +0.145 HD
ATOM     35  H   UNL     1      34.805 -17.025 -26.052  0.00  0.00    +0.145 HD
ATOM     36  H   UNL     1      33.714 -11.493 -23.005  0.00  0.00    +0.156 HD
ATOM     37  H   UNL     1      33.503 -11.596 -24.695  0.00  0.00    +0.156 HD
ENDBRANCH  21  28
ENDBRANCH   1  21
TORSDOF 6
ENDMDL
MODEL 8
REMARK VINA RESULT:     -10.9      4.078     10.476
REMARK  Name = 23629645
REMARK  6 active torsions:
REMARK  status: ('A' for Active; 'I' for Inactive)
REMARK    1  A    between atoms: N_1  and  C_6
REMARK    2  A    between atoms: N_1  and  C_21
REMARK    3  A    between atoms: C_3  and  C_16
REMARK    4  A    between atoms: C_11  and  C_18
REMARK    5  A    between atoms: C_18  and  O_19
REMARK    6  A    between atoms: C_21  and  C_28
REMARK                            x       y       z     vdW  Elec       q    Type
REMARK                         _______ _______ _______ _____ _____    ______ ____
ROOT
ATOM      1  N   UNL     1      36.492 -20.741 -20.246  0.00  0.00    -0.300 N 
ATOM      2  C   UNL     1      37.350 -20.349 -19.147  0.00  0.00    +0.113 C 
ENDROOT
BRANCH   1   6
ATOM      3  C   UNL     1      35.402 -17.957 -23.189  0.00  0.00    +0.054 C 
ATOM      4  C   UNL     1      34.593 -19.064 -22.949  0.00  0.00    +0.006 C 
ATOM      5  C   UNL     1      36.572 -17.769 -22.458  0.00  0.00    +0.006 C 
ATOM      6  C   UNL     1      36.125 -19.804 -21.236  0.00  0.00    +0.048 C 
ATOM      7  C   UNL     1      34.954 -19.989 -21.970  0.00  0.00    +0.015 C 
ATOM      8  C   UNL     1      36.934 -18.695 -21.479  0.00  0.00    +0.015 C 
BRANCH   3  16
ATOM      9  O   UNL     1      35.267 -17.299 -25.383  0.00  0.00    -0.270 OA
ATOM     10  N   UNL     1      34.429 -15.786 -23.810  0.00  0.00    -0.276 N 
ATOM     11  C   UNL     1      34.495 -12.974 -23.102  0.00  0.00    +0.102 C 
ATOM     12  C   UNL     1      34.683 -13.456 -24.545  0.00  0.00    +0.033 C 
ATOM     13  C   UNL     1      34.799 -14.074 -22.078  0.00  0.00    +0.033 C 
ATOM     14  C   UNL     1      34.013 -14.805 -24.808  0.00  0.00    +0.094 C 
ATOM     15  C   UNL     1      34.135 -15.406 -22.424  0.00  0.00    +0.094 C 
ATOM     16  C   UNL     1      35.021 -16.983 -24.221  0.00  0.00    +0.249 C 
BRANCH  11  18
ATOM     17  O   UNL     1      32.179 -13.069 -22.447  0.00  0.00    -0.250 OA
ATOM     18  C   UNL     1      33.110 -12.428 -22.914  0.00  0.00    +0.317 C 
BRANCH  18  19
ATOM     19  O   UNL     1      33.068 -11.134 -23.342  0.00  0.00    -0.444 OA
ATOM     20  C   UNL     1      32.184 -10.275 -22.614  0.00  0.00    +0.256 C 
ENDBRANCH  18  19
ENDBRANCH  11  18
ENDBRANCH   3  16
ENDBRANCH   1   6
BRANCH   1  21
ATOM     21  C   UNL     1      36.003 -22.104 -20.309  0.00  0.00    +0.148 C 
BRANCH  21  28
ATOM     22  N   UNL     1      35.297 -22.864 -18.118  0.00  0.00    -0.392 NA
ATOM     23  N   UNL     1      32.646 -22.310 -18.691  0.00  0.00    -0.200 NA
ATOM     24  N   UNL     1      32.022 -23.046 -16.586  0.00  0.00    -0.271 NA
ATOM     25  N   UNL     1      33.656 -23.853 -15.028  0.00  0.00    -0.310 NA
ATOM     26  N   UNL     1      35.936 -23.899 -15.644  0.00  0.00    -0.329 N 
ATOM     27  N   UNL     1      31.386 -23.791 -14.452  0.00  0.00    -0.283 N 
ATOM     28  C   UNL     1      34.921 -22.361 -19.294  0.00  0.00    +0.133 C 
ATOM     29  C   UNL     1      33.624 -22.085 -19.590  0.00  0.00    +0.193 C 
ATOM     30  C   UNL     1      34.318 -23.088 -17.220  0.00  0.00    +0.248 C 
ATOM     31  C   UNL     1      32.976 -22.814 -17.495  0.00  0.00    +0.131 C 
ATOM     32  C   UNL     1      34.585 -23.605 -15.967  0.00  0.00    +0.231 C 
ATOM     33  C   UNL     1      32.406 -23.553 -15.400  0.00  0.00    +0.207 C 
ATOM     34  H   UNL     1      36.161 -24.269 -14.760  0.00  0.00    +0.145 HD
ATOM     35  H   UNL     1      36.647 -23.733 -16.304  0.00  0.00    +0.145 HD
ATOM     36  H   UNL     1      30.450 -23.587 -14.677  0.00  0.00    +0.156 HD
ATOM     37  H   UNL     1      31.612 -24.161 -13.569  0.00  0.00    +0.156 HD
ENDBRANCH  21  28
ENDBRANCH   1  21
TORSDOF 6
ENDMDL
MODEL 9
REMARK VINA RESULT:     -10.7      2.530      5.129
REMARK  Name = 23629645
REMARK  6 active torsions:
REMARK  status: ('A' for Active; 'I' for Inactive)
REMARK    1  A    between atoms: N_1  and  C_6
REMARK    2  A    between atoms: N_1  and  C_21
REMARK    3  A    between atoms: C_3  and  C_16
REMARK    4  A    between atoms: C_11  and  C_18
REMARK    5  A    between atoms: C_18  and  O_19
REMARK    6  A    between atoms: C_21  and  C_28
REMARK                            x       y       z     vdW  Elec       q    Type
REMARK                         _______ _______ _______ _____ _____    ______ ____
ROOT
ATOM      1  N   UNL     1      34.417 -15.286 -24.773  0.00  0.00    -0.300 N 
ATOM      2  C   UNL     1      33.355 -15.597 -25.708  0.00  0.00    +0.113 C 
ENDROOT
BRANCH   1   6
ATOM      3  C   UNL     1      36.011 -18.276 -22.299  0.00  0.00    +0.054 C 
ATOM      4  C   UNL     1      35.754 -18.550 -23.639  0.00  0.00    +0.006 C 
ATOM      5  C   UNL     1      35.741 -17.015 -21.775  0.00  0.00    +0.006 C 
ATOM      6  C   UNL     1      34.953 -16.292 -23.941  0.00  0.00    +0.048 C 
ATOM      7  C   UNL     1      35.225 -17.556 -24.463  0.00  0.00    +0.015 C 
ATOM      8  C   UNL     1      35.211 -16.020 -22.597  0.00  0.00    +0.015 C 
BRANCH   3  16
ATOM      9  O   UNL     1      37.790 -19.462 -21.467  0.00  0.00    -0.270 OA
ATOM     10  N   UNL     1      35.684 -20.075 -20.656  0.00  0.00    -0.276 N 
ATOM     11  C   UNL     1      34.042 -22.408 -20.129  0.00  0.00    +0.102 C 
ATOM     12  C   UNL     1      35.574 -22.462 -20.087  0.00  0.00    +0.033 C 
ATOM     13  C   UNL     1      33.526 -21.224 -20.957  0.00  0.00    +0.033 C 
ATOM     14  C   UNL     1      36.203 -21.107 -19.763  0.00  0.00    +0.094 C 
ATOM     15  C   UNL     1      34.227 -19.910 -20.614  0.00  0.00    +0.094 C 
ATOM     16  C   UNL     1      36.569 -19.323 -21.432  0.00  0.00    +0.249 C 
BRANCH  11  18
ATOM     17  O   UNL     1      32.376 -21.951 -18.450  0.00  0.00    -0.250 OA
ATOM     18  C   UNL     1      33.486 -22.377 -18.736  0.00  0.00    +0.317 C 
BRANCH  18  19
ATOM     19  O   UNL     1      34.404 -22.890 -17.867  0.00  0.00    -0.444 OA
ATOM     20  C   UNL     1      33.862 -23.536 -16.711  0.00  0.00    +0.256 C 
ENDBRANCH  18  19
ENDBRANCH  11  18
ENDBRANCH   3  16
ENDBRANCH   1   6
BRANCH   1  21
ATOM     21  C   UNL     1      34.913 -13.926 -24.693  0.00  0.00    +0.148 C 
BRANCH  21  28
ATOM     22  N   UNL     1      33.653 -13.612 -22.645  0.00  0.00    -0.392 NA
ATOM     23  N   UNL     1      32.976 -11.026 -23.363  0.00  0.00    -0.200 NA
ATOM     24  N   UNL     1      31.785 -10.777 -21.392  0.00  0.00    -0.271 NA
ATOM     25  N   UNL     1      31.648 -12.563 -19.799  0.00  0.00    -0.310 NA
ATOM     26  N   UNL     1      32.743 -14.610 -20.242  0.00  0.00    -0.329 N 
ATOM     27  N   UNL     1      30.578 -10.520 -19.395  0.00  0.00    -0.283 N 
ATOM     28  C   UNL     1      34.062 -13.070 -23.793  0.00  0.00    +0.133 C 
ATOM     29  C   UNL     1      33.736 -11.803 -24.158  0.00  0.00    +0.193 C 
ATOM     30  C   UNL     1      32.893 -12.835 -21.850  0.00  0.00    +0.248 C 
ATOM     31  C   UNL     1      32.543 -11.529 -22.199  0.00  0.00    +0.131 C 
ATOM     32  C   UNL     1      32.412 -13.287 -20.637  0.00  0.00    +0.231 C 
ATOM     33  C   UNL     1      31.376 -11.328 -20.235  0.00  0.00    +0.207 C 
ATOM     34  H   UNL     1      32.416 -14.963 -19.383  0.00  0.00    +0.145 HD
ATOM     35  H   UNL     1      33.299 -15.173 -20.826  0.00  0.00    +0.145 HD
ATOM     36  H   UNL     1      30.349  -9.602 -19.670  0.00  0.00    +0.156 HD
ATOM     37  H   UNL     1      30.251 -10.874 -18.538  0.00  0.00    +0.156 HD
ENDBRANCH  21  28
ENDBRANCH   1  21
TORSDOF 6
ENDMDL
