MODEL 1
REMARK VINA RESULT:     -11.9      0.000      0.000
REMARK  Name = 5289110
REMARK  6 active torsions:
REMARK  status: ('A' for Active; 'I' for Inactive)
REMARK    1  A    between atoms: C_3  and  C_9
REMARK    2  A    between atoms: C_4  and  C_22
REMARK    3  A    between atoms: N_8  and  C_11
REMARK    4  A    between atoms: C_11  and  C_13
REMARK    5  A    between atoms: N_21  and  C_24
REMARK    6  A    between atoms: C_24  and  C_26
REMARK                            x       y       z     vdW  Elec       q    Type
REMARK                         _______ _______ _______ _____ _____    ______ ____
ROOT
ATOM      1  N   UNL     1      34.784 -17.847 -24.737  0.00  0.00    -0.244 NA
ATOM      2  N   UNL     1      33.874 -16.189 -26.230  0.00  0.00    -0.244 NA
ATOM      3  C   UNL     1      35.089 -16.853 -23.878  0.00  0.00    +0.115 C 
ATOM      4  C   UNL     1      34.214 -15.277 -25.316  0.00  0.00    +0.115 C 
ATOM      5  C   UNL     1      34.821 -15.521 -24.120  0.00  0.00    +0.100 C 
ATOM      6  C   UNL     1      34.187 -17.450 -25.877  0.00  0.00    +0.250 C 
ENDROOT
BRANCH   3   9
ATOM      7  O   UNL     1      35.543 -16.624 -21.589  0.00  0.00    -0.269 OA
ATOM      8  N   UNL     1      36.547 -18.399 -22.693  0.00  0.00    -0.296 N 
ATOM      9  C   UNL     1      35.733 -17.260 -22.641  0.00  0.00    +0.260 C 
ATOM     10  H   UNL     1      36.654 -18.854 -23.558  0.00  0.00    +0.150 HD
BRANCH   8  11
ATOM     11  C   UNL     1      37.237 -18.942 -21.545  0.00  0.00    +0.117 C 
BRANCH  11  13
ATOM     12  F   UNL     1      34.139 -22.770 -18.833  0.00  0.00    -0.205 F 
ATOM     13  C   UNL     1      36.407 -19.964 -20.822  0.00  0.00    -0.003 C 
ATOM     14  C   UNL     1      35.032 -19.999 -21.021  0.00  0.00    -0.005 C 
ATOM     15  C   UNL     1      34.261 -20.949 -20.350  0.00  0.00    +0.005 C 
ATOM     16  C   UNL     1      37.023 -20.864 -19.960  0.00  0.00    -0.000 C 
ATOM     17  C   UNL     1      34.871 -21.856 -19.483  0.00  0.00    +0.136 C 
ATOM     18  C   UNL     1      36.252 -21.813 -19.289  0.00  0.00    +0.029 C 
ATOM     19  C   UNL     1      32.785 -20.992 -20.562  0.00  0.00    +0.033 C 
ENDBRANCH  11  13
ENDBRANCH   8  11
ENDBRANCH   3   9
BRANCH   4  22
ATOM     20  O   UNL     1      33.343 -13.657 -26.771  0.00  0.00    -0.269 OA
ATOM     21  N   UNL     1      34.185 -12.907 -24.745  0.00  0.00    -0.296 N 
ATOM     22  C   UNL     1      33.879 -13.878 -25.688  0.00  0.00    +0.260 C 
ATOM     23  H   UNL     1      34.615 -13.184 -23.903  0.00  0.00    +0.150 HD
BRANCH  21  24
ATOM     24  C   UNL     1      33.898 -11.510 -24.948  0.00  0.00    +0.117 C 
BRANCH  24  26
ATOM     25  F   UNL     1      31.597  -9.108 -20.416  0.00  0.00    -0.205 F 
ATOM     26  C   UNL     1      33.287 -10.875 -23.744  0.00  0.00    -0.003 C 
ATOM     27  C   UNL     1      32.707 -11.669 -22.755  0.00  0.00    -0.005 C 
ATOM     28  C   UNL     1      32.135 -11.075 -21.630  0.00  0.00    +0.005 C 
ATOM     29  C   UNL     1      33.296  -9.487 -23.607  0.00  0.00    -0.000 C 
ATOM     30  C   UNL     1      32.144  -9.687 -21.494  0.00  0.00    +0.136 C 
ATOM     31  C   UNL     1      32.723  -8.893 -22.483  0.00  0.00    +0.029 C 
ATOM     32  C   UNL     1      31.516 -11.928 -20.574  0.00  0.00    +0.033 C 
ENDBRANCH  24  26
ENDBRANCH  21  24
ENDBRANCH   4  22
TORSDOF 6
ENDMDL
MODEL 2
REMARK VINA RESULT:     -11.9      0.031      9.161
REMARK  Name = 5289110
REMARK  6 active torsions:
REMARK  status: ('A' for Active; 'I' for Inactive)
REMARK    1  A    between atoms: C_3  and  C_9
REMARK    2  A    between atoms: C_4  and  C_22
REMARK    3  A    between atoms: N_8  and  C_11
REMARK    4  A    between atoms: C_11  and  C_13
REMARK    5  A    between atoms: N_21  and  C_24
REMARK    6  A    between atoms: C_24  and  C_26
REMARK                            x       y       z     vdW  Elec       q    Type
REMARK                         _______ _______ _______ _____ _____    ______ ____
ROOT
ATOM      1  N   UNL     1      33.881 -16.213 -26.227  0.00  0.00    -0.244 NA
ATOM      2  N   UNL     1      34.799 -17.868 -24.735  0.00  0.00    -0.244 NA
ATOM      3  C   UNL     1      34.198 -15.270 -25.316  0.00  0.00    +0.115 C 
ATOM      4  C   UNL     1      35.074 -16.865 -23.898  0.00  0.00    +0.115 C 
ATOM      5  C   UNL     1      34.809 -15.544 -24.109  0.00  0.00    +0.100 C 
ATOM      6  C   UNL     1      34.204 -17.473 -25.876  0.00  0.00    +0.250 C 
ENDROOT
BRANCH   3   9
ATOM      7  O   UNL     1      33.273 -13.656 -26.744  0.00  0.00    -0.269 OA
ATOM      8  N   UNL     1      34.200 -12.903 -24.757  0.00  0.00    -0.296 N 
ATOM      9  C   UNL     1      33.859 -13.904 -25.674  0.00  0.00    +0.260 C 
ATOM     10  H   UNL     1      34.662 -13.168 -23.930  0.00  0.00    +0.150 HD
BRANCH   8  11
ATOM     11  C   UNL     1      33.910 -11.501 -24.957  0.00  0.00    +0.117 C 
BRANCH  11  13
ATOM     12  F   UNL     1      31.571  -9.156 -20.414  0.00  0.00    -0.205 F 
ATOM     13  C   UNL     1      33.285 -10.878 -23.742  0.00  0.00    -0.003 C 
ATOM     14  C   UNL     1      32.719 -11.689 -22.766  0.00  0.00    -0.005 C 
ATOM     15  C   UNL     1      32.138 -11.110 -21.638  0.00  0.00    +0.005 C 
ATOM     16  C   UNL     1      33.278  -9.494 -23.607  0.00  0.00    -0.000 C 
ATOM     17  C   UNL     1      32.127  -9.722 -21.494  0.00  0.00    +0.136 C 
ATOM     18  C   UNL     1      32.698  -8.915 -22.478  0.00  0.00    +0.029 C 
ATOM     19  C   UNL     1      31.531 -11.976 -20.587  0.00  0.00    +0.033 C 
ENDBRANCH  11  13
ENDBRANCH   8  11
ENDBRANCH   3   9
BRANCH   4  22
ATOM     20  O   UNL     1      35.515 -16.636 -21.606  0.00  0.00    -0.269 OA
ATOM     21  N   UNL     1      36.533 -18.408 -22.702  0.00  0.00    -0.296 N 
ATOM     22  C   UNL     1      35.729 -17.280 -22.630  0.00  0.00    +0.260 C 
ATOM     23  H   UNL     1      36.642 -18.857 -23.572  0.00  0.00    +0.150 HD
BRANCH  21  24
ATOM     24  C   UNL     1      37.216 -18.949 -21.554  0.00  0.00    +0.117 C 
BRANCH  24  26
ATOM     25  F   UNL     1      34.130 -22.774 -18.825  0.00  0.00    -0.205 F 
ATOM     26  C   UNL     1      36.394 -19.963 -20.831  0.00  0.00    -0.003 C 
ATOM     27  C   UNL     1      35.012 -20.000 -21.014  0.00  0.00    -0.005 C 
ATOM     28  C   UNL     1      34.245 -20.948 -20.337  0.00  0.00    +0.005 C 
ATOM     29  C   UNL     1      37.009 -20.875 -19.974  0.00  0.00    -0.000 C 
ATOM     30  C   UNL     1      34.859 -21.859 -19.479  0.00  0.00    +0.136 C 
ATOM     31  C   UNL     1      36.242 -21.822 -19.297  0.00  0.00    +0.029 C 
ATOM     32  C   UNL     1      32.766 -20.984 -20.535  0.00  0.00    +0.033 C 
ENDBRANCH  24  26
ENDBRANCH  21  24
ENDBRANCH   4  22
TORSDOF 6
ENDMDL
MODEL 3
REMARK VINA RESULT:     -11.8      2.117      2.899
REMARK  Name = 5289110
REMARK  6 active torsions:
REMARK  status: ('A' for Active; 'I' for Inactive)
REMARK    1  A    between atoms: C_3  and  C_9
REMARK    2  A    between atoms: C_4  and  C_22
REMARK    3  A    between atoms: N_8  and  C_11
REMARK    4  A    between atoms: C_11  and  C_13
REMARK    5  A    between atoms: N_21  and  C_24
REMARK    6  A    between atoms: C_24  and  C_26
REMARK                            x       y       z     vdW  Elec       q    Type
REMARK                         _______ _______ _______ _____ _____    ______ ____
ROOT
ATOM      1  N   UNL     1      35.100 -16.344 -20.881  0.00  0.00    -0.244 NA
ATOM      2  N   UNL     1      34.265 -14.278 -21.797  0.00  0.00    -0.244 NA
ATOM      3  C   UNL     1      35.380 -16.745 -22.137  0.00  0.00    +0.115 C 
ATOM      4  C   UNL     1      34.578 -14.763 -23.001  0.00  0.00    +0.115 C 
ATOM      5  C   UNL     1      35.136 -15.979 -23.260  0.00  0.00    +0.100 C 
ATOM      6  C   UNL     1      34.551 -15.118 -20.785  0.00  0.00    +0.250 C 
ENDROOT
BRANCH   3   9
ATOM      7  O   UNL     1      36.409 -18.463 -23.359  0.00  0.00    -0.269 OA
ATOM      8  N   UNL     1      36.048 -18.843 -21.101  0.00  0.00    -0.296 N 
ATOM      9  C   UNL     1      35.973 -18.065 -22.264  0.00  0.00    +0.260 C 
ATOM     10  H   UNL     1      35.684 -18.468 -20.267  0.00  0.00    +0.150 HD
BRANCH   8  11
ATOM     11  C   UNL     1      36.629 -20.165 -21.058  0.00  0.00    +0.117 C 
BRANCH  11  13
ATOM     12  F   UNL     1      34.282 -23.366 -17.076  0.00  0.00    -0.205 F 
ATOM     13  C   UNL     1      36.004 -21.019 -19.993  0.00  0.00    -0.003 C 
ATOM     14  C   UNL     1      36.756 -21.400 -18.887  0.00  0.00    -0.005 C 
ATOM     15  C   UNL     1      36.176 -22.193 -17.897  0.00  0.00    +0.005 C 
ATOM     16  C   UNL     1      34.680 -21.423 -20.124  0.00  0.00    -0.000 C 
ATOM     17  C   UNL     1      34.847 -22.602 -18.021  0.00  0.00    +0.136 C 
ATOM     18  C   UNL     1      34.100 -22.216 -19.134  0.00  0.00    +0.029 C 
ATOM     19  C   UNL     1      36.977 -22.603 -16.708  0.00  0.00    +0.033 C 
ENDBRANCH  11  13
ENDBRANCH   8  11
ENDBRANCH   3   9
BRANCH   4  22
ATOM     20  O   UNL     1      33.686 -14.295 -25.119  0.00  0.00    -0.269 OA
ATOM     21  N   UNL     1      34.654 -12.528 -23.971  0.00  0.00    -0.296 N 
ATOM     22  C   UNL     1      34.269 -13.851 -24.133  0.00  0.00    +0.260 C 
ATOM     23  H   UNL     1      35.117 -12.267 -23.142  0.00  0.00    +0.150 HD
BRANCH  21  24
ATOM     24  C   UNL     1      34.402 -11.519 -24.969  0.00  0.00    +0.117 C 
BRANCH  24  26
ATOM     25  F   UNL     1      33.837  -6.392 -22.733  0.00  0.00    -0.205 F 
ATOM     26  C   UNL     1      34.249 -10.159 -24.375  0.00  0.00    -0.003 C 
ATOM     27  C   UNL     1      33.072  -9.816 -23.711  0.00  0.00    -0.005 C 
ATOM     28  C   UNL     1      32.929  -8.544 -23.156  0.00  0.00    +0.005 C 
ATOM     29  C   UNL     1      35.285  -9.231 -24.482  0.00  0.00    -0.000 C 
ATOM     30  C   UNL     1      33.965  -7.616 -23.264  0.00  0.00    +0.136 C 
ATOM     31  C   UNL     1      35.143  -7.960 -23.927  0.00  0.00    +0.029 C 
ATOM     32  C   UNL     1      31.669  -8.180 -22.446  0.00  0.00    +0.033 C 
ENDBRANCH  24  26
ENDBRANCH  21  24
ENDBRANCH   4  22
TORSDOF 6
ENDMDL
MODEL 4
REMARK VINA RESULT:     -11.8      2.116     10.383
REMARK  Name = 5289110
REMARK  6 active torsions:
REMARK  status: ('A' for Active; 'I' for Inactive)
REMARK    1  A    between atoms: C_3  and  C_9
REMARK    2  A    between atoms: C_4  and  C_22
REMARK    3  A    between atoms: N_8  and  C_11
REMARK    4  A    between atoms: C_11  and  C_13
REMARK    5  A    between atoms: N_21  and  C_24
REMARK    6  A    between atoms: C_24  and  C_26
REMARK                            x       y       z     vdW  Elec       q    Type
REMARK                         _______ _______ _______ _____ _____    ______ ____
ROOT
ATOM      1  N   UNL     1      34.339 -14.293 -21.820  0.00  0.00    -0.244 NA
ATOM      2  N   UNL     1      35.111 -16.376 -20.887  0.00  0.00    -0.244 NA
ATOM      3  C   UNL     1      34.645 -14.771 -23.044  0.00  0.00    +0.115 C 
ATOM      4  C   UNL     1      35.381 -16.759 -22.137  0.00  0.00    +0.115 C 
ATOM      5  C   UNL     1      35.179 -16.024 -23.267  0.00  0.00    +0.100 C 
ATOM      6  C   UNL     1      34.595 -15.136 -20.802  0.00  0.00    +0.250 C 
ENDROOT
BRANCH   3   9
ATOM      7  O   UNL     1      33.931 -14.320 -25.232  0.00  0.00    -0.269 OA
ATOM      8  N   UNL     1      34.621 -12.514 -23.953  0.00  0.00    -0.296 N 
ATOM      9  C   UNL     1      34.376 -13.878 -24.158  0.00  0.00    +0.260 C 
ATOM     10  H   UNL     1      34.973 -12.231 -23.079  0.00  0.00    +0.150 HD
BRANCH   8  11
ATOM     11  C   UNL     1      34.383 -11.499 -24.954  0.00  0.00    +0.117 C 
BRANCH  11  13
ATOM     12  F   UNL     1      33.889  -6.378 -22.687  0.00  0.00    -0.205 F 
ATOM     13  C   UNL     1      34.248 -10.132 -24.346  0.00  0.00    -0.003 C 
ATOM     14  C   UNL     1      33.090  -9.796 -23.656  0.00  0.00    -0.005 C 
ATOM     15  C   UNL     1      32.965  -8.526 -23.092  0.00  0.00    +0.005 C 
ATOM     16  C   UNL     1      35.285  -9.215 -24.482  0.00  0.00    -0.000 C 
ATOM     17  C   UNL     1      34.000  -7.600 -23.224  0.00  0.00    +0.136 C 
ATOM     18  C   UNL     1      35.160  -7.945 -23.918  0.00  0.00    +0.029 C 
ATOM     19  C   UNL     1      31.724  -8.162 -22.349  0.00  0.00    +0.033 C 
ENDBRANCH  11  13
ENDBRANCH   8  11
ENDBRANCH   3   9
BRANCH   4  22
ATOM     20  O   UNL     1      36.265 -18.553 -23.362  0.00  0.00    -0.269 OA
ATOM     21  N   UNL     1      36.119 -18.820 -21.063  0.00  0.00    -0.296 N 
ATOM     22  C   UNL     1      35.954 -18.125 -22.253  0.00  0.00    +0.260 C 
ATOM     23  H   UNL     1      35.839 -18.391 -20.222  0.00  0.00    +0.150 HD
BRANCH  21  24
ATOM     24  C   UNL     1      36.684 -20.144 -21.010  0.00  0.00    +0.117 C 
BRANCH  24  26
ATOM     25  F   UNL     1      34.199 -23.367 -17.132  0.00  0.00    -0.205 F 
ATOM     26  C   UNL     1      36.027 -20.999 -19.979  0.00  0.00    -0.003 C 
ATOM     27  C   UNL     1      36.739 -21.401 -18.848  0.00  0.00    -0.005 C 
ATOM     28  C   UNL     1      36.124 -22.201 -17.885  0.00  0.00    +0.005 C 
ATOM     29  C   UNL     1      34.701 -21.397 -20.145  0.00  0.00    -0.000 C 
ATOM     30  C   UNL     1      34.798 -22.599 -18.052  0.00  0.00    +0.136 C 
ATOM     31  C   UNL     1      34.086 -22.197 -19.182  0.00  0.00    +0.029 C 
ATOM     32  C   UNL     1      36.888 -22.628 -16.677  0.00  0.00    +0.033 C 
ENDBRANCH  24  26
ENDBRANCH  21  24
ENDBRANCH   4  22
TORSDOF 6
ENDMDL
MODEL 5
REMARK VINA RESULT:     -11.7      1.850      3.170
REMARK  Name = 5289110
REMARK  6 active torsions:
REMARK  status: ('A' for Active; 'I' for Inactive)
REMARK    1  A    between atoms: C_3  and  C_9
REMARK    2  A    between atoms: C_4  and  C_22
REMARK    3  A    between atoms: N_8  and  C_11
REMARK    4  A    between atoms: C_11  and  C_13
REMARK    5  A    between atoms: N_21  and  C_24
REMARK    6  A    between atoms: C_24  and  C_26
REMARK                            x       y       z     vdW  Elec       q    Type
REMARK                         _______ _______ _______ _____ _____    ______ ____
ROOT
ATOM      1  N   UNL     1      34.341 -15.137 -25.280  0.00  0.00    -0.244 NA
ATOM      2  N   UNL     1      33.259 -13.242 -24.258  0.00  0.00    -0.244 NA
ATOM      3  C   UNL     1      34.562 -15.631 -24.045  0.00  0.00    +0.115 C 
ATOM      4  C   UNL     1      33.524 -13.812 -23.079  0.00  0.00    +0.115 C 
ATOM      5  C   UNL     1      34.167 -14.998 -22.883  0.00  0.00    +0.100 C 
ATOM      6  C   UNL     1      33.695 -13.957 -25.313  0.00  0.00    +0.250 C 
ENDROOT
BRANCH   3   9
ATOM      7  O   UNL     1      35.329 -17.635 -24.991  0.00  0.00    -0.269 OA
ATOM      8  N   UNL     1      35.854 -17.248 -22.766  0.00  0.00    -0.296 N 
ATOM      9  C   UNL     1      35.259 -16.904 -23.986  0.00  0.00    +0.260 C 
ATOM     10  H   UNL     1      35.760 -16.624 -22.011  0.00  0.00    +0.150 HD
BRANCH   8  11
ATOM     11  C   UNL     1      36.600 -18.468 -22.555  0.00  0.00    +0.117 C 
BRANCH  11  13
ATOM     12  F   UNL     1      33.852 -22.052 -19.207  0.00  0.00    -0.205 F 
ATOM     13  C   UNL     1      35.869 -19.425 -21.659  0.00  0.00    -0.003 C 
ATOM     14  C   UNL     1      36.573 -20.151 -20.706  0.00  0.00    -0.005 C 
ATOM     15  C   UNL     1      35.894 -21.040 -19.873  0.00  0.00    +0.005 C 
ATOM     16  C   UNL     1      34.493 -19.578 -21.793  0.00  0.00    -0.000 C 
ATOM     17  C   UNL     1      34.513 -21.199 -20.001  0.00  0.00    +0.136 C 
ATOM     18  C   UNL     1      33.814 -20.468 -20.960  0.00  0.00    +0.029 C 
ATOM     19  C   UNL     1      36.645 -21.820 -18.847  0.00  0.00    +0.033 C 
ENDBRANCH  11  13
ENDBRANCH   8  11
ENDBRANCH   3   9
BRANCH   4  22
ATOM     20  O   UNL     1      33.336 -13.432 -20.773  0.00  0.00    -0.269 OA
ATOM     21  N   UNL     1      32.329 -11.887 -22.179  0.00  0.00    -0.296 N 
ATOM     22  C   UNL     1      33.053 -13.038 -21.901  0.00  0.00    +0.260 C 
ATOM     23  H   UNL     1      32.153 -11.654 -23.119  0.00  0.00    +0.150 HD
BRANCH  21  24
ATOM     24  C   UNL     1      31.826 -11.019 -21.144  0.00  0.00    +0.117 C 
BRANCH  24  26
ATOM     25  F   UNL     1      32.696  -5.585 -22.292  0.00  0.00    -0.205 F 
ATOM     26  C   UNL     1      32.055  -9.578 -21.452  0.00  0.00    -0.003 C 
ATOM     27  C   UNL     1      31.725  -9.071 -22.709  0.00  0.00    -0.005 C 
ATOM     28  C   UNL     1      31.940  -7.723 -22.996  0.00  0.00    +0.005 C 
ATOM     29  C   UNL     1      32.600  -8.736 -20.482  0.00  0.00    -0.000 C 
ATOM     30  C   UNL     1      32.486  -6.882 -22.026  0.00  0.00    +0.136 C 
ATOM     31  C   UNL     1      32.816  -7.389 -20.769  0.00  0.00    +0.029 C 
ATOM     32  C   UNL     1      31.585  -7.184 -24.341  0.00  0.00    +0.033 C 
ENDBRANCH  24  26
ENDBRANCH  21  24
ENDBRANCH   4  22
TORSDOF 6
ENDMDL
MODEL 6
REMARK VINA RESULT:     -11.7      1.855      9.892
REMARK  Name = 5289110
REMARK  6 active torsions:
REMARK  status: ('A' for Active; 'I' for Inactive)
REMARK    1  A    between atoms: C_3  and  C_9
REMARK    2  A    between atoms: C_4  and  C_22
REMARK    3  A    between atoms: N_8  and  C_11
REMARK    4  A    between atoms: C_11  and  C_13
REMARK    5  A    between atoms: N_21  and  C_24
REMARK    6  A    between atoms: C_24  and  C_26
REMARK                            x       y       z     vdW  Elec       q    Type
REMARK                         _______ _______ _______ _____ _____    ______ ____
ROOT
ATOM      1  N   UNL     1      33.378 -13.213 -24.248  0.00  0.00    -0.244 NA
ATOM      2  N   UNL     1      34.424 -15.110 -25.304  0.00  0.00    -0.244 NA
ATOM      3  C   UNL     1      33.573 -13.815 -23.057  0.00  0.00    +0.115 C 
ATOM      4  C   UNL     1      34.572 -15.625 -24.080  0.00  0.00    +0.115 C 
ATOM      5  C   UNL     1      34.178 -15.047 -22.910  0.00  0.00    +0.100 C 
ATOM      6  C   UNL     1      33.821 -13.906 -25.314  0.00  0.00    +0.250 C 
ENDROOT
BRANCH   3   9
ATOM      7  O   UNL     1      33.341 -13.499 -20.745  0.00  0.00    -0.269 OA
ATOM      8  N   UNL     1      32.399 -11.896 -22.130  0.00  0.00    -0.296 N 
ATOM      9  C   UNL     1      33.103 -13.084 -21.894  0.00  0.00    +0.260 C 
ATOM     10  H   UNL     1      32.245 -11.625 -23.064  0.00  0.00    +0.150 HD
BRANCH   8  11
ATOM     11  C   UNL     1      31.888 -11.046 -21.080  0.00  0.00    +0.117 C 
BRANCH  11  13
ATOM     12  F   UNL     1      32.447  -5.591 -22.322  0.00  0.00    -0.205 F 
ATOM     13  C   UNL     1      32.035  -9.589 -21.414  0.00  0.00    -0.003 C 
ATOM     14  C   UNL     1      31.702  -9.137 -22.685  0.00  0.00    -0.005 C 
ATOM     15  C   UNL     1      31.839  -7.785 -22.996  0.00  0.00    +0.005 C 
ATOM     16  C   UNL     1      32.506  -8.707 -20.448  0.00  0.00    -0.000 C 
ATOM     17  C   UNL     1      32.311  -6.892 -22.032  0.00  0.00    +0.136 C 
ATOM     18  C   UNL     1      32.643  -7.354 -20.759  0.00  0.00    +0.029 C 
ATOM     19  C   UNL     1      31.481  -7.295 -24.358  0.00  0.00    +0.033 C 
ENDBRANCH  11  13
ENDBRANCH   8  11
ENDBRANCH   3   9
BRANCH   4  22
ATOM     20  O   UNL     1      35.238 -17.648 -25.061  0.00  0.00    -0.269 OA
ATOM     21  N   UNL     1      35.830 -17.307 -22.845  0.00  0.00    -0.296 N 
ATOM     22  C   UNL     1      35.233 -16.955 -24.047  0.00  0.00    +0.260 C 
ATOM     23  H   UNL     1      35.773 -16.682 -22.086  0.00  0.00    +0.150 HD
BRANCH  21  24
ATOM     24  C   UNL     1      36.531 -18.553 -22.663  0.00  0.00    +0.117 C 
BRANCH  24  26
ATOM     25  F   UNL     1      33.831 -22.023 -19.159  0.00  0.00    -0.205 F 
ATOM     26  C   UNL     1      35.818 -19.475 -21.732  0.00  0.00    -0.003 C 
ATOM     27  C   UNL     1      36.531 -20.172 -20.757  0.00  0.00    -0.005 C 
ATOM     28  C   UNL     1      35.863 -21.034 -19.887  0.00  0.00    +0.005 C 
ATOM     29  C   UNL     1      34.436 -19.638 -21.835  0.00  0.00    -0.000 C 
ATOM     30  C   UNL     1      34.482 -21.197 -19.991  0.00  0.00    +0.136 C 
ATOM     31  C   UNL     1      33.768 -20.499 -20.966  0.00  0.00    +0.029 C 
ATOM     32  C   UNL     1      36.629 -21.779 -18.846  0.00  0.00    +0.033 C 
ENDBRANCH  24  26
ENDBRANCH  21  24
ENDBRANCH   4  22
TORSDOF 6
ENDMDL
MODEL 7
REMARK VINA RESULT:     -11.7      1.882      2.926
REMARK  Name = 5289110
REMARK  6 active torsions:
REMARK  status: ('A' for Active; 'I' for Inactive)
REMARK    1  A    between atoms: C_3  and  C_9
REMARK    2  A    between atoms: C_4  and  C_22
REMARK    3  A    between atoms: N_8  and  C_11
REMARK    4  A    between atoms: C_11  and  C_13
REMARK    5  A    between atoms: N_21  and  C_24
REMARK    6  A    between atoms: C_24  and  C_26
REMARK                            x       y       z     vdW  Elec       q    Type
REMARK                         _______ _______ _______ _____ _____    ______ ____
ROOT
ATOM      1  N   UNL     1      35.301 -19.859 -23.663  0.00  0.00    -0.244 NA
ATOM      2  N   UNL     1      34.424 -18.166 -25.138  0.00  0.00    -0.244 NA
ATOM      3  C   UNL     1      35.845 -18.875 -22.919  0.00  0.00    +0.115 C 
ATOM      4  C   UNL     1      35.000 -17.265 -24.338  0.00  0.00    +0.115 C 
ATOM      5  C   UNL     1      35.725 -17.532 -23.214  0.00  0.00    +0.100 C 
ATOM      6  C   UNL     1      34.614 -19.439 -24.743  0.00  0.00    +0.250 C 
ENDROOT
BRANCH   3   9
ATOM      7  O   UNL     1      37.636 -18.721 -21.412  0.00  0.00    -0.269 OA
ATOM      8  N   UNL     1      36.065 -20.380 -21.020  0.00  0.00    -0.296 N 
ATOM      9  C   UNL     1      36.590 -19.305 -21.748  0.00  0.00    +0.260 C 
ATOM     10  H   UNL     1      35.234 -20.798 -21.341  0.00  0.00    +0.150 HD
BRANCH   8  11
ATOM     11  C   UNL     1      36.676 -20.910 -19.822  0.00  0.00    +0.117 C 
BRANCH  11  13
ATOM     12  F   UNL     1      33.027 -23.890 -16.755  0.00  0.00    -0.205 F 
ATOM     13  C   UNL     1      35.703 -21.705 -19.000  0.00  0.00    -0.003 C 
ATOM     14  C   UNL     1      36.082 -22.175 -17.748  0.00  0.00    -0.005 C 
ATOM     15  C   UNL     1      35.178 -22.914 -16.985  0.00  0.00    +0.005 C 
ATOM     16  C   UNL     1      34.433 -21.966 -19.501  0.00  0.00    -0.000 C 
ATOM     17  C   UNL     1      33.901 -23.180 -17.480  0.00  0.00    +0.136 C 
ATOM     18  C   UNL     1      33.529 -22.705 -18.738  0.00  0.00    +0.029 C 
ATOM     19  C   UNL     1      35.580 -23.419 -15.640  0.00  0.00    +0.033 C 
ENDBRANCH  11  13
ENDBRANCH   8  11
ENDBRANCH   3   9
BRANCH   4  22
ATOM     20  O   UNL     1      34.732 -15.588 -25.955  0.00  0.00    -0.269 OA
ATOM     21  N   UNL     1      34.692 -14.924 -23.733  0.00  0.00    -0.296 N 
ATOM     22  C   UNL     1      34.804 -15.853 -24.757  0.00  0.00    +0.260 C 
ATOM     23  H   UNL     1      34.763 -15.236 -22.801  0.00  0.00    +0.150 HD
BRANCH  21  24
ATOM     24  C   UNL     1      34.475 -13.521 -23.978  0.00  0.00    +0.117 C 
BRANCH  24  26
ATOM     25  F   UNL     1      30.829 -11.266 -20.342  0.00  0.00    -0.205 F 
ATOM     26  C   UNL     1      33.507 -12.920 -23.015  0.00  0.00    -0.003 C 
ATOM     27  C   UNL     1      33.067 -11.609 -23.195  0.00  0.00    -0.005 C 
ATOM     28  C   UNL     1      32.162 -11.047 -22.293  0.00  0.00    +0.005 C 
ATOM     29  C   UNL     1      33.042 -13.669 -21.934  0.00  0.00    -0.000 C 
ATOM     30  C   UNL     1      31.698 -11.797 -21.213  0.00  0.00    +0.136 C 
ATOM     31  C   UNL     1      32.139 -13.108 -21.033  0.00  0.00    +0.029 C 
ATOM     32  C   UNL     1      31.693  -9.645 -22.489  0.00  0.00    +0.033 C 
ENDBRANCH  24  26
ENDBRANCH  21  24
ENDBRANCH   4  22
TORSDOF 6
ENDMDL
MODEL 8
REMARK VINA RESULT:     -11.6      1.863      9.521
REMARK  Name = 5289110
REMARK  6 active torsions:
REMARK  status: ('A' for Active; 'I' for Inactive)
REMARK    1  A    between atoms: C_3  and  C_9
REMARK    2  A    between atoms: C_4  and  C_22
REMARK    3  A    between atoms: N_8  and  C_11
REMARK    4  A    between atoms: C_11  and  C_13
REMARK    5  A    between atoms: N_21  and  C_24
REMARK    6  A    between atoms: C_24  and  C_26
REMARK                            x       y       z     vdW  Elec       q    Type
REMARK                         _______ _______ _______ _____ _____    ______ ____
ROOT
ATOM      1  N   UNL     1      34.407 -18.155 -25.159  0.00  0.00    -0.244 NA
ATOM      2  N   UNL     1      35.296 -19.849 -23.694  0.00  0.00    -0.244 NA
ATOM      3  C   UNL     1      34.988 -17.224 -24.375  0.00  0.00    +0.115 C 
ATOM      4  C   UNL     1      35.833 -18.855 -22.981  0.00  0.00    +0.115 C 
ATOM      5  C   UNL     1      35.730 -17.523 -23.250  0.00  0.00    +0.100 C 
ATOM      6  C   UNL     1      34.598 -19.428 -24.765  0.00  0.00    +0.250 C 
ENDROOT
BRANCH   3   9
ATOM      7  O   UNL     1      34.683 -15.546 -25.985  0.00  0.00    -0.269 OA
ATOM      8  N   UNL     1      34.721 -14.884 -23.764  0.00  0.00    -0.296 N 
ATOM      9  C   UNL     1      34.795 -15.843 -24.782  0.00  0.00    +0.260 C 
ATOM     10  H   UNL     1      34.818 -15.187 -22.832  0.00  0.00    +0.150 HD
BRANCH   8  11
ATOM     11  C   UNL     1      34.509 -13.475 -24.005  0.00  0.00    +0.117 C 
BRANCH  11  13
ATOM     12  F   UNL     1      30.801 -11.270 -20.400  0.00  0.00    -0.205 F 
ATOM     13  C   UNL     1      33.518 -12.884 -23.044  0.00  0.00    -0.003 C 
ATOM     14  C   UNL     1      33.080 -11.578 -23.224  0.00  0.00    -0.005 C 
ATOM     15  C   UNL     1      32.159 -11.028 -22.332  0.00  0.00    +0.005 C 
ATOM     16  C   UNL     1      33.050 -13.649 -21.982  0.00  0.00    -0.000 C 
ATOM     17  C   UNL     1      31.684 -11.790 -21.264  0.00  0.00    +0.136 C 
ATOM     18  C   UNL     1      32.129 -13.100 -21.090  0.00  0.00    +0.029 C 
ATOM     19  C   UNL     1      31.684  -9.627 -22.522  0.00  0.00    +0.033 C 
ENDBRANCH  11  13
ENDBRANCH   8  11
ENDBRANCH   3   9
BRANCH   4  22
ATOM     20  O   UNL     1      37.651 -18.716 -21.505  0.00  0.00    -0.269 OA
ATOM     21  N   UNL     1      36.061 -20.347 -21.067  0.00  0.00    -0.296 N 
ATOM     22  C   UNL     1      36.607 -19.298 -21.792  0.00  0.00    +0.260 C 
ATOM     23  H   UNL     1      35.218 -20.749 -21.377  0.00  0.00    +0.150 HD
BRANCH  21  24
ATOM     24  C   UNL     1      36.681 -20.872 -19.876  0.00  0.00    +0.117 C 
BRANCH  24  26
ATOM     25  F   UNL     1      33.095 -23.885 -16.767  0.00  0.00    -0.205 F 
ATOM     26  C   UNL     1      35.731 -21.672 -19.049  0.00  0.00    -0.003 C 
ATOM     27  C   UNL     1      36.120 -22.133 -17.791  0.00  0.00    -0.005 C 
ATOM     28  C   UNL     1      35.231 -22.881 -17.018  0.00  0.00    +0.005 C 
ATOM     29  C   UNL     1      34.455 -21.957 -19.532  0.00  0.00    -0.000 C 
ATOM     30  C   UNL     1      33.955 -23.167 -17.502  0.00  0.00    +0.136 C 
ATOM     31  C   UNL     1      33.567 -22.705 -18.760  0.00  0.00    +0.029 C 
ATOM     32  C   UNL     1      35.650 -23.373 -15.673  0.00  0.00    +0.033 C 
ENDBRANCH  24  26
ENDBRANCH  21  24
ENDBRANCH   4  22
TORSDOF 6
ENDMDL
MODEL 9
REMARK VINA RESULT:     -11.6      3.175      5.047
REMARK  Name = 5289110
REMARK  6 active torsions:
REMARK  status: ('A' for Active; 'I' for Inactive)
REMARK    1  A    between atoms: C_3  and  C_9
REMARK    2  A    between atoms: C_4  and  C_22
REMARK    3  A    between atoms: N_8  and  C_11
REMARK    4  A    between atoms: C_11  and  C_13
REMARK    5  A    between atoms: N_21  and  C_24
REMARK    6  A    between atoms: C_24  and  C_26
REMARK                            x       y       z     vdW  Elec       q    Type
REMARK                         _______ _______ _______ _____ _____    ______ ____
ROOT
ATOM      1  N   UNL     1      36.196 -20.534 -20.216  0.00  0.00    -0.244 NA
ATOM      2  N   UNL     1      36.897 -18.882 -21.825  0.00  0.00    -0.244 NA
ATOM      3  C   UNL     1      34.947 -20.434 -20.713  0.00  0.00    +0.115 C 
ATOM      4  C   UNL     1      35.630 -18.854 -22.248  0.00  0.00    +0.115 C 
ATOM      5  C   UNL     1      34.598 -19.593 -21.751  0.00  0.00    +0.100 C 
ATOM      6  C   UNL     1      37.108 -19.741 -20.810  0.00  0.00    +0.250 C 
ENDROOT
BRANCH   3   9
ATOM      7  O   UNL     1      32.784 -21.322 -20.528  0.00  0.00    -0.269 OA
ATOM      8  N   UNL     1      34.361 -22.054 -18.995  0.00  0.00    -0.296 N 
ATOM      9  C   UNL     1      33.947 -21.282 -20.088  0.00  0.00    +0.260 C 
ATOM     10  H   UNL     1      35.296 -21.975 -18.697  0.00  0.00    +0.150 HD
BRANCH   8  11
ATOM     11  C   UNL     1      33.493 -22.963 -18.281  0.00  0.00    +0.117 C 
BRANCH  11  13
ATOM     12  F   UNL     1      35.420 -24.119 -13.128  0.00  0.00    -0.205 F 
ATOM     13  C   UNL     1      34.010 -23.270 -16.905  0.00  0.00    -0.003 C 
ATOM     14  C   UNL     1      35.353 -23.064 -16.613  0.00  0.00    -0.005 C 
ATOM     15  C   UNL     1      35.834 -23.349 -15.335  0.00  0.00    +0.005 C 
ATOM     16  C   UNL     1      33.140 -23.759 -15.937  0.00  0.00    -0.000 C 
ATOM     17  C   UNL     1      34.967 -23.840 -14.358  0.00  0.00    +0.136 C 
ATOM     18  C   UNL     1      33.621 -24.044 -14.659  0.00  0.00    +0.029 C 
ATOM     19  C   UNL     1      37.274 -23.129 -15.016  0.00  0.00    +0.033 C 
ENDBRANCH  11  13
ENDBRANCH   8  11
ENDBRANCH   3   9
BRANCH   4  22
ATOM     20  O   UNL     1      34.995 -18.353 -24.449  0.00  0.00    -0.269 OA
ATOM     21  N   UNL     1      35.569 -16.566 -23.086  0.00  0.00    -0.296 N 
ATOM     22  C   UNL     1      35.375 -17.911 -23.367  0.00  0.00    +0.260 C 
ATOM     23  H   UNL     1      35.875 -16.310 -22.186  0.00  0.00    +0.150 HD
BRANCH  21  24
ATOM     24  C   UNL     1      35.339 -15.529 -24.060  0.00  0.00    +0.117 C 
BRANCH  24  26
ATOM     25  F   UNL     1      32.187 -11.339 -22.032  0.00  0.00    -0.205 F 
ATOM     26  C   UNL     1      34.502 -14.419 -23.519  0.00  0.00    -0.003 C 
ATOM     27  C   UNL     1      33.888 -14.550 -22.273  0.00  0.00    -0.005 C 
ATOM     28  C   UNL     1      33.106 -13.511 -21.769  0.00  0.00    +0.005 C 
ATOM     29  C   UNL     1      34.333 -13.249 -24.259  0.00  0.00    -0.000 C 
ATOM     30  C   UNL     1      32.937 -12.342 -22.509  0.00  0.00    +0.136 C 
ATOM     31  C   UNL     1      33.551 -12.211 -23.755  0.00  0.00    +0.029 C 
ATOM     32  C   UNL     1      32.452 -13.655 -20.436  0.00  0.00    +0.033 C 
ENDBRANCH  24  26
ENDBRANCH  21  24
ENDBRANCH   4  22
TORSDOF 6
ENDMDL
