MODEL 1
REMARK VINA RESULT:     -12.3      0.000      0.000
REMARK  Name = 5288711
REMARK  4 active torsions:
REMARK  status: ('A' for Active; 'I' for Inactive)
REMARK    1  A    between atoms: C_1  and  S_7
REMARK    2  A    between atoms: C_2  and  N_17
REMARK    3  A    between atoms: S_7  and  N_11
REMARK    4  A    between atoms: N_17  and  C_25
REMARK                            x       y       z     vdW  Elec       q    Type
REMARK                         _______ _______ _______ _____ _____    ______ ____
ROOT
ATOM      1  C   UNL     1      34.519 -21.911 -19.371  0.00  0.00    +0.125 C 
ATOM      2  C   UNL     1      35.650 -20.048 -21.122  0.00  0.00    +0.048 C 
ATOM      3  C   UNL     1      33.698 -21.120 -20.175  0.00  0.00    +0.021 C 
ATOM      4  C   UNL     1      35.905 -21.772 -19.442  0.00  0.00    +0.021 C 
ATOM      5  C   UNL     1      34.261 -20.191 -21.048  0.00  0.00    +0.016 C 
ATOM      6  C   UNL     1      36.470 -20.843 -20.315  0.00  0.00    +0.016 C 
ENDROOT
BRANCH   1   7
ATOM      7  S   UNL     1      33.814 -23.075 -18.277  0.00  0.00    +0.075 S 
ATOM      8  O   UNL     1      33.695 -24.350 -18.973  0.00  0.00    -0.150 OA
ATOM      9  O   UNL     1      34.554 -23.008 -17.023  0.00  0.00    -0.150 OA
BRANCH   7  11
ATOM     10  S   UNL     1      29.869 -23.161 -16.829  0.00  0.00    -0.050 S 
ATOM     11  N   UNL     1      32.241 -22.415 -18.059  0.00  0.00    -0.194 N 
ATOM     12  N   UNL     1      32.176 -22.915 -15.689  0.00  0.00    -0.221 NA
ATOM     13  C   UNL     1      31.538 -22.816 -16.821  0.00  0.00    +0.179 C 
ATOM     14  C   UNL     1      29.972 -23.485 -15.147  0.00  0.00    +0.059 C 
ATOM     15  C   UNL     1      31.271 -23.301 -14.720  0.00  0.00    +0.108 C 
ATOM     16  H   UNL     1      31.834 -21.807 -18.718  0.00  0.00    +0.176 HD
ENDBRANCH   7  11
ENDBRANCH   1   7
BRANCH   2  17
ATOM     17  N   UNL     1      36.218 -19.111 -22.001  0.00  0.00    -0.311 N 
ATOM     18  H   UNL     1      36.989 -19.429 -22.523  0.00  0.00    +0.152 HD
BRANCH  17  25
ATOM     19  O   UNL     1      35.162 -19.325 -24.693  0.00  0.00    -0.270 OA
ATOM     20  N   UNL     1      34.397 -17.216 -25.434  0.00  0.00    -0.280 N 
ATOM     21  C   UNL     1      34.875 -15.938 -23.582  0.00  0.00    +0.019 C 
ATOM     22  C   UNL     1      35.282 -17.316 -23.325  0.00  0.00    +0.069 C 
ATOM     23  C   UNL     1      34.344 -15.934 -24.876  0.00  0.00    +0.051 C 
ATOM     24  C   UNL     1      34.963 -18.135 -24.543  0.00  0.00    +0.251 C 
ATOM     25  C   UNL     1      35.843 -17.826 -22.228  0.00  0.00    +0.066 C 
ATOM     26  C   UNL     1      34.927 -14.776 -22.837  0.00  0.00    +0.001 C 
ATOM     27  C   UNL     1      33.851 -14.789 -25.469  0.00  0.00    +0.015 C 
ATOM     28  C   UNL     1      34.432 -13.603 -23.418  0.00  0.00    +0.000 C 
ATOM     29  C   UNL     1      33.900 -13.610 -24.721  0.00  0.00    +0.001 C 
ATOM     30  H   UNL     1      34.077 -17.443 -26.336  0.00  0.00    +0.155 HD
ENDBRANCH  17  25
ENDBRANCH   2  17
TORSDOF 4
ENDMDL
MODEL 2
REMARK VINA RESULT:     -11.9      1.429      1.803
REMARK  Name = 5288711
REMARK  4 active torsions:
REMARK  status: ('A' for Active; 'I' for Inactive)
REMARK    1  A    between atoms: C_1  and  S_7
REMARK    2  A    between atoms: C_2  and  N_17
REMARK    3  A    between atoms: S_7  and  N_11
REMARK    4  A    between atoms: N_17  and  C_25
REMARK                            x       y       z     vdW  Elec       q    Type
REMARK                         _______ _______ _______ _____ _____    ______ ____
ROOT
ATOM      1  C   UNL     1      34.737 -21.779 -19.658  0.00  0.00    +0.125 C 
ATOM      2  C   UNL     1      35.859 -19.685 -21.132  0.00  0.00    +0.048 C 
ATOM      3  C   UNL     1      33.917 -20.931 -20.403  0.00  0.00    +0.021 C 
ATOM      4  C   UNL     1      36.117 -21.582 -19.649  0.00  0.00    +0.021 C 
ATOM      5  C   UNL     1      34.476 -19.887 -21.138  0.00  0.00    +0.016 C 
ATOM      6  C   UNL     1      36.678 -20.537 -20.385  0.00  0.00    +0.016 C 
ENDROOT
BRANCH   1   7
ATOM      7  S   UNL     1      34.036 -23.086 -18.737  0.00  0.00    +0.075 S 
ATOM      8  O   UNL     1      33.829 -24.220 -19.629  0.00  0.00    -0.150 OA
ATOM      9  O   UNL     1      34.839 -23.259 -17.533  0.00  0.00    -0.150 OA
BRANCH   7  11
ATOM     10  S   UNL     1      30.312 -23.147 -16.790  0.00  0.00    -0.050 S 
ATOM     11  N   UNL     1      32.506 -22.420 -18.324  0.00  0.00    -0.194 N 
ATOM     12  N   UNL     1      32.747 -22.896 -15.960  0.00  0.00    -0.221 NA
ATOM     13  C   UNL     1      31.968 -22.806 -17.002  0.00  0.00    +0.179 C 
ATOM     14  C   UNL     1      30.631 -23.454 -15.133  0.00  0.00    +0.059 C 
ATOM     15  C   UNL     1      31.974 -23.271 -14.879  0.00  0.00    +0.108 C 
ATOM     16  H   UNL     1      32.018 -21.817 -18.931  0.00  0.00    +0.176 HD
ENDBRANCH   7  11
ENDBRANCH   1   7
BRANCH   2  17
ATOM     17  N   UNL     1      36.423 -18.633 -21.872  0.00  0.00    -0.311 N 
ATOM     18  H   UNL     1      37.301 -18.315 -21.562  0.00  0.00    +0.152 HD
BRANCH  17  25
ATOM     19  O   UNL     1      35.384 -16.220 -20.646  0.00  0.00    -0.270 OA
ATOM     20  N   UNL     1      34.402 -14.834 -22.289  0.00  0.00    -0.280 N 
ATOM     21  C   UNL     1      34.754 -16.117 -24.165  0.00  0.00    +0.019 C 
ATOM     22  C   UNL     1      35.302 -16.813 -23.005  0.00  0.00    +0.069 C 
ATOM     23  C   UNL     1      34.220 -14.922 -23.674  0.00  0.00    +0.051 C 
ATOM     24  C   UNL     1      35.064 -15.962 -21.791  0.00  0.00    +0.251 C 
ATOM     25  C   UNL     1      35.917 -17.996 -22.959  0.00  0.00    +0.066 C 
ATOM     26  C   UNL     1      34.687 -16.419 -25.511  0.00  0.00    +0.001 C 
ATOM     27  C   UNL     1      33.608 -13.994 -24.492  0.00  0.00    +0.015 C 
ATOM     28  C   UNL     1      34.071 -15.492 -26.360  0.00  0.00    +0.000 C 
ATOM     29  C   UNL     1      33.537 -14.292 -25.855  0.00  0.00    +0.001 C 
ATOM     30  H   UNL     1      34.104 -14.077 -21.736  0.00  0.00    +0.155 HD
ENDBRANCH  17  25
ENDBRANCH   2  17
TORSDOF 4
ENDMDL
MODEL 3
REMARK VINA RESULT:     -11.5      2.750      9.647
REMARK  Name = 5288711
REMARK  4 active torsions:
REMARK  status: ('A' for Active; 'I' for Inactive)
REMARK    1  A    between atoms: C_1  and  S_7
REMARK    2  A    between atoms: C_2  and  N_17
REMARK    3  A    between atoms: S_7  and  N_11
REMARK    4  A    between atoms: N_17  and  C_25
REMARK                            x       y       z     vdW  Elec       q    Type
REMARK                         _______ _______ _______ _____ _____    ______ ____
ROOT
ATOM      1  C   UNL     1      35.646 -19.837 -21.045  0.00  0.00    +0.125 C 
ATOM      2  C   UNL     1      34.601 -22.109 -19.795  0.00  0.00    +0.048 C 
ATOM      3  C   UNL     1      34.269 -20.055 -21.032  0.00  0.00    +0.021 C 
ATOM      4  C   UNL     1      36.502 -20.753 -20.433  0.00  0.00    +0.021 C 
ATOM      5  C   UNL     1      33.747 -21.188 -20.408  0.00  0.00    +0.016 C 
ATOM      6  C   UNL     1      35.981 -21.886 -19.809  0.00  0.00    +0.016 C 
ENDROOT
BRANCH   1   7
ATOM      7  S   UNL     1      36.300 -18.419 -21.826  0.00  0.00    +0.075 S 
ATOM      8  O   UNL     1      35.521 -17.261 -21.407  0.00  0.00    -0.150 OA
ATOM      9  O   UNL     1      37.743 -18.426 -21.620  0.00  0.00    -0.150 OA
BRANCH   7  11
ATOM     10  S   UNL     1      34.070 -17.968 -25.360  0.00  0.00    -0.050 S 
ATOM     11  N   UNL     1      35.947 -18.755 -23.474  0.00  0.00    -0.194 N 
ATOM     12  N   UNL     1      35.690 -16.420 -24.071  0.00  0.00    -0.221 NA
ATOM     13  C   UNL     1      35.313 -17.657 -24.237  0.00  0.00    +0.179 C 
ATOM     14  C   UNL     1      33.998 -16.285 -25.682  0.00  0.00    +0.059 C 
ATOM     15  C   UNL     1      34.930 -15.626 -24.906  0.00  0.00    +0.108 C 
ATOM     16  H   UNL     1      36.155 -19.625 -23.886  0.00  0.00    +0.176 HD
ENDBRANCH   7  11
ENDBRANCH   1   7
BRANCH   2  17
ATOM     17  N   UNL     1      34.076 -23.250 -19.167  0.00  0.00    -0.311 N 
ATOM     18  H   UNL     1      34.454 -24.111 -19.459  0.00  0.00    +0.152 HD
BRANCH  17  25
ATOM     19  O   UNL     1      35.708 -23.457 -16.780  0.00  0.00    -0.270 OA
ATOM     20  N   UNL     1      34.331 -23.607 -14.866  0.00  0.00    -0.280 N 
ATOM     21  C   UNL     1      32.255 -23.514 -15.852  0.00  0.00    +0.019 C 
ATOM     22  C   UNL     1      33.277 -23.434 -16.891  0.00  0.00    +0.069 C 
ATOM     23  C   UNL     1      32.949 -23.618 -14.643  0.00  0.00    +0.051 C 
ATOM     24  C   UNL     1      34.624 -23.496 -16.230  0.00  0.00    +0.251 C 
ATOM     25  C   UNL     1      33.115 -23.324 -18.211  0.00  0.00    +0.066 C 
ATOM     26  C   UNL     1      30.874 -23.506 -15.874  0.00  0.00    +0.001 C 
ATOM     27  C   UNL     1      32.305 -23.716 -13.426  0.00  0.00    +0.015 C 
ATOM     28  C   UNL     1      30.199 -23.604 -14.652  0.00  0.00    +0.000 C 
ATOM     29  C   UNL     1      30.908 -23.707 -13.441  0.00  0.00    +0.001 C 
ATOM     30  H   UNL     1      35.009 -23.670 -14.156  0.00  0.00    +0.155 HD
ENDBRANCH  17  25
ENDBRANCH   2  17
TORSDOF 4
ENDMDL
MODEL 4
REMARK VINA RESULT:     -11.4      2.099      2.361
REMARK  Name = 5288711
REMARK  4 active torsions:
REMARK  status: ('A' for Active; 'I' for Inactive)
REMARK    1  A    between atoms: C_1  and  S_7
REMARK    2  A    between atoms: C_2  and  N_17
REMARK    3  A    between atoms: S_7  and  N_11
REMARK    4  A    between atoms: N_17  and  C_25
REMARK                            x       y       z     vdW  Elec       q    Type
REMARK                         _______ _______ _______ _____ _____    ______ ____
ROOT
ATOM      1  C   UNL     1      34.265 -22.059 -19.034  0.00  0.00    +0.125 C 
ATOM      2  C   UNL     1      35.585 -20.346 -20.805  0.00  0.00    +0.048 C 
ATOM      3  C   UNL     1      33.530 -21.258 -19.909  0.00  0.00    +0.021 C 
ATOM      4  C   UNL     1      35.658 -22.006 -19.044  0.00  0.00    +0.021 C 
ATOM      5  C   UNL     1      34.189 -20.404 -20.792  0.00  0.00    +0.016 C 
ATOM      6  C   UNL     1      36.318 -21.151 -19.928  0.00  0.00    +0.016 C 
ENDROOT
BRANCH   1   7
ATOM      7  S   UNL     1      33.440 -23.129 -17.927  0.00  0.00    +0.075 S 
ATOM      8  O   UNL     1      32.020 -22.802 -17.941  0.00  0.00    -0.150 OA
ATOM      9  O   UNL     1      33.865 -24.490 -18.229  0.00  0.00    -0.150 OA
BRANCH   7  11
ATOM     10  S   UNL     1      34.733 -23.795 -13.984  0.00  0.00    -0.050 S 
ATOM     11  N   UNL     1      34.108 -22.631 -16.424  0.00  0.00    -0.194 N 
ATOM     12  N   UNL     1      35.648 -24.498 -16.297  0.00  0.00    -0.221 NA
ATOM     13  C   UNL     1      34.862 -23.662 -15.678  0.00  0.00    +0.179 C 
ATOM     14  C   UNL     1      35.836 -25.107 -14.045  0.00  0.00    +0.059 C 
ATOM     15  C   UNL     1      36.212 -25.334 -15.353  0.00  0.00    +0.108 C 
ATOM     16  H   UNL     1      33.997 -21.715 -16.081  0.00  0.00    +0.176 HD
ENDBRANCH   7  11
ENDBRANCH   1   7
BRANCH   2  17
ATOM     17  N   UNL     1      36.248 -19.485 -21.695  0.00  0.00    -0.311 N 
ATOM     18  H   UNL     1      37.074 -19.839 -22.097  0.00  0.00    +0.152 HD
BRANCH  17  25
ATOM     19  O   UNL     1      35.242 -19.989 -24.367  0.00  0.00    -0.270 OA
ATOM     20  N   UNL     1      34.529 -17.967 -25.359  0.00  0.00    -0.280 N 
ATOM     21  C   UNL     1      34.995 -16.493 -23.656  0.00  0.00    +0.019 C 
ATOM     22  C   UNL     1      35.371 -17.839 -23.235  0.00  0.00    +0.069 C 
ATOM     23  C   UNL     1      34.489 -16.628 -24.953  0.00  0.00    +0.051 C 
ATOM     24  C   UNL     1      35.061 -18.786 -24.358  0.00  0.00    +0.251 C 
ATOM     25  C   UNL     1      35.902 -18.228 -22.074  0.00  0.00    +0.066 C 
ATOM     26  C   UNL     1      35.053 -15.254 -23.047  0.00  0.00    +0.001 C 
ATOM     27  C   UNL     1      34.029 -15.551 -25.683  0.00  0.00    +0.015 C 
ATOM     28  C   UNL     1      34.591 -14.148 -23.769  0.00  0.00    +0.000 C 
ATOM     29  C   UNL     1      34.084 -14.295 -25.074  0.00  0.00    +0.001 C 
ATOM     30  H   UNL     1      34.224 -18.291 -26.237  0.00  0.00    +0.155 HD
ENDBRANCH  17  25
ENDBRANCH   2  17
TORSDOF 4
ENDMDL
MODEL 5
REMARK VINA RESULT:     -11.2      2.158      2.620
REMARK  Name = 5288711
REMARK  4 active torsions:
REMARK  status: ('A' for Active; 'I' for Inactive)
REMARK    1  A    between atoms: C_1  and  S_7
REMARK    2  A    between atoms: C_2  and  N_17
REMARK    3  A    between atoms: S_7  and  N_11
REMARK    4  A    between atoms: N_17  and  C_25
REMARK                            x       y       z     vdW  Elec       q    Type
REMARK                         _______ _______ _______ _____ _____    ______ ____
ROOT
ATOM      1  C   UNL     1      34.690 -21.511 -19.849  0.00  0.00    +0.125 C 
ATOM      2  C   UNL     1      35.853 -19.469 -21.364  0.00  0.00    +0.048 C 
ATOM      3  C   UNL     1      33.885 -20.647 -20.590  0.00  0.00    +0.021 C 
ATOM      4  C   UNL     1      36.076 -21.357 -19.864  0.00  0.00    +0.021 C 
ATOM      5  C   UNL     1      34.465 -19.629 -21.346  0.00  0.00    +0.016 C 
ATOM      6  C   UNL     1      36.657 -20.339 -20.620  0.00  0.00    +0.016 C 
ENDROOT
BRANCH   1   7
ATOM      7  S   UNL     1      33.964 -22.786 -18.902  0.00  0.00    +0.075 S 
ATOM      8  O   UNL     1      32.754 -22.266 -18.279  0.00  0.00    -0.150 OA
ATOM      9  O   UNL     1      33.885 -23.972 -19.745  0.00  0.00    -0.150 OA
BRANCH   7  11
ATOM     10  S   UNL     1      35.300 -22.875 -14.918  0.00  0.00    -0.050 S 
ATOM     11  N   UNL     1      35.156 -23.016 -17.685  0.00  0.00    -0.194 N 
ATOM     12  N   UNL     1      33.717 -24.383 -16.296  0.00  0.00    -0.221 NA
ATOM     13  C   UNL     1      34.659 -23.487 -16.374  0.00  0.00    +0.179 C 
ATOM     14  C   UNL     1      34.222 -23.899 -14.063  0.00  0.00    +0.059 C 
ATOM     15  C   UNL     1      33.463 -24.623 -14.959  0.00  0.00    +0.108 C 
ATOM     16  H   UNL     1      36.112 -22.846 -17.851  0.00  0.00    +0.176 HD
ENDBRANCH   7  11
ENDBRANCH   1   7
BRANCH   2  17
ATOM     17  N   UNL     1      36.437 -18.444 -22.125  0.00  0.00    -0.311 N 
ATOM     18  H   UNL     1      37.342 -18.169 -21.849  0.00  0.00    +0.152 HD
BRANCH  17  25
ATOM     19  O   UNL     1      35.311 -16.115 -20.814  0.00  0.00    -0.270 OA
ATOM     20  N   UNL     1      34.300 -14.697 -22.410  0.00  0.00    -0.280 N 
ATOM     21  C   UNL     1      34.708 -15.893 -24.332  0.00  0.00    +0.019 C 
ATOM     22  C   UNL     1      35.268 -16.616 -23.195  0.00  0.00    +0.069 C 
ATOM     23  C   UNL     1      34.132 -14.735 -23.799  0.00  0.00    +0.051 C 
ATOM     24  C   UNL     1      34.993 -15.823 -21.951  0.00  0.00    +0.251 C 
ATOM     25  C   UNL     1      35.921 -17.780 -23.190  0.00  0.00    +0.066 C 
ATOM     26  C   UNL     1      34.662 -16.143 -25.690  0.00  0.00    +0.001 C 
ATOM     27  C   UNL     1      33.497 -13.795 -24.586  0.00  0.00    +0.015 C 
ATOM     28  C   UNL     1      34.024 -15.202 -26.507  0.00  0.00    +0.000 C 
ATOM     29  C   UNL     1      33.448 -14.041 -25.960  0.00  0.00    +0.001 C 
ATOM     30  H   UNL     1      33.972 -13.973 -21.830  0.00  0.00    +0.155 HD
ENDBRANCH  17  25
ENDBRANCH   2  17
TORSDOF 4
ENDMDL
MODEL 6
REMARK VINA RESULT:     -11.2      2.829      9.887
REMARK  Name = 5288711
REMARK  4 active torsions:
REMARK  status: ('A' for Active; 'I' for Inactive)
REMARK    1  A    between atoms: C_1  and  S_7
REMARK    2  A    between atoms: C_2  and  N_17
REMARK    3  A    between atoms: S_7  and  N_11
REMARK    4  A    between atoms: N_17  and  C_25
REMARK                            x       y       z     vdW  Elec       q    Type
REMARK                         _______ _______ _______ _____ _____    ______ ____
ROOT
ATOM      1  C   UNL     1      35.640 -19.735 -21.268  0.00  0.00    +0.125 C 
ATOM      2  C   UNL     1      35.108 -21.759 -19.414  0.00  0.00    +0.048 C 
ATOM      3  C   UNL     1      34.326 -20.148 -21.043  0.00  0.00    +0.021 C 
ATOM      4  C   UNL     1      36.687 -20.331 -20.567  0.00  0.00    +0.021 C 
ATOM      5  C   UNL     1      34.061 -21.157 -20.118  0.00  0.00    +0.016 C 
ATOM      6  C   UNL     1      36.423 -21.342 -19.642  0.00  0.00    +0.016 C 
ENDROOT
BRANCH   1   7
ATOM      7  S   UNL     1      35.972 -18.471 -22.426  0.00  0.00    +0.075 S 
ATOM      8  O   UNL     1      37.379 -18.106 -22.319  0.00  0.00    -0.150 OA
ATOM      9  O   UNL     1      35.438 -18.898 -23.713  0.00  0.00    -0.150 OA
BRANCH   7  11
ATOM     10  S   UNL     1      34.929 -14.421 -22.012  0.00  0.00    -0.050 S 
ATOM     11  N   UNL     1      35.019 -17.186 -21.798  0.00  0.00    -0.194 N 
ATOM     12  N   UNL     1      34.740 -16.115 -23.955  0.00  0.00    -0.221 NA
ATOM     13  C   UNL     1      34.889 -15.994 -22.665  0.00  0.00    +0.179 C 
ATOM     14  C   UNL     1      34.728 -13.803 -23.598  0.00  0.00    +0.059 C 
ATOM     15  C   UNL     1      34.647 -14.848 -24.495  0.00  0.00    +0.108 C 
ATOM     16  H   UNL     1      34.585 -17.240 -20.916  0.00  0.00    +0.176 HD
ENDBRANCH   7  11
ENDBRANCH   1   7
BRANCH   2  17
ATOM     17  N   UNL     1      34.840 -22.776 -18.483  0.00  0.00    -0.311 N 
ATOM     18  H   UNL     1      35.575 -23.411 -18.321  0.00  0.00    +0.152 HD
BRANCH  17  25
ATOM     19  O   UNL     1      35.904 -24.189 -16.186  0.00  0.00    -0.270 OA
ATOM     20  N   UNL     1      34.156 -24.753 -14.701  0.00  0.00    -0.280 N 
ATOM     21  C   UNL     1      32.360 -23.873 -15.835  0.00  0.00    +0.019 C 
ATOM     22  C   UNL     1      33.574 -23.625 -16.605  0.00  0.00    +0.069 C 
ATOM     23  C   UNL     1      32.770 -24.560 -14.689  0.00  0.00    +0.051 C 
ATOM     24  C   UNL     1      34.735 -24.206 -15.850  0.00  0.00    +0.251 C 
ATOM     25  C   UNL     1      33.703 -23.000 -17.777  0.00  0.00    +0.066 C 
ATOM     26  C   UNL     1      31.027 -23.571 -16.038  0.00  0.00    +0.001 C 
ATOM     27  C   UNL     1      31.882 -24.968 -13.714  0.00  0.00    +0.015 C 
ATOM     28  C   UNL     1      30.109 -23.975 -15.062  0.00  0.00    +0.000 C 
ATOM     29  C   UNL     1      30.532 -24.666 -13.912  0.00  0.00    +0.001 C 
ATOM     30  H   UNL     1      34.659 -25.215 -13.992  0.00  0.00    +0.155 HD
ENDBRANCH  17  25
ENDBRANCH   2  17
TORSDOF 4
ENDMDL
MODEL 7
REMARK VINA RESULT:     -11.0      7.434     12.094
REMARK  Name = 5288711
REMARK  4 active torsions:
REMARK  status: ('A' for Active; 'I' for Inactive)
REMARK    1  A    between atoms: C_1  and  S_7
REMARK    2  A    between atoms: C_2  and  N_17
REMARK    3  A    between atoms: S_7  and  N_11
REMARK    4  A    between atoms: N_17  and  C_25
REMARK                            x       y       z     vdW  Elec       q    Type
REMARK                         _______ _______ _______ _____ _____    ______ ____
ROOT
ATOM      1  C   UNL     1      33.063  -9.906 -23.248  0.00  0.00    +0.125 C 
ATOM      2  C   UNL     1      34.042 -12.372 -24.129  0.00  0.00    +0.048 C 
ATOM      3  C   UNL     1      34.050  -9.954 -24.233  0.00  0.00    +0.021 C 
ATOM      4  C   UNL     1      32.564 -11.089 -22.704  0.00  0.00    +0.021 C 
ATOM      5  C   UNL     1      34.538 -11.183 -24.673  0.00  0.00    +0.016 C 
ATOM      6  C   UNL     1      33.052 -12.320 -23.143  0.00  0.00    +0.016 C 
ENDROOT
BRANCH   1   7
ATOM      7  S   UNL     1      32.451  -8.366 -22.697  0.00  0.00    +0.075 S 
ATOM      8  O   UNL     1      31.114  -8.178 -23.246  0.00  0.00    -0.150 OA
ATOM      9  O   UNL     1      32.650  -8.302 -21.255  0.00  0.00    -0.150 OA
BRANCH   7  11
ATOM     10  S   UNL     1      33.347  -5.148 -25.248  0.00  0.00    -0.050 S 
ATOM     11  N   UNL     1      33.528  -7.280 -23.482  0.00  0.00    -0.194 N 
ATOM     12  N   UNL     1      32.221  -5.317 -22.928  0.00  0.00    -0.221 NA
ATOM     13  C   UNL     1      32.987  -5.936 -23.780  0.00  0.00    +0.179 C 
ATOM     14  C   UNL     1      32.388  -3.827 -24.724  0.00  0.00    +0.059 C 
ATOM     15  C   UNL     1      31.873  -4.096 -23.473  0.00  0.00    +0.108 C 
ATOM     16  H   UNL     1      34.449  -7.537 -23.717  0.00  0.00    +0.176 HD
ENDBRANCH   7  11
ENDBRANCH   1   7
BRANCH   2  17
ATOM     17  N   UNL     1      34.534 -13.610 -24.572  0.00  0.00    -0.311 N 
ATOM     18  H   UNL     1      34.659 -13.698 -25.545  0.00  0.00    +0.152 HD
BRANCH  17  25
ATOM     19  O   UNL     1      34.018 -15.722 -26.491  0.00  0.00    -0.270 OA
ATOM     20  N   UNL     1      34.492 -17.826 -25.528  0.00  0.00    -0.280 N 
ATOM     21  C   UNL     1      35.169 -17.169 -23.430  0.00  0.00    +0.019 C 
ATOM     22  C   UNL     1      34.821 -15.985 -24.209  0.00  0.00    +0.069 C 
ATOM     23  C   UNL     1      34.952 -18.259 -24.278  0.00  0.00    +0.051 C 
ATOM     24  C   UNL     1      34.382 -16.432 -25.573  0.00  0.00    +0.251 C 
ATOM     25  C   UNL     1      34.861 -14.704 -23.837  0.00  0.00    +0.066 C 
ATOM     26  C   UNL     1      35.625 -17.359 -22.140  0.00  0.00    +0.001 C 
ATOM     27  C   UNL     1      35.176 -19.561 -23.881  0.00  0.00    +0.015 C 
ATOM     28  C   UNL     1      35.860 -18.671 -21.715  0.00  0.00    +0.000 C 
ATOM     29  C   UNL     1      35.638 -19.761 -22.578  0.00  0.00    +0.001 C 
ATOM     30  H   UNL     1      34.275 -18.425 -26.277  0.00  0.00    +0.155 HD
ENDBRANCH  17  25
ENDBRANCH   2  17
TORSDOF 4
ENDMDL
MODEL 8
REMARK VINA RESULT:     -10.4      2.918      9.834
REMARK  Name = 5288711
REMARK  4 active torsions:
REMARK  status: ('A' for Active; 'I' for Inactive)
REMARK    1  A    between atoms: C_1  and  S_7
REMARK    2  A    between atoms: C_2  and  N_17
REMARK    3  A    between atoms: S_7  and  N_11
REMARK    4  A    between atoms: N_17  and  C_25
REMARK                            x       y       z     vdW  Elec       q    Type
REMARK                         _______ _______ _______ _____ _____    ______ ____
ROOT
ATOM      1  C   UNL     1      35.533 -19.663 -21.256  0.00  0.00    +0.125 C 
ATOM      2  C   UNL     1      34.275 -21.741 -19.871  0.00  0.00    +0.048 C 
ATOM      3  C   UNL     1      36.294 -20.577 -20.527  0.00  0.00    +0.021 C 
ATOM      4  C   UNL     1      34.144 -19.786 -21.294  0.00  0.00    +0.021 C 
ATOM      5  C   UNL     1      35.667 -21.613 -19.837  0.00  0.00    +0.016 C 
ATOM      6  C   UNL     1      33.516 -20.823 -20.604  0.00  0.00    +0.016 C 
ENDROOT
BRANCH   1   7
ATOM      7  S   UNL     1      36.317 -18.364 -22.120  0.00  0.00    +0.075 S 
ATOM      8  O   UNL     1      35.720 -17.103 -21.700  0.00  0.00    -0.150 OA
ATOM      9  O   UNL     1      37.757 -18.553 -21.992  0.00  0.00    -0.150 OA
BRANCH   7  11
ATOM     10  S   UNL     1      33.851 -17.844 -25.484  0.00  0.00    -0.050 S 
ATOM     11  N   UNL     1      35.829 -18.696 -23.734  0.00  0.00    -0.194 N 
ATOM     12  N   UNL     1      35.626 -16.357 -24.334  0.00  0.00    -0.221 NA
ATOM     13  C   UNL     1      35.187 -17.578 -24.459  0.00  0.00    +0.179 C 
ATOM     14  C   UNL     1      33.826 -16.162 -25.817  0.00  0.00    +0.059 C 
ATOM     15  C   UNL     1      34.839 -15.537 -25.119  0.00  0.00    +0.108 C 
ATOM     16  H   UNL     1      35.969 -19.577 -24.152  0.00  0.00    +0.176 HD
ENDBRANCH   7  11
ENDBRANCH   1   7
BRANCH   2  17
ATOM     17  N   UNL     1      33.644 -22.785 -19.176  0.00  0.00    -0.311 N 
ATOM     18  H   UNL     1      32.893 -23.217 -19.644  0.00  0.00    +0.152 HD
BRANCH  17  25
ATOM     19  O   UNL     1      31.149 -22.265 -17.794  0.00  0.00    -0.270 OA
ATOM     20  N   UNL     1      31.289 -23.014 -15.558  0.00  0.00    -0.280 N 
ATOM     21  C   UNL     1      33.437 -23.837 -15.540  0.00  0.00    +0.019 C 
ATOM     22  C   UNL     1      33.142 -23.312 -16.869  0.00  0.00    +0.069 C 
ATOM     23  C   UNL     1      32.279 -23.632 -14.784  0.00  0.00    +0.051 C 
ATOM     24  C   UNL     1      31.738 -22.779 -16.862  0.00  0.00    +0.251 C 
ATOM     25  C   UNL     1      33.931 -23.277 -17.944  0.00  0.00    +0.066 C 
ATOM     26  C   UNL     1      34.549 -24.434 -14.979  0.00  0.00    +0.001 C 
ATOM     27  C   UNL     1      32.184 -24.007 -13.459  0.00  0.00    +0.015 C 
ATOM     28  C   UNL     1      34.476 -24.824 -13.637  0.00  0.00    +0.000 C 
ATOM     29  C   UNL     1      33.305 -24.612 -12.885  0.00  0.00    +0.001 C 
ATOM     30  H   UNL     1      30.394 -22.776 -15.228  0.00  0.00    +0.155 HD
ENDBRANCH  17  25
ENDBRANCH   2  17
TORSDOF 4
ENDMDL
MODEL 9
REMARK VINA RESULT:     -10.4      3.750      6.603
REMARK  Name = 5288711
REMARK  4 active torsions:
REMARK  status: ('A' for Active; 'I' for Inactive)
REMARK    1  A    between atoms: C_1  and  S_7
REMARK    2  A    between atoms: C_2  and  N_17
REMARK    3  A    between atoms: S_7  and  N_11
REMARK    4  A    between atoms: N_17  and  C_25
REMARK                            x       y       z     vdW  Elec       q    Type
REMARK                         _______ _______ _______ _____ _____    ______ ____
ROOT
ATOM      1  C   UNL     1      35.368 -17.094 -23.415  0.00  0.00    +0.125 C 
ATOM      2  C   UNL     1      34.285 -14.755 -24.498  0.00  0.00    +0.048 C 
ATOM      3  C   UNL     1      34.966 -17.064 -24.750  0.00  0.00    +0.021 C 
ATOM      4  C   UNL     1      35.230 -15.956 -22.620  0.00  0.00    +0.021 C 
ATOM      5  C   UNL     1      34.426 -15.898 -25.291  0.00  0.00    +0.016 C 
ATOM      6  C   UNL     1      34.690 -14.789 -23.160  0.00  0.00    +0.016 C 
ENDROOT
BRANCH   1   7
ATOM      7  S   UNL     1      36.044 -18.554 -22.737  0.00  0.00    +0.075 S 
ATOM      8  O   UNL     1      35.846 -19.639 -23.690  0.00  0.00    -0.150 OA
ATOM      9  O   UNL     1      37.390 -18.245 -22.273  0.00  0.00    -0.150 OA
BRANCH   7  11
ATOM     10  S   UNL     1      33.687 -20.938 -20.202  0.00  0.00    -0.050 S 
ATOM     11  N   UNL     1      35.008 -18.806 -21.389  0.00  0.00    -0.194 N 
ATOM     12  N   UNL     1      36.234 -20.739 -20.593  0.00  0.00    -0.221 NA
ATOM     13  C   UNL     1      35.088 -20.139 -20.752  0.00  0.00    +0.179 C 
ATOM     14  C   UNL     1      34.682 -22.237 -19.687  0.00  0.00    +0.059 C 
ATOM     15  C   UNL     1      36.000 -21.952 -19.977  0.00  0.00    +0.108 C 
ATOM     16  H   UNL     1      34.398 -18.106 -21.061  0.00  0.00    +0.176 HD
ENDBRANCH   7  11
ENDBRANCH   1   7
BRANCH   2  17
ATOM     17  N   UNL     1      33.741 -13.580 -25.042  0.00  0.00    -0.311 N 
ATOM     18  H   UNL     1      32.959 -13.703 -25.629  0.00  0.00    +0.152 HD
BRANCH  17  25
ATOM     19  O   UNL     1      31.907 -12.710 -22.971  0.00  0.00    -0.270 OA
ATOM     20  N   UNL     1      32.339 -10.459 -22.401  0.00  0.00    -0.280 N 
ATOM     21  C   UNL     1      34.088 -10.007 -23.824  0.00  0.00    +0.019 C 
ATOM     22  C   UNL     1      33.659 -11.388 -24.023  0.00  0.00    +0.069 C 
ATOM     23  C   UNL     1      33.253  -9.490 -22.829  0.00  0.00    +0.051 C 
ATOM     24  C   UNL     1      32.519 -11.665 -23.087  0.00  0.00    +0.251 C 
ATOM     25  C   UNL     1      34.149 -12.298 -24.868  0.00  0.00    +0.066 C 
ATOM     26  C   UNL     1      35.071  -9.225 -24.398  0.00  0.00    +0.001 C 
ATOM     27  C   UNL     1      33.364  -8.191 -22.373  0.00  0.00    +0.015 C 
ATOM     28  C   UNL     1      35.201  -7.905 -23.951  0.00  0.00    +0.000 C 
ATOM     29  C   UNL     1      34.356  -7.394 -22.948  0.00  0.00    +0.001 C 
ATOM     30  H   UNL     1      31.657 -10.311 -21.707  0.00  0.00    +0.155 HD
ENDBRANCH  17  25
ENDBRANCH   2  17
TORSDOF 4
ENDMDL
