MODEL 1
REMARK VINA RESULT:     -12.0      0.000      0.000
REMARK  Name = 10224714
REMARK  8 active torsions:
REMARK  status: ('A' for Active; 'I' for Inactive)
REMARK    1  A    between atoms: N_1  and  C_12
REMARK    2  A    between atoms: N_2  and  CA_30
REMARK    3  A    between atoms: N_15  and  C_17
REMARK    4  A    between atoms: C_17  and  C_18
REMARK    5  A    between atoms: C_21  and  C_25
REMARK    6  A    between atoms: CA_30  and  C_31
REMARK    7  A    between atoms: CA_30  and  C_33
REMARK    8  A    between atoms: C_33  and  O_34
REMARK                            x       y       z     vdW  Elec       q    Type
REMARK                         _______ _______ _______ _____ _____    ______ ____
ROOT
ATOM      1  N   UNL     1      32.114 -24.100 -15.539  0.00  0.00    -0.262 N 
ATOM      2  N   UNL     1      36.837 -24.310 -15.078  0.00  0.00    -0.258 N 
ATOM      3  N   UNL     1      34.498 -24.317 -15.127  0.00  0.00    -0.311 NA
ATOM      4  N   UNL     1      32.159 -22.939 -17.442  0.00  0.00    -0.240 NA
ATOM      5  N   UNL     1      35.803 -23.228 -16.880  0.00  0.00    -0.311 NA
ATOM      6  C   UNL     1      33.434 -23.902 -15.831  0.00  0.00    +0.220 C 
ATOM      7  C   UNL     1      33.440 -23.181 -17.014  0.00  0.00    +0.167 C 
ATOM      8  C   UNL     1      34.683 -22.843 -17.538  0.00  0.00    +0.215 C 
ATOM      9  C   UNL     1      35.671 -23.939 -15.717  0.00  0.00    +0.202 C 
ATOM     10  C   UNL     1      31.388 -23.503 -16.535  0.00  0.00    +0.222 C 
ATOM     11  H   UNL     1      37.695 -24.051 -15.486  0.00  0.00    +0.160 HD
ATOM     12  N   UNL     1      34.784 -22.110 -18.733  0.00  0.00    -0.302 N 
ATOM     13  H   UNL     1      33.954 -21.843 -19.192  0.00  0.00    +0.150 HD
ENDROOT
BRANCH   1  14
ATOM     14  C   UNL     1      31.577 -24.803 -14.400  0.00  0.00    +0.077 C 
ATOM     15  C   UNL     1      31.260 -23.857 -13.240  0.00  0.00    +0.022 C 
ATOM     16  C   UNL     1      30.366 -25.659 -14.774  0.00  0.00    +0.022 C 
ENDBRANCH   1  14
BRANCH  12  17
ATOM     17  C   UNL     1      36.038 -21.736 -19.317  0.00  0.00    +0.116 C 
BRANCH  17  18
ATOM     18  C   UNL     1      35.830 -20.709 -20.397  0.00  0.00    -0.003 C 
ATOM     19  C   UNL     1      36.893 -19.907 -20.793  0.00  0.00    -0.003 C 
ATOM     20  C   UNL     1      34.579 -20.575 -20.982  0.00  0.00    -0.003 C 
ATOM     21  C   UNL     1      35.446 -18.812 -22.389  0.00  0.00    +0.018 C 
ATOM     22  C   UNL     1      36.700 -18.955 -21.793  0.00  0.00    +0.001 C 
ATOM     23  C   UNL     1      34.386 -19.622 -21.984  0.00  0.00    +0.001 C 
BRANCH  21  25
ATOM     24  N   UNL     1      35.500 -16.551 -23.055  0.00  0.00    -0.244 NA
ATOM     25  C   UNL     1      35.247 -17.824 -23.427  0.00  0.00    +0.081 C 
ATOM     26  C   UNL     1      34.826 -18.199 -24.691  0.00  0.00    +0.019 C 
ATOM     27  C   UNL     1      34.655 -17.197 -25.640  0.00  0.00    +0.003 C 
ATOM     28  C   UNL     1      35.323 -15.605 -24.004  0.00  0.00    +0.099 C 
ATOM     29  C   UNL     1      34.906 -15.873 -25.299  0.00  0.00    +0.021 C 
ENDBRANCH  21  25
ENDBRANCH  17  18
ENDBRANCH  12  17
BRANCH   2  30
ATOM     30  CA  UNL     1      36.867 -25.062 -13.837  0.00  0.00    +0.109 C 
BRANCH  30  31
ATOM     31  C   UNL     1      37.873 -24.429 -12.868  0.00  0.00    +0.023 C 
ATOM     32  C   UNL     1      37.263 -23.311 -12.033  0.00  0.00    +0.002 C 
ENDBRANCH  30  31
BRANCH  30  33
ATOM     33  C   UNL     1      37.247 -26.509 -14.149  0.00  0.00    +0.157 C 
BRANCH  33  34
ATOM     34  O   UNL     1      36.255 -27.087 -14.991  0.00  0.00    -0.380 OA
ATOM     35  H   UNL     1      36.618 -27.209 -15.882  0.00  0.00    +0.211 HD
ENDBRANCH  33  34
ENDBRANCH  30  33
ENDBRANCH   2  30
TORSDOF 8
ENDMDL
MODEL 2
REMARK VINA RESULT:     -10.9      1.173      1.699
REMARK  Name = 10224714
REMARK  8 active torsions:
REMARK  status: ('A' for Active; 'I' for Inactive)
REMARK    1  A    between atoms: N_1  and  C_12
REMARK    2  A    between atoms: N_2  and  CA_30
REMARK    3  A    between atoms: N_15  and  C_17
REMARK    4  A    between atoms: C_17  and  C_18
REMARK    5  A    between atoms: C_21  and  C_25
REMARK    6  A    between atoms: CA_30  and  C_31
REMARK    7  A    between atoms: CA_30  and  C_33
REMARK    8  A    between atoms: C_33  and  O_34
REMARK                            x       y       z     vdW  Elec       q    Type
REMARK                         _______ _______ _______ _____ _____    ______ ____
ROOT
ATOM      1  N   UNL     1      32.781 -23.981 -15.395  0.00  0.00    -0.262 N 
ATOM      2  N   UNL     1      37.482 -23.525 -14.893  0.00  0.00    -0.258 N 
ATOM      3  N   UNL     1      35.164 -23.836 -14.949  0.00  0.00    -0.311 NA
ATOM      4  N   UNL     1      32.718 -23.088 -17.437  0.00  0.00    -0.240 NA
ATOM      5  N   UNL     1      36.357 -22.834 -16.828  0.00  0.00    -0.311 NA
ATOM      6  C   UNL     1      34.071 -23.658 -15.706  0.00  0.00    +0.220 C 
ATOM      7  C   UNL     1      34.010 -23.106 -16.975  0.00  0.00    +0.167 C 
ATOM      8  C   UNL     1      35.212 -22.685 -17.536  0.00  0.00    +0.215 C 
ATOM      9  C   UNL     1      36.291 -23.394 -15.581  0.00  0.00    +0.202 C 
ATOM     10  C   UNL     1      32.006 -23.619 -16.465  0.00  0.00    +0.222 C 
ATOM     11  H   UNL     1      38.309 -23.216 -15.330  0.00  0.00    +0.160 HD
ATOM     12  N   UNL     1      35.245 -22.112 -18.819  0.00  0.00    -0.302 N 
ATOM     13  H   UNL     1      34.397 -22.016 -19.312  0.00  0.00    +0.150 HD
ENDROOT
BRANCH   1  14
ATOM     14  C   UNL     1      32.312 -24.589 -14.173  0.00  0.00    +0.077 C 
ATOM     15  C   UNL     1      32.063 -23.551 -13.076  0.00  0.00    +0.022 C 
ATOM     16  C   UNL     1      31.083 -25.469 -14.405  0.00  0.00    +0.022 C 
ENDBRANCH   1  14
BRANCH  12  17
ATOM     17  C   UNL     1      36.453 -21.662 -19.444  0.00  0.00    +0.116 C 
BRANCH  17  18
ATOM     18  C   UNL     1      36.153 -20.606 -20.472  0.00  0.00    -0.003 C 
ATOM     19  C   UNL     1      34.872 -20.506 -20.998  0.00  0.00    -0.003 C 
ATOM     20  C   UNL     1      37.162 -19.745 -20.883  0.00  0.00    -0.003 C 
ATOM     21  C   UNL     1      35.600 -18.657 -22.372  0.00  0.00    +0.018 C 
ATOM     22  C   UNL     1      34.595 -19.527 -21.953  0.00  0.00    +0.001 C 
ATOM     23  C   UNL     1      36.884 -18.766 -21.838  0.00  0.00    +0.001 C 
BRANCH  21  25
ATOM     24  N   UNL     1      35.415 -16.370 -22.917  0.00  0.00    -0.244 NA
ATOM     25  C   UNL     1      35.312 -17.642 -23.361  0.00  0.00    +0.081 C 
ATOM     26  C   UNL     1      34.959 -17.990 -24.654  0.00  0.00    +0.019 C 
ATOM     27  C   UNL     1      34.695 -16.963 -25.552  0.00  0.00    +0.003 C 
ATOM     28  C   UNL     1      35.151 -15.399 -23.819  0.00  0.00    +0.099 C 
ATOM     29  C   UNL     1      34.790 -15.640 -25.135  0.00  0.00    +0.021 C 
ENDBRANCH  21  25
ENDBRANCH  17  18
ENDBRANCH  12  17
BRANCH   2  30
ATOM     30  CA  UNL     1      37.581 -24.095 -13.563  0.00  0.00    +0.109 C 
BRANCH  30  31
ATOM     31  C   UNL     1      36.824 -25.428 -13.510  0.00  0.00    +0.023 C 
ATOM     32  C   UNL     1      37.520 -26.467 -12.640  0.00  0.00    +0.002 C 
ENDBRANCH  30  31
BRANCH  30  33
ATOM     33  C   UNL     1      37.002 -23.100 -12.557  0.00  0.00    +0.157 C 
BRANCH  33  34
ATOM     34  O   UNL     1      37.846 -23.042 -11.412  0.00  0.00    -0.380 OA
ATOM     35  H   UNL     1      38.774 -23.046 -11.693  0.00  0.00    +0.211 HD
ENDBRANCH  33  34
ENDBRANCH  30  33
ENDBRANCH   2  30
TORSDOF 8
ENDMDL
MODEL 3
REMARK VINA RESULT:     -10.3      1.622      4.225
REMARK  Name = 10224714
REMARK  8 active torsions:
REMARK  status: ('A' for Active; 'I' for Inactive)
REMARK    1  A    between atoms: N_1  and  C_12
REMARK    2  A    between atoms: N_2  and  CA_30
REMARK    3  A    between atoms: N_15  and  C_17
REMARK    4  A    between atoms: C_17  and  C_18
REMARK    5  A    between atoms: C_21  and  C_25
REMARK    6  A    between atoms: CA_30  and  C_31
REMARK    7  A    between atoms: CA_30  and  C_33
REMARK    8  A    between atoms: C_33  and  O_34
REMARK                            x       y       z     vdW  Elec       q    Type
REMARK                         _______ _______ _______ _____ _____    ______ ____
ROOT
ATOM      1  N   UNL     1      36.521 -23.455 -13.905  0.00  0.00    -0.262 N 
ATOM      2  N   UNL     1      32.003 -24.173 -15.185  0.00  0.00    -0.258 N 
ATOM      3  N   UNL     1      34.172 -23.873 -14.360  0.00  0.00    -0.311 NA
ATOM      4  N   UNL     1      37.203 -22.850 -15.939  0.00  0.00    -0.240 NA
ATOM      5  N   UNL     1      33.639 -23.470 -16.707  0.00  0.00    -0.311 NA
ATOM      6  C   UNL     1      35.418 -23.521 -14.708  0.00  0.00    +0.220 C 
ATOM      7  C   UNL     1      35.863 -23.143 -15.965  0.00  0.00    +0.167 C 
ATOM      8  C   UNL     1      34.919 -23.125 -16.987  0.00  0.00    +0.215 C 
ATOM      9  C   UNL     1      33.319 -23.826 -15.425  0.00  0.00    +0.202 C 
ATOM     10  C   UNL     1      37.568 -23.048 -14.689  0.00  0.00    +0.222 C 
ATOM     11  H   UNL     1      31.369 -24.144 -15.938  0.00  0.00    +0.160 HD
ATOM     12  N   UNL     1      35.282 -22.755 -18.294  0.00  0.00    -0.302 N 
ATOM     13  H   UNL     1      36.219 -22.508 -18.469  0.00  0.00    +0.150 HD
ENDROOT
BRANCH   1  14
ATOM     14  C   UNL     1      36.582 -23.755 -12.495  0.00  0.00    +0.077 C 
ATOM     15  C   UNL     1      36.806 -25.246 -12.235  0.00  0.00    +0.022 C 
ATOM     16  C   UNL     1      37.619 -22.895 -11.770  0.00  0.00    +0.022 C 
ENDBRANCH   1  14
BRANCH  12  17
ATOM     17  C   UNL     1      34.351 -22.719 -19.382  0.00  0.00    +0.116 C 
BRANCH  17  18
ATOM     18  C   UNL     1      34.545 -21.471 -20.200  0.00  0.00    -0.003 C 
ATOM     19  C   UNL     1      33.436 -20.799 -20.698  0.00  0.00    -0.003 C 
ATOM     20  C   UNL     1      35.830 -21.008 -20.447  0.00  0.00    -0.003 C 
ATOM     21  C   UNL     1      34.903 -19.168 -21.710  0.00  0.00    +0.018 C 
ATOM     22  C   UNL     1      33.617 -19.643 -21.457  0.00  0.00    +0.001 C 
ATOM     23  C   UNL     1      36.010 -19.850 -21.205  0.00  0.00    +0.001 C 
BRANCH  21  25
ATOM     24  N   UNL     1      35.117 -16.821 -21.784  0.00  0.00    -0.244 NA
ATOM     25  C   UNL     1      35.089 -17.968 -22.497  0.00  0.00    +0.081 C 
ATOM     26  C   UNL     1      35.223 -18.035 -23.873  0.00  0.00    +0.019 C 
ATOM     27  C   UNL     1      35.399 -16.843 -24.566  0.00  0.00    +0.003 C 
ATOM     28  C   UNL     1      35.289 -15.682 -22.492  0.00  0.00    +0.099 C 
ATOM     29  C   UNL     1      35.434 -15.639 -23.870  0.00  0.00    +0.021 C 
ENDBRANCH  21  25
ENDBRANCH  17  18
ENDBRANCH  12  17
BRANCH   2  30
ATOM     30  CA  UNL     1      31.506 -24.576 -13.884  0.00  0.00    +0.109 C 
BRANCH  30  31
ATOM     31  C   UNL     1      30.284 -25.488 -14.053  0.00  0.00    +0.023 C 
ATOM     32  C   UNL     1      29.455 -25.139 -15.282  0.00  0.00    +0.002 C 
ENDBRANCH  30  31
BRANCH  30  33
ATOM     33  C   UNL     1      31.144 -23.323 -13.086  0.00  0.00    +0.157 C 
BRANCH  33  34
ATOM     34  O   UNL     1      32.310 -22.821 -12.442  0.00  0.00    -0.380 OA
ATOM     35  H   UNL     1      32.419 -23.259 -11.583  0.00  0.00    +0.211 HD
ENDBRANCH  33  34
ENDBRANCH  30  33
ENDBRANCH   2  30
TORSDOF 8
ENDMDL
MODEL 4
REMARK VINA RESULT:      -9.5      2.060      4.348
REMARK  Name = 10224714
REMARK  8 active torsions:
REMARK  status: ('A' for Active; 'I' for Inactive)
REMARK    1  A    between atoms: N_1  and  C_12
REMARK    2  A    between atoms: N_2  and  CA_30
REMARK    3  A    between atoms: N_15  and  C_17
REMARK    4  A    between atoms: C_17  and  C_18
REMARK    5  A    between atoms: C_21  and  C_25
REMARK    6  A    between atoms: CA_30  and  C_31
REMARK    7  A    between atoms: CA_30  and  C_33
REMARK    8  A    between atoms: C_33  and  O_34
REMARK                            x       y       z     vdW  Elec       q    Type
REMARK                         _______ _______ _______ _____ _____    ______ ____
ROOT
ATOM      1  N   UNL     1      36.293 -23.039 -14.530  0.00  0.00    -0.262 N 
ATOM      2  N   UNL     1      32.145 -23.305 -16.830  0.00  0.00    -0.258 N 
ATOM      3  N   UNL     1      34.083 -23.217 -15.521  0.00  0.00    -0.311 NA
ATOM      4  N   UNL     1      37.491 -22.565 -16.350  0.00  0.00    -0.240 NA
ATOM      5  N   UNL     1      34.157 -22.822 -17.929  0.00  0.00    -0.311 NA
ATOM      6  C   UNL     1      35.407 -23.008 -15.569  0.00  0.00    +0.220 C 
ATOM      7  C   UNL     1      36.170 -22.714 -16.687  0.00  0.00    +0.167 C 
ATOM      8  C   UNL     1      35.497 -22.623 -17.902  0.00  0.00    +0.215 C 
ATOM      9  C   UNL     1      33.511 -23.107 -16.757  0.00  0.00    +0.202 C 
ATOM     10  C   UNL     1      37.531 -22.767 -15.049  0.00  0.00    +0.222 C 
ATOM     11  H   UNL     1      31.710 -23.230 -17.711  0.00  0.00    +0.160 HD
ATOM     12  N   UNL     1      36.191 -22.329 -19.088  0.00  0.00    -0.302 N 
ATOM     13  H   UNL     1      37.165 -22.188 -19.040  0.00  0.00    +0.150 HD
ENDROOT
BRANCH   1  14
ATOM     14  C   UNL     1      35.991 -23.305 -13.144  0.00  0.00    +0.077 C 
ATOM     15  C   UNL     1      35.372 -24.691 -12.949  0.00  0.00    +0.022 C 
ATOM     16  C   UNL     1      37.210 -23.101 -12.243  0.00  0.00    +0.022 C 
ENDBRANCH   1  14
BRANCH  12  17
ATOM     17  C   UNL     1      35.549 -22.223 -20.364  0.00  0.00    +0.116 C 
BRANCH  17  18
ATOM     18  C   UNL     1      35.436 -20.782 -20.780  0.00  0.00    -0.003 C 
ATOM     19  C   UNL     1      36.588 -20.021 -20.932  0.00  0.00    -0.003 C 
ATOM     20  C   UNL     1      34.182 -20.231 -21.005  0.00  0.00    -0.003 C 
ATOM     21  C   UNL     1      35.228 -18.121 -21.546  0.00  0.00    +0.018 C 
ATOM     22  C   UNL     1      36.483 -18.684 -21.316  0.00  0.00    +0.001 C 
ATOM     23  C   UNL     1      34.078 -18.893 -21.390  0.00  0.00    +0.001 C 
BRANCH  21  25
ATOM     24  N   UNL     1      35.298 -16.508 -23.265  0.00  0.00    -0.244 NA
ATOM     25  C   UNL     1      35.120 -16.735 -21.945  0.00  0.00    +0.081 C 
ATOM     26  C   UNL     1      34.856 -15.746 -21.013  0.00  0.00    +0.019 C 
ATOM     27  C   UNL     1      34.766 -14.435 -21.467  0.00  0.00    +0.003 C 
ATOM     28  C   UNL     1      35.203 -15.222 -23.669  0.00  0.00    +0.099 C 
ATOM     29  C   UNL     1      34.942 -14.159 -22.818  0.00  0.00    +0.021 C 
ENDBRANCH  21  25
ENDBRANCH  17  18
ENDBRANCH  12  17
BRANCH   2  30
ATOM     30  CA  UNL     1      31.318 -23.618 -15.681  0.00  0.00    +0.109 C 
BRANCH  30  31
ATOM     31  C   UNL     1      31.042 -25.126 -15.632  0.00  0.00    +0.023 C 
ATOM     32  C   UNL     1      29.684 -25.457 -15.027  0.00  0.00    +0.002 C 
ENDBRANCH  30  31
BRANCH  30  33
ATOM     33  C   UNL     1      30.013 -22.829 -15.785  0.00  0.00    +0.157 C 
BRANCH  33  34
ATOM     34  O   UNL     1      29.717 -22.584 -17.156  0.00  0.00    -0.380 OA
ATOM     35  H   UNL     1      30.170 -21.776 -17.445  0.00  0.00    +0.211 HD
ENDBRANCH  33  34
ENDBRANCH  30  33
ENDBRANCH   2  30
TORSDOF 8
ENDMDL
