MODEL 1
REMARK VINA RESULT:     -11.6      0.000      0.000
REMARK  Name = 10050566
REMARK  9 active torsions:
REMARK  status: ('A' for Active; 'I' for Inactive)
REMARK    1  A    between atoms: C_2  and  N_11
REMARK    2  A    between atoms: C_3  and  O_22
REMARK    3  A    between atoms: C_12  and  C_14
REMARK    4  A    between atoms: C_19  and  O_20
REMARK    5  A    between atoms: O_22  and  C_24
REMARK    6  A    between atoms: C_24  and  C_25
REMARK    7  A    between atoms: C_30  and  C_32
REMARK    8  A    between atoms: C_32  and  C_33
REMARK    9  A    between atoms: C_34  and  O_39
REMARK                            x       y       z     vdW  Elec       q    Type
REMARK                         _______ _______ _______ _____ _____    ______ ____
ROOT
ATOM      1  N   UNL     1      35.798 -25.250 -15.563  0.00  0.00    +0.385 N 
ATOM      2  C   UNL     1      33.778 -24.131 -16.524  0.00  0.00    +0.091 C 
ATOM      3  C   UNL     1      34.490 -22.791 -16.778  0.00  0.00    +0.185 C 
ATOM      4  C   UNL     1      35.300 -22.217 -15.610  0.00  0.00    +0.043 C 
ATOM      5  C   UNL     1      34.361 -25.019 -15.420  0.00  0.00    -0.058 C 
ATOM      6  C   UNL     1      36.649 -22.893 -15.352  0.00  0.00    -0.020 C 
ATOM      7  C   UNL     1      36.575 -24.299 -14.768  0.00  0.00    -0.082 C 
ATOM      8  H   UNL     1      36.055 -25.148 -16.546  0.00  0.00    -0.084 HD
ATOM      9  H   UNL     1      36.006 -26.192 -15.230  0.00  0.00    -0.084 HD
ENDROOT
BRANCH   2  11
ATOM     10  O   UNL     1      32.016 -22.372 -17.951  0.00  0.00    -0.270 OA
ATOM     11  N   UNL     1      32.375 -23.893 -16.239  0.00  0.00    -0.301 N 
ATOM     12  C   UNL     1      31.611 -23.022 -16.991  0.00  0.00    +0.246 C 
ATOM     13  H   UNL     1      31.955 -24.368 -15.485  0.00  0.00    +0.150 HD
BRANCH  12  14
ATOM     14  C   UNL     1      30.199 -22.868 -16.554  0.00  0.00    +0.054 C 
ATOM     15  C   UNL     1      29.190 -23.120 -17.461  0.00  0.00    +0.008 C 
ATOM     16  C   UNL     1      29.940 -22.477 -15.257  0.00  0.00    +0.008 C 
ATOM     17  C   UNL     1      27.865 -22.976 -17.052  0.00  0.00    +0.037 C 
ATOM     18  C   UNL     1      28.615 -22.334 -14.847  0.00  0.00    +0.037 C 
ATOM     19  C   UNL     1      27.577 -22.583 -15.745  0.00  0.00    +0.134 C 
BRANCH  19  20
ATOM     20  O   UNL     1      26.284 -22.445 -15.345  0.00  0.00    -0.506 OA
ATOM     21  H   UNL     1      26.063 -21.815 -14.686  0.00  0.00    +0.292 HD
ENDBRANCH  19  20
ENDBRANCH  12  14
ENDBRANCH   2  11
BRANCH   3  22
ATOM     22  O   UNL     1      35.320 -22.908 -17.937  0.00  0.00    -0.448 OA
BRANCH  22  24
ATOM     23  O   UNL     1      33.832 -23.640 -19.533  0.00  0.00    -0.245 OA
ATOM     24  C   UNL     1      34.674 -22.853 -19.128  0.00  0.00    +0.341 C 
BRANCH  24  25
ATOM     25  C   UNL     1      35.132 -21.677 -19.910  0.00  0.00    +0.076 C 
ATOM     26  C   UNL     1      34.204 -20.956 -20.635  0.00  0.00    +0.007 C 
ATOM     27  C   UNL     1      36.470 -21.342 -19.890  0.00  0.00    +0.007 C 
ATOM     28  C   UNL     1      34.635 -19.852 -21.371  0.00  0.00    +0.003 C 
ATOM     29  C   UNL     1      36.901 -20.238 -20.625  0.00  0.00    +0.003 C 
ATOM     30  C   UNL     1      35.983 -19.492 -21.366  0.00  0.00    +0.039 C 
BRANCH  30  32
ATOM     31  O   UNL     1      37.489 -18.394 -22.778  0.00  0.00    -0.286 OA
ATOM     32  C   UNL     1      36.431 -18.342 -22.133  0.00  0.00    +0.198 C 
BRANCH  32  33
ATOM     33  C   UNL     1      35.660 -17.062 -22.182  0.00  0.00    +0.073 C 
ATOM     34  C   UNL     1      35.374 -16.488 -23.399  0.00  0.00    +0.137 C 
ATOM     35  C   UNL     1      35.263 -16.507 -20.986  0.00  0.00    +0.006 C 
ATOM     36  C   UNL     1      34.654 -15.295 -23.423  0.00  0.00    +0.037 C 
ATOM     37  C   UNL     1      34.542 -15.314 -21.010  0.00  0.00    +0.000 C 
ATOM     38  C   UNL     1      34.238 -14.708 -22.228  0.00  0.00    +0.003 C 
BRANCH  34  39
ATOM     39  O   UNL     1      35.772 -17.047 -24.577  0.00  0.00    -0.505 OA
ATOM     40  H   UNL     1      35.591 -16.612 -25.388  0.00  0.00    +0.292 HD
ENDBRANCH  34  39
ENDBRANCH  32  33
ENDBRANCH  30  32
ENDBRANCH  24  25
ENDBRANCH  22  24
ENDBRANCH   3  22
TORSDOF 9
ENDMDL
MODEL 2
REMARK VINA RESULT:     -10.7      6.267     12.576
REMARK  Name = 10050566
REMARK  9 active torsions:
REMARK  status: ('A' for Active; 'I' for Inactive)
REMARK    1  A    between atoms: C_2  and  N_11
REMARK    2  A    between atoms: C_3  and  O_22
REMARK    3  A    between atoms: C_12  and  C_14
REMARK    4  A    between atoms: C_19  and  O_20
REMARK    5  A    between atoms: O_22  and  C_24
REMARK    6  A    between atoms: C_24  and  C_25
REMARK    7  A    between atoms: C_30  and  C_32
REMARK    8  A    between atoms: C_32  and  C_33
REMARK    9  A    between atoms: C_34  and  O_39
REMARK                            x       y       z     vdW  Elec       q    Type
REMARK                         _______ _______ _______ _____ _____    ______ ____
ROOT
ATOM      1  N   UNL     1      30.401 -11.686 -21.010  0.00  0.00    +0.385 N 
ATOM      2  C   UNL     1      31.885 -10.904 -22.866  0.00  0.00    +0.091 C 
ATOM      3  C   UNL     1      33.100 -11.730 -22.406  0.00  0.00    +0.185 C 
ATOM      4  C   UNL     1      33.473 -11.627 -20.924  0.00  0.00    +0.043 C 
ATOM      5  C   UNL     1      30.860 -10.536 -21.789  0.00  0.00    -0.058 C 
ATOM      6  C   UNL     1      32.572 -12.406 -19.963  0.00  0.00    -0.020 C 
ATOM      7  C   UNL     1      31.170 -11.836 -19.774  0.00  0.00    -0.082 C 
ATOM      8  H   UNL     1      30.507 -12.531 -21.572  0.00  0.00    -0.084 HD
ATOM      9  H   UNL     1      29.423 -11.535 -20.762  0.00  0.00    -0.084 HD
ENDROOT
BRANCH   2  11
ATOM     10  O   UNL     1      32.624  -8.450 -21.575  0.00  0.00    -0.270 OA
ATOM     11  N   UNL     1      32.338  -9.688 -23.514  0.00  0.00    -0.301 N 
ATOM     12  C   UNL     1      32.672  -8.554 -22.798  0.00  0.00    +0.246 C 
ATOM     13  H   UNL     1      32.411  -9.669 -24.496  0.00  0.00    +0.150 HD
BRANCH  12  14
ATOM     14  C   UNL     1      33.092  -7.383 -23.610  0.00  0.00    +0.054 C 
ATOM     15  C   UNL     1      32.135  -6.474 -24.011  0.00  0.00    +0.008 C 
ATOM     16  C   UNL     1      34.424  -7.242 -23.939  0.00  0.00    +0.008 C 
ATOM     17  C   UNL     1      32.528  -5.374 -24.774  0.00  0.00    +0.037 C 
ATOM     18  C   UNL     1      34.818  -6.142 -24.700  0.00  0.00    +0.037 C 
ATOM     19  C   UNL     1      33.869  -5.209 -25.118  0.00  0.00    +0.134 C 
BRANCH  19  20
ATOM     20  O   UNL     1      34.254  -4.135 -25.861  0.00  0.00    -0.506 OA
ATOM     21  H   UNL     1      34.712  -4.264 -26.668  0.00  0.00    +0.292 HD
ENDBRANCH  19  20
ENDBRANCH  12  14
ENDBRANCH   2  11
BRANCH   3  22
ATOM     22  O   UNL     1      32.904 -13.101 -22.767  0.00  0.00    -0.448 OA
BRANCH  22  24
ATOM     23  O   UNL     1      33.808 -13.022 -24.881  0.00  0.00    -0.245 OA
ATOM     24  C   UNL     1      33.670 -13.553 -23.791  0.00  0.00    +0.341 C 
BRANCH  24  25
ATOM     25  C   UNL     1      34.342 -14.821 -23.411  0.00  0.00    +0.076 C 
ATOM     26  C   UNL     1      34.692 -15.713 -24.405  0.00  0.00    +0.007 C 
ATOM     27  C   UNL     1      34.595 -15.069 -22.078  0.00  0.00    +0.007 C 
ATOM     28  C   UNL     1      35.324 -16.905 -24.048  0.00  0.00    +0.003 C 
ATOM     29  C   UNL     1      35.226 -16.260 -21.721  0.00  0.00    +0.003 C 
ATOM     30  C   UNL     1      35.591 -17.179 -22.707  0.00  0.00    +0.039 C 
BRANCH  30  32
ATOM     31  O   UNL     1      37.408 -18.651 -22.709  0.00  0.00    -0.286 OA
ATOM     32  C   UNL     1      36.248 -18.421 -22.335  0.00  0.00    +0.198 C 
BRANCH  32  33
ATOM     33  C   UNL     1      35.576 -19.465 -21.503  0.00  0.00    +0.073 C 
ATOM     34  C   UNL     1      36.298 -20.138 -20.544  0.00  0.00    +0.137 C 
ATOM     35  C   UNL     1      34.241 -19.708 -21.736  0.00  0.00    +0.006 C 
ATOM     36  C   UNL     1      35.652 -21.107 -19.778  0.00  0.00    +0.037 C 
ATOM     37  C   UNL     1      33.594 -20.677 -20.969  0.00  0.00    +0.000 C 
ATOM     38  C   UNL     1      34.300 -21.377 -19.991  0.00  0.00    +0.003 C 
BRANCH  34  39
ATOM     39  O   UNL     1      37.620 -19.888 -20.322  0.00  0.00    -0.505 OA
ATOM     40  H   UNL     1      37.881 -19.102 -19.882  0.00  0.00    +0.292 HD
ENDBRANCH  34  39
ENDBRANCH  32  33
ENDBRANCH  30  32
ENDBRANCH  24  25
ENDBRANCH  22  24
ENDBRANCH   3  22
TORSDOF 9
ENDMDL
MODEL 3
REMARK VINA RESULT:     -10.6      6.062     12.151
REMARK  Name = 10050566
REMARK  9 active torsions:
REMARK  status: ('A' for Active; 'I' for Inactive)
REMARK    1  A    between atoms: C_2  and  N_11
REMARK    2  A    between atoms: C_3  and  O_22
REMARK    3  A    between atoms: C_12  and  C_14
REMARK    4  A    between atoms: C_19  and  O_20
REMARK    5  A    between atoms: O_22  and  C_24
REMARK    6  A    between atoms: C_24  and  C_25
REMARK    7  A    between atoms: C_30  and  C_32
REMARK    8  A    between atoms: C_32  and  C_33
REMARK    9  A    between atoms: C_34  and  O_39
REMARK                            x       y       z     vdW  Elec       q    Type
REMARK                         _______ _______ _______ _____ _____    ______ ____
ROOT
ATOM      1  N   UNL     1      34.578 -12.689 -26.750  0.00  0.00    +0.385 N 
ATOM      2  C   UNL     1      34.177 -11.501 -24.586  0.00  0.00    +0.091 C 
ATOM      3  C   UNL     1      33.787 -12.776 -23.817  0.00  0.00    +0.185 C 
ATOM      4  C   UNL     1      32.752 -13.686 -24.488  0.00  0.00    +0.043 C 
ATOM      5  C   UNL     1      33.972 -11.525 -26.104  0.00  0.00    -0.058 C 
ATOM      6  C   UNL     1      33.278 -14.537 -25.646  0.00  0.00    -0.020 C 
ATOM      7  C   UNL     1      33.609 -13.771 -26.922  0.00  0.00    -0.082 C 
ATOM      8  H   UNL     1      35.351 -13.024 -26.174  0.00  0.00    -0.084 HD
ATOM      9  H   UNL     1      34.910 -12.406 -27.673  0.00  0.00    -0.084 HD
ENDROOT
BRANCH   2  11
ATOM     10  O   UNL     1      35.275  -8.916 -23.998  0.00  0.00    -0.270 OA
ATOM     11  N   UNL     1      33.464 -10.362 -24.037  0.00  0.00    -0.301 N 
ATOM     12  C   UNL     1      34.089  -9.155 -23.790  0.00  0.00    +0.246 C 
ATOM     13  H   UNL     1      32.505 -10.453 -23.834  0.00  0.00    +0.150 HD
BRANCH  12  14
ATOM     14  C   UNL     1      33.227  -8.096 -23.202  0.00  0.00    +0.054 C 
ATOM     15  C   UNL     1      32.009  -7.826 -23.791  0.00  0.00    +0.008 C 
ATOM     16  C   UNL     1      33.671  -7.418 -22.086  0.00  0.00    +0.008 C 
ATOM     17  C   UNL     1      31.199  -6.833 -23.240  0.00  0.00    +0.037 C 
ATOM     18  C   UNL     1      32.861  -6.425 -21.534  0.00  0.00    +0.037 C 
ATOM     19  C   UNL     1      31.625  -6.133 -22.112  0.00  0.00    +0.134 C 
BRANCH  19  20
ATOM     20  O   UNL     1      30.834  -5.166 -21.572  0.00  0.00    -0.506 OA
ATOM     21  H   UNL     1      29.902  -5.256 -21.597  0.00  0.00    +0.292 HD
ENDBRANCH  19  20
ENDBRANCH  12  14
ENDBRANCH   2  11
BRANCH   3  22
ATOM     22  O   UNL     1      34.968 -13.523 -23.509  0.00  0.00    -0.448 OA
BRANCH  22  24
ATOM     23  O   UNL     1      35.042 -13.372 -21.214  0.00  0.00    -0.245 OA
ATOM     24  C   UNL     1      35.034 -14.020 -22.249  0.00  0.00    +0.341 C 
BRANCH  24  25
ATOM     25  C   UNL     1      35.101 -15.503 -22.283  0.00  0.00    +0.076 C 
ATOM     26  C   UNL     1      34.960 -16.203 -21.102  0.00  0.00    +0.007 C 
ATOM     27  C   UNL     1      35.304 -16.135 -23.492  0.00  0.00    +0.007 C 
ATOM     28  C   UNL     1      35.024 -17.597 -21.133  0.00  0.00    +0.003 C 
ATOM     29  C   UNL     1      35.368 -17.527 -23.524  0.00  0.00    +0.003 C 
ATOM     30  C   UNL     1      35.227 -18.259 -22.344  0.00  0.00    +0.039 C 
BRANCH  30  32
ATOM     31  O   UNL     1      35.406 -20.308 -23.457  0.00  0.00    -0.286 OA
ATOM     32  C   UNL     1      35.294 -19.711 -22.376  0.00  0.00    +0.198 C 
BRANCH  32  33
ATOM     33  C   UNL     1      35.232 -20.543 -21.136  0.00  0.00    +0.073 C 
ATOM     34  C   UNL     1      34.009 -20.939 -20.646  0.00  0.00    +0.137 C 
ATOM     35  C   UNL     1      36.421 -20.883 -20.532  0.00  0.00    +0.006 C 
ATOM     36  C   UNL     1      33.972 -21.715 -19.488  0.00  0.00    +0.037 C 
ATOM     37  C   UNL     1      36.385 -21.659 -19.374  0.00  0.00    +0.000 C 
ATOM     38  C   UNL     1      35.161 -22.075 -18.852  0.00  0.00    +0.003 C 
BRANCH  34  39
ATOM     39  O   UNL     1      32.837 -20.597 -21.253  0.00  0.00    -0.505 OA
ATOM     40  H   UNL     1      32.633 -20.936 -22.103  0.00  0.00    +0.292 HD
ENDBRANCH  34  39
ENDBRANCH  32  33
ENDBRANCH  30  32
ENDBRANCH  24  25
ENDBRANCH  22  24
ENDBRANCH   3  22
TORSDOF 9
ENDMDL
MODEL 4
REMARK VINA RESULT:     -10.6      4.971     10.425
REMARK  Name = 10050566
REMARK  9 active torsions:
REMARK  status: ('A' for Active; 'I' for Inactive)
REMARK    1  A    between atoms: C_2  and  N_11
REMARK    2  A    between atoms: C_3  and  O_22
REMARK    3  A    between atoms: C_12  and  C_14
REMARK    4  A    between atoms: C_19  and  O_20
REMARK    5  A    between atoms: O_22  and  C_24
REMARK    6  A    between atoms: C_24  and  C_25
REMARK    7  A    between atoms: C_30  and  C_32
REMARK    8  A    between atoms: C_32  and  C_33
REMARK    9  A    between atoms: C_34  and  O_39
REMARK                            x       y       z     vdW  Elec       q    Type
REMARK                         _______ _______ _______ _____ _____    ______ ____
ROOT
ATOM      1  N   UNL     1      34.907 -12.043 -26.330  0.00  0.00    +0.385 N 
ATOM      2  C   UNL     1      34.494 -13.190 -24.145  0.00  0.00    +0.091 C 
ATOM      3  C   UNL     1      33.851 -14.435 -24.781  0.00  0.00    +0.185 C 
ATOM      4  C   UNL     1      32.757 -14.181 -25.824  0.00  0.00    +0.043 C 
ATOM      5  C   UNL     1      34.425 -11.892 -24.957  0.00  0.00    -0.058 C 
ATOM      6  C   UNL     1      33.252 -13.726 -27.199  0.00  0.00    -0.020 C 
ATOM      7  C   UNL     1      33.807 -12.307 -27.258  0.00  0.00    -0.082 C 
ATOM      8  H   UNL     1      35.566 -12.821 -26.367  0.00  0.00    -0.084 HD
ATOM      9  H   UNL     1      35.358 -11.172 -26.608  0.00  0.00    -0.084 HD
ENDROOT
BRANCH   2  11
ATOM     10  O   UNL     1      32.447 -11.284 -23.502  0.00  0.00    -0.270 OA
ATOM     11  N   UNL     1      33.912 -12.953 -22.838  0.00  0.00    -0.301 N 
ATOM     12  C   UNL     1      32.926 -12.007 -22.633  0.00  0.00    +0.246 C 
ATOM     13  H   UNL     1      34.230 -13.484 -22.071  0.00  0.00    +0.150 HD
BRANCH  12  14
ATOM     14  C   UNL     1      32.453 -11.867 -21.231  0.00  0.00    +0.054 C 
ATOM     15  C   UNL     1      32.462 -12.978 -20.412  0.00  0.00    +0.008 C 
ATOM     16  C   UNL     1      32.020 -10.633 -20.792  0.00  0.00    +0.008 C 
ATOM     17  C   UNL     1      32.019 -12.848 -19.096  0.00  0.00    +0.037 C 
ATOM     18  C   UNL     1      31.578 -10.503 -19.477  0.00  0.00    +0.037 C 
ATOM     19  C   UNL     1      31.577 -11.611 -18.628  0.00  0.00    +0.134 C 
BRANCH  19  20
ATOM     20  O   UNL     1      31.146 -11.482 -17.344  0.00  0.00    -0.506 OA
ATOM     21  H   UNL     1      31.100 -10.634 -16.948  0.00  0.00    +0.292 HD
ENDBRANCH  19  20
ENDBRANCH  12  14
ENDBRANCH   2  11
BRANCH   3  22
ATOM     22  O   UNL     1      34.875 -15.264 -25.340  0.00  0.00    -0.448 OA
BRANCH  22  24
ATOM     23  O   UNL     1      33.965 -17.019 -26.517  0.00  0.00    -0.245 OA
ATOM     24  C   UNL     1      34.535 -16.561 -25.539  0.00  0.00    +0.341 C 
BRANCH  24  25
ATOM     25  C   UNL     1      34.953 -17.388 -24.380  0.00  0.00    +0.076 C 
ATOM     26  C   UNL     1      34.902 -18.763 -24.488  0.00  0.00    +0.007 C 
ATOM     27  C   UNL     1      35.379 -16.757 -23.229  0.00  0.00    +0.007 C 
ATOM     28  C   UNL     1      35.294 -19.540 -23.397  0.00  0.00    +0.003 C 
ATOM     29  C   UNL     1      35.771 -17.533 -22.139  0.00  0.00    +0.003 C 
ATOM     30  C   UNL     1      35.729 -18.926 -22.223  0.00  0.00    +0.039 C 
BRANCH  30  32
ATOM     31  O   UNL     1      37.307 -19.693 -20.677  0.00  0.00    -0.286 OA
ATOM     32  C   UNL     1      36.137 -19.735 -21.087  0.00  0.00    +0.198 C 
BRANCH  32  33
ATOM     33  C   UNL     1      35.191 -20.643 -20.369  0.00  0.00    +0.073 C 
ATOM     34  C   UNL     1      35.686 -21.617 -19.534  0.00  0.00    +0.137 C 
ATOM     35  C   UNL     1      33.843 -20.458 -20.579  0.00  0.00    +0.006 C 
ATOM     36  C   UNL     1      34.787 -22.453 -18.874  0.00  0.00    +0.037 C 
ATOM     37  C   UNL     1      32.942 -21.293 -19.918  0.00  0.00    +0.000 C 
ATOM     38  C   UNL     1      33.415 -22.291 -19.066  0.00  0.00    +0.003 C 
BRANCH  34  39
ATOM     39  O   UNL     1      37.023 -21.791 -19.334  0.00  0.00    -0.505 OA
ATOM     40  H   UNL     1      37.415 -21.527 -18.524  0.00  0.00    +0.292 HD
ENDBRANCH  34  39
ENDBRANCH  32  33
ENDBRANCH  30  32
ENDBRANCH  24  25
ENDBRANCH  22  24
ENDBRANCH   3  22
TORSDOF 9
ENDMDL
MODEL 5
REMARK VINA RESULT:     -10.3      1.293      1.972
REMARK  Name = 10050566
REMARK  9 active torsions:
REMARK  status: ('A' for Active; 'I' for Inactive)
REMARK    1  A    between atoms: C_2  and  N_11
REMARK    2  A    between atoms: C_3  and  O_22
REMARK    3  A    between atoms: C_12  and  C_14
REMARK    4  A    between atoms: C_19  and  O_20
REMARK    5  A    between atoms: O_22  and  C_24
REMARK    6  A    between atoms: C_24  and  C_25
REMARK    7  A    between atoms: C_30  and  C_32
REMARK    8  A    between atoms: C_32  and  C_33
REMARK    9  A    between atoms: C_34  and  O_39
REMARK                            x       y       z     vdW  Elec       q    Type
REMARK                         _______ _______ _______ _____ _____    ______ ____
ROOT
ATOM      1  N   UNL     1      36.791 -25.637 -15.706  0.00  0.00    +0.385 N 
ATOM      2  C   UNL     1      34.899 -24.155 -16.402  0.00  0.00    +0.091 C 
ATOM      3  C   UNL     1      35.739 -22.865 -16.374  0.00  0.00    +0.185 C 
ATOM      4  C   UNL     1      36.582 -22.628 -15.116  0.00  0.00    +0.043 C 
ATOM      5  C   UNL     1      35.380 -25.305 -15.511  0.00  0.00    -0.058 C 
ATOM      6  C   UNL     1      37.857 -23.468 -15.011  0.00  0.00    -0.020 C 
ATOM      7  C   UNL     1      37.641 -24.951 -14.733  0.00  0.00    -0.082 C 
ATOM      8  H   UNL     1      37.070 -25.358 -16.647  0.00  0.00    -0.084 HD
ATOM      9  H   UNL     1      36.904 -26.643 -15.578  0.00  0.00    -0.084 HD
ENDROOT
BRANCH   2  11
ATOM     10  O   UNL     1      32.848 -23.293 -18.215  0.00  0.00    -0.270 OA
ATOM     11  N   UNL     1      33.522 -23.849 -16.067  0.00  0.00    -0.301 N 
ATOM     12  C   UNL     1      32.608 -23.440 -17.019  0.00  0.00    +0.246 C 
ATOM     13  H   UNL     1      33.229 -23.935 -15.131  0.00  0.00    +0.150 HD
BRANCH  12  14
ATOM     14  C   UNL     1      31.244 -23.139 -16.511  0.00  0.00    +0.054 C 
ATOM     15  C   UNL     1      31.066 -22.947 -15.156  0.00  0.00    +0.008 C 
ATOM     16  C   UNL     1      30.199 -23.061 -17.408  0.00  0.00    +0.008 C 
ATOM     17  C   UNL     1      29.787 -22.664 -14.678  0.00  0.00    +0.037 C 
ATOM     18  C   UNL     1      28.920 -22.778 -16.930  0.00  0.00    +0.037 C 
ATOM     19  C   UNL     1      28.714 -22.579 -15.564  0.00  0.00    +0.134 C 
BRANCH  19  20
ATOM     20  O   UNL     1      27.466 -22.301 -15.099  0.00  0.00    -0.506 OA
ATOM     21  H   UNL     1      27.256 -21.434 -14.812  0.00  0.00    +0.292 HD
ENDBRANCH  19  20
ENDBRANCH  12  14
ENDBRANCH   2  11
BRANCH   3  22
ATOM     22  O   UNL     1      36.572 -22.817 -17.536  0.00  0.00    -0.448 OA
BRANCH  22  24
ATOM     23  O   UNL     1      38.044 -21.117 -17.045  0.00  0.00    -0.245 OA
ATOM     24  C   UNL     1      37.199 -21.635 -17.759  0.00  0.00    +0.341 C 
BRANCH  24  25
ATOM     25  C   UNL     1      36.714 -21.023 -19.021  0.00  0.00    +0.076 C 
ATOM     26  C   UNL     1      37.519 -20.111 -19.673  0.00  0.00    +0.007 C 
ATOM     27  C   UNL     1      35.472 -21.383 -19.503  0.00  0.00    +0.007 C 
ATOM     28  C   UNL     1      37.062 -19.535 -20.859  0.00  0.00    +0.003 C 
ATOM     29  C   UNL     1      35.015 -20.808 -20.689  0.00  0.00    +0.003 C 
ATOM     30  C   UNL     1      35.811 -19.883 -21.367  0.00  0.00    +0.039 C 
BRANCH  30  32
ATOM     31  O   UNL     1      35.026 -19.999 -23.567  0.00  0.00    -0.286 OA
ATOM     32  C   UNL     1      35.335 -19.283 -22.603  0.00  0.00    +0.198 C 
BRANCH  32  33
ATOM     33  C   UNL     1      35.198 -17.805 -22.773  0.00  0.00    +0.073 C 
ATOM     34  C   UNL     1      35.057 -17.277 -24.036  0.00  0.00    +0.137 C 
ATOM     35  C   UNL     1      35.217 -17.025 -21.639  0.00  0.00    +0.006 C 
ATOM     36  C   UNL     1      34.930 -15.896 -24.174  0.00  0.00    +0.037 C 
ATOM     37  C   UNL     1      35.089 -15.643 -21.776  0.00  0.00    +0.000 C 
ATOM     38  C   UNL     1      34.946 -15.078 -23.043  0.00  0.00    +0.003 C 
BRANCH  34  39
ATOM     39  O   UNL     1      35.039 -18.060 -25.152  0.00  0.00    -0.505 OA
ATOM     40  H   UNL     1      34.555 -18.862 -25.155  0.00  0.00    +0.292 HD
ENDBRANCH  34  39
ENDBRANCH  32  33
ENDBRANCH  30  32
ENDBRANCH  24  25
ENDBRANCH  22  24
ENDBRANCH   3  22
TORSDOF 9
ENDMDL
MODEL 6
REMARK VINA RESULT:     -10.2      7.017     13.114
REMARK  Name = 10050566
REMARK  9 active torsions:
REMARK  status: ('A' for Active; 'I' for Inactive)
REMARK    1  A    between atoms: C_2  and  N_11
REMARK    2  A    between atoms: C_3  and  O_22
REMARK    3  A    between atoms: C_12  and  C_14
REMARK    4  A    between atoms: C_19  and  O_20
REMARK    5  A    between atoms: O_22  and  C_24
REMARK    6  A    between atoms: C_24  and  C_25
REMARK    7  A    between atoms: C_30  and  C_32
REMARK    8  A    between atoms: C_32  and  C_33
REMARK    9  A    between atoms: C_34  and  O_39
REMARK                            x       y       z     vdW  Elec       q    Type
REMARK                         _______ _______ _______ _____ _____    ______ ____
ROOT
ATOM      1  N   UNL     1      36.272 -10.425 -25.628  0.00  0.00    +0.385 N 
ATOM      2  C   UNL     1      34.478  -9.760 -24.018  0.00  0.00    +0.091 C 
ATOM      3  C   UNL     1      33.684 -11.069 -24.173  0.00  0.00    +0.185 C 
ATOM      4  C   UNL     1      33.404 -11.531 -25.607  0.00  0.00    +0.043 C 
ATOM      5  C   UNL     1      35.372  -9.357 -25.195  0.00  0.00    -0.058 C 
ATOM      6  C   UNL     1      34.593 -12.158 -26.339  0.00  0.00    -0.020 C 
ATOM      7  C   UNL     1      35.701 -11.189 -26.738  0.00  0.00    -0.082 C 
ATOM      8  H   UNL     1      36.442 -11.056 -24.844  0.00  0.00    -0.084 HD
ATOM      9  H   UNL     1      37.143 -10.001 -25.947  0.00  0.00    -0.084 HD
ENDROOT
BRANCH   2  11
ATOM     10  O   UNL     1      35.172  -7.199 -22.925  0.00  0.00    -0.270 OA
ATOM     11  N   UNL     1      33.568  -8.667 -23.728  0.00  0.00    -0.301 N 
ATOM     12  C   UNL     1      34.005  -7.468 -23.200  0.00  0.00    +0.246 C 
ATOM     13  H   UNL     1      32.608  -8.785 -23.913  0.00  0.00    +0.150 HD
BRANCH  12  14
ATOM     14  C   UNL     1      32.946  -6.460 -22.936  0.00  0.00    +0.054 C 
ATOM     15  C   UNL     1      32.814  -5.391 -23.798  0.00  0.00    +0.008 C 
ATOM     16  C   UNL     1      32.128  -6.624 -21.837  0.00  0.00    +0.008 C 
ATOM     17  C   UNL     1      31.820  -4.444 -23.550  0.00  0.00    +0.037 C 
ATOM     18  C   UNL     1      31.134  -5.678 -21.590  0.00  0.00    +0.037 C 
ATOM     19  C   UNL     1      30.980  -4.588 -22.447  0.00  0.00    +0.134 C 
BRANCH  19  20
ATOM     20  O   UNL     1      30.008  -3.666 -22.206  0.00  0.00    -0.506 OA
ATOM     21  H   UNL     1      29.737  -3.491 -21.326  0.00  0.00    +0.292 HD
ENDBRANCH  19  20
ENDBRANCH  12  14
ENDBRANCH   2  11
BRANCH   3  22
ATOM     22  O   UNL     1      34.339 -12.110 -23.443  0.00  0.00    -0.448 OA
BRANCH  22  24
ATOM     23  O   UNL     1      32.394 -12.787 -22.417  0.00  0.00    -0.245 OA
ATOM     24  C   UNL     1      33.521 -13.004 -22.835  0.00  0.00    +0.341 C 
BRANCH  24  25
ATOM     25  C   UNL     1      34.186 -14.327 -22.733  0.00  0.00    +0.076 C 
ATOM     26  C   UNL     1      34.564 -14.974 -23.892  0.00  0.00    +0.007 C 
ATOM     27  C   UNL     1      34.406 -14.869 -21.484  0.00  0.00    +0.007 C 
ATOM     28  C   UNL     1      35.188 -16.218 -23.797  0.00  0.00    +0.003 C 
ATOM     29  C   UNL     1      35.030 -16.112 -21.388  0.00  0.00    +0.003 C 
ATOM     30  C   UNL     1      35.422 -16.788 -22.545  0.00  0.00    +0.039 C 
BRANCH  30  32
ATOM     31  O   UNL     1      37.126 -18.304 -23.062  0.00  0.00    -0.286 OA
ATOM     32  C   UNL     1      36.072 -18.084 -22.446  0.00  0.00    +0.198 C 
BRANCH  32  33
ATOM     33  C   UNL     1      35.518 -19.196 -21.615  0.00  0.00    +0.073 C 
ATOM     34  C   UNL     1      36.346 -19.877 -20.753  0.00  0.00    +0.137 C 
ATOM     35  C   UNL     1      34.180 -19.492 -21.752  0.00  0.00    +0.006 C 
ATOM     36  C   UNL     1      35.809 -20.911 -19.988  0.00  0.00    +0.037 C 
ATOM     37  C   UNL     1      33.643 -20.526 -20.986  0.00  0.00    +0.000 C 
ATOM     38  C   UNL     1      34.457 -21.236 -20.104  0.00  0.00    +0.003 C 
BRANCH  34  39
ATOM     39  O   UNL     1      37.669 -19.575 -20.626  0.00  0.00    -0.505 OA
ATOM     40  H   UNL     1      38.174 -19.961 -19.936  0.00  0.00    +0.292 HD
ENDBRANCH  34  39
ENDBRANCH  32  33
ENDBRANCH  30  32
ENDBRANCH  24  25
ENDBRANCH  22  24
ENDBRANCH   3  22
TORSDOF 9
ENDMDL
MODEL 7
REMARK VINA RESULT:     -10.1      3.611      9.277
REMARK  Name = 10050566
REMARK  9 active torsions:
REMARK  status: ('A' for Active; 'I' for Inactive)
REMARK    1  A    between atoms: C_2  and  N_11
REMARK    2  A    between atoms: C_3  and  O_22
REMARK    3  A    between atoms: C_12  and  C_14
REMARK    4  A    between atoms: C_19  and  O_20
REMARK    5  A    between atoms: O_22  and  C_24
REMARK    6  A    between atoms: C_24  and  C_25
REMARK    7  A    between atoms: C_30  and  C_32
REMARK    8  A    between atoms: C_32  and  C_33
REMARK    9  A    between atoms: C_34  and  O_39
REMARK                            x       y       z     vdW  Elec       q    Type
REMARK                         _______ _______ _______ _____ _____    ______ ____
ROOT
ATOM      1  N   UNL     1      35.701 -17.104 -25.412  0.00  0.00    +0.385 N 
ATOM      2  C   UNL     1      35.353 -16.532 -23.002  0.00  0.00    +0.091 C 
ATOM      3  C   UNL     1      35.112 -17.988 -22.565  0.00  0.00    +0.185 C 
ATOM      4  C   UNL     1      34.108 -18.792 -23.397  0.00  0.00    +0.043 C 
ATOM      5  C   UNL     1      35.052 -16.197 -24.466  0.00  0.00    -0.058 C 
ATOM      6  C   UNL     1      34.620 -19.278 -24.755  0.00  0.00    -0.020 C 
ATOM      7  C   UNL     1      34.807 -18.193 -25.809  0.00  0.00    -0.082 C 
ATOM      8  H   UNL     1      36.533 -17.501 -24.974  0.00  0.00    -0.084 HD
ATOM      9  H   UNL     1      35.949 -16.573 -26.247  0.00  0.00    -0.084 HD
ENDROOT
BRANCH   2  11
ATOM     10  O   UNL     1      33.789 -14.282 -23.855  0.00  0.00    -0.270 OA
ATOM     11  N   UNL     1      34.594 -15.634 -22.152  0.00  0.00    -0.301 N 
ATOM     12  C   UNL     1      33.869 -14.575 -22.665  0.00  0.00    +0.246 C 
ATOM     13  H   UNL     1      34.594 -15.784 -21.179  0.00  0.00    +0.150 HD
BRANCH  12  14
ATOM     14  C   UNL     1      33.167 -13.733 -21.661  0.00  0.00    +0.054 C 
ATOM     15  C   UNL     1      32.690 -12.497 -22.046  0.00  0.00    +0.008 C 
ATOM     16  C   UNL     1      33.015 -14.213 -20.377  0.00  0.00    +0.008 C 
ATOM     17  C   UNL     1      32.032 -11.706 -21.105  0.00  0.00    +0.037 C 
ATOM     18  C   UNL     1      32.356 -13.423 -19.436  0.00  0.00    +0.037 C 
ATOM     19  C   UNL     1      31.864 -12.169 -19.800  0.00  0.00    +0.134 C 
BRANCH  19  20
ATOM     20  O   UNL     1      31.219 -11.399 -18.882  0.00  0.00    -0.506 OA
ATOM     21  H   UNL     1      31.378 -11.530 -17.967  0.00  0.00    +0.292 HD
ENDBRANCH  19  20
ENDBRANCH  12  14
ENDBRANCH   2  11
BRANCH   3  22
ATOM     22  O   UNL     1      36.364 -18.678 -22.508  0.00  0.00    -0.448 OA
BRANCH  22  24
ATOM     23  O   UNL     1      37.738 -18.323 -20.696  0.00  0.00    -0.245 OA
ATOM     24  C   UNL     1      36.840 -18.927 -21.263  0.00  0.00    +0.341 C 
BRANCH  24  25
ATOM     25  C   UNL     1      36.112 -20.065 -20.650  0.00  0.00    +0.076 C 
ATOM     26  C   UNL     1      34.750 -20.170 -20.849  0.00  0.00    +0.007 C 
ATOM     27  C   UNL     1      36.817 -20.983 -19.899  0.00  0.00    +0.007 C 
ATOM     28  C   UNL     1      34.065 -21.240 -20.272  0.00  0.00    +0.003 C 
ATOM     29  C   UNL     1      36.133 -22.052 -19.322  0.00  0.00    +0.003 C 
ATOM     30  C   UNL     1      34.756 -22.181 -19.509  0.00  0.00    +0.039 C 
BRANCH  30  32
ATOM     31  O   UNL     1      33.899 -24.357 -19.532  0.00  0.00    -0.286 OA
ATOM     32  C   UNL     1      34.042 -23.296 -18.907  0.00  0.00    +0.198 C 
BRANCH  32  33
ATOM     33  C   UNL     1      33.455 -23.223 -17.535  0.00  0.00    +0.073 C 
ATOM     34  C   UNL     1      34.239 -23.520 -16.444  0.00  0.00    +0.137 C 
ATOM     35  C   UNL     1      32.133 -22.855 -17.423  0.00  0.00    +0.006 C 
ATOM     36  C   UNL     1      33.672 -23.445 -15.173  0.00  0.00    +0.037 C 
ATOM     37  C   UNL     1      31.565 -22.780 -16.151  0.00  0.00    +0.000 C 
ATOM     38  C   UNL     1      32.335 -23.076 -15.026  0.00  0.00    +0.003 C 
BRANCH  34  39
ATOM     39  O   UNL     1      35.547 -23.883 -16.567  0.00  0.00    -0.505 OA
ATOM     40  H   UNL     1      35.770 -24.772 -16.764  0.00  0.00    +0.292 HD
ENDBRANCH  34  39
ENDBRANCH  32  33
ENDBRANCH  30  32
ENDBRANCH  24  25
ENDBRANCH  22  24
ENDBRANCH   3  22
TORSDOF 9
ENDMDL
MODEL 8
REMARK VINA RESULT:      -9.9      7.673     12.730
REMARK  Name = 10050566
REMARK  9 active torsions:
REMARK  status: ('A' for Active; 'I' for Inactive)
REMARK    1  A    between atoms: C_2  and  N_11
REMARK    2  A    between atoms: C_3  and  O_22
REMARK    3  A    between atoms: C_12  and  C_14
REMARK    4  A    between atoms: C_19  and  O_20
REMARK    5  A    between atoms: O_22  and  C_24
REMARK    6  A    between atoms: C_24  and  C_25
REMARK    7  A    between atoms: C_30  and  C_32
REMARK    8  A    between atoms: C_32  and  C_33
REMARK    9  A    between atoms: C_34  and  O_39
REMARK                            x       y       z     vdW  Elec       q    Type
REMARK                         _______ _______ _______ _____ _____    ______ ____
ROOT
ATOM      1  N   UNL     1      32.705 -12.481 -19.901  0.00  0.00    +0.385 N 
ATOM      2  C   UNL     1      33.855 -13.682 -21.771  0.00  0.00    +0.091 C 
ATOM      3  C   UNL     1      33.256 -12.791 -22.874  0.00  0.00    +0.185 C 
ATOM      4  C   UNL     1      31.741 -12.563 -22.819  0.00  0.00    +0.043 C 
ATOM      5  C   UNL     1      33.060 -13.783 -20.465  0.00  0.00    -0.058 C 
ATOM      6  C   UNL     1      31.264 -11.574 -21.753  0.00  0.00    -0.020 C 
ATOM      7  C   UNL     1      31.364 -12.067 -20.313  0.00  0.00    -0.082 C 
ATOM      8  H   UNL     1      33.380 -11.786 -20.222  0.00  0.00    -0.084 HD
ATOM      9  H   UNL     1      32.719 -12.558 -18.884  0.00  0.00    -0.084 HD
ENDROOT
BRANCH   2  11
ATOM     10  O   UNL     1      35.429 -14.393 -24.062  0.00  0.00    -0.270 OA
ATOM     11  N   UNL     1      34.074 -15.020 -22.288  0.00  0.00    -0.301 N 
ATOM     12  C   UNL     1      34.854 -15.257 -23.404  0.00  0.00    +0.246 C 
ATOM     13  H   UNL     1      33.654 -15.783 -21.830  0.00  0.00    +0.150 HD
BRANCH  12  14
ATOM     14  C   UNL     1      34.958 -16.678 -23.823  0.00  0.00    +0.054 C 
ATOM     15  C   UNL     1      34.454 -17.048 -25.053  0.00  0.00    +0.008 C 
ATOM     16  C   UNL     1      35.554 -17.583 -22.970  0.00  0.00    +0.008 C 
ATOM     17  C   UNL     1      34.551 -18.383 -25.447  0.00  0.00    +0.037 C 
ATOM     18  C   UNL     1      35.653 -18.917 -23.364  0.00  0.00    +0.037 C 
ATOM     19  C   UNL     1      35.151 -19.317 -24.603  0.00  0.00    +0.134 C 
BRANCH  19  20
ATOM     20  O   UNL     1      35.248 -20.619 -24.988  0.00  0.00    -0.506 OA
ATOM     21  H   UNL     1      35.657 -20.836 -25.803  0.00  0.00    +0.292 HD
ENDBRANCH  19  20
ENDBRANCH  12  14
ENDBRANCH   2  11
BRANCH   3  22
ATOM     22  O   UNL     1      33.940 -11.534 -22.890  0.00  0.00    -0.448 OA
BRANCH  22  24
ATOM     23  O   UNL     1      34.094 -11.329 -25.177  0.00  0.00    -0.245 OA
ATOM     24  C   UNL     1      33.899 -10.861 -24.066  0.00  0.00    +0.341 C 
BRANCH  24  25
ATOM     25  C   UNL     1      33.578  -9.430 -23.831  0.00  0.00    +0.076 C 
ATOM     26  C   UNL     1      34.615  -8.528 -23.698  0.00  0.00    +0.007 C 
ATOM     27  C   UNL     1      32.255  -9.047 -23.751  0.00  0.00    +0.007 C 
ATOM     28  C   UNL     1      34.313  -7.184 -23.476  0.00  0.00    +0.003 C 
ATOM     29  C   UNL     1      31.954  -7.704 -23.528  0.00  0.00    +0.003 C 
ATOM     30  C   UNL     1      32.984  -6.771 -23.391  0.00  0.00    +0.039 C 
BRANCH  30  32
ATOM     31  O   UNL     1      32.566  -4.937 -22.002  0.00  0.00    -0.286 OA
ATOM     32  C   UNL     1      32.670  -5.371 -23.159  0.00  0.00    +0.198 C 
BRANCH  32  33
ATOM     33  C   UNL     1      32.458  -4.402 -24.277  0.00  0.00    +0.073 C 
ATOM     34  C   UNL     1      31.513  -3.411 -24.147  0.00  0.00    +0.137 C 
ATOM     35  C   UNL     1      33.233  -4.547 -25.406  0.00  0.00    +0.006 C 
ATOM     36  C   UNL     1      31.332  -2.517 -25.201  0.00  0.00    +0.037 C 
ATOM     37  C   UNL     1      33.052  -3.653 -26.461  0.00  0.00    +0.000 C 
ATOM     38  C   UNL     1      32.101  -2.639 -26.359  0.00  0.00    +0.003 C 
BRANCH  34  39
ATOM     39  O   UNL     1      30.752  -3.276 -23.024  0.00  0.00    -0.505 OA
ATOM     40  H   UNL     1      30.607  -4.014 -22.464  0.00  0.00    +0.292 HD
ENDBRANCH  34  39
ENDBRANCH  32  33
ENDBRANCH  30  32
ENDBRANCH  24  25
ENDBRANCH  22  24
ENDBRANCH   3  22
TORSDOF 9
ENDMDL
MODEL 9
REMARK VINA RESULT:      -9.7      8.285     13.340
REMARK  Name = 10050566
REMARK  9 active torsions:
REMARK  status: ('A' for Active; 'I' for Inactive)
REMARK    1  A    between atoms: C_2  and  N_11
REMARK    2  A    between atoms: C_3  and  O_22
REMARK    3  A    between atoms: C_12  and  C_14
REMARK    4  A    between atoms: C_19  and  O_20
REMARK    5  A    between atoms: O_22  and  C_24
REMARK    6  A    between atoms: C_24  and  C_25
REMARK    7  A    between atoms: C_30  and  C_32
REMARK    8  A    between atoms: C_32  and  C_33
REMARK    9  A    between atoms: C_34  and  O_39
REMARK                            x       y       z     vdW  Elec       q    Type
REMARK                         _______ _______ _______ _____ _____    ______ ____
ROOT
ATOM      1  N   UNL     1      32.272 -11.630 -19.289  0.00  0.00    +0.385 N 
ATOM      2  C   UNL     1      33.332 -12.701 -21.286  0.00  0.00    +0.091 C 
ATOM      3  C   UNL     1      32.512 -11.892 -22.307  0.00  0.00    +0.185 C 
ATOM      4  C   UNL     1      30.997 -11.841 -22.078  0.00  0.00    +0.043 C 
ATOM      5  C   UNL     1      32.708 -12.886 -19.899  0.00  0.00    -0.058 C 
ATOM      6  C   UNL     1      30.533 -10.907 -20.957  0.00  0.00    -0.020 C 
ATOM      7  C   UNL     1      30.853 -11.376 -19.542  0.00  0.00    -0.082 C 
ATOM      8  H   UNL     1      32.821 -10.863 -19.680  0.00  0.00    -0.084 HD
ATOM      9  H   UNL     1      32.411 -11.698 -18.281  0.00  0.00    -0.084 HD
ENDROOT
BRANCH   2  11
ATOM     10  O   UNL     1      35.201 -13.272 -23.387  0.00  0.00    -0.270 OA
ATOM     11  N   UNL     1      33.644 -14.007 -21.835  0.00  0.00    -0.301 N 
ATOM     12  C   UNL     1      34.565 -14.175 -22.851  0.00  0.00    +0.246 C 
ATOM     13  H   UNL     1      33.185 -14.799 -21.472  0.00  0.00    +0.150 HD
BRANCH  12  14
ATOM     14  C   UNL     1      34.753 -15.573 -23.321  0.00  0.00    +0.054 C 
ATOM     15  C   UNL     1      35.165 -16.529 -22.417  0.00  0.00    +0.008 C 
ATOM     16  C   UNL     1      34.509 -15.869 -24.646  0.00  0.00    +0.008 C 
ATOM     17  C   UNL     1      35.341 -17.841 -22.857  0.00  0.00    +0.037 C 
ATOM     18  C   UNL     1      34.684 -17.181 -25.086  0.00  0.00    +0.037 C 
ATOM     19  C   UNL     1      35.101 -18.167 -24.191  0.00  0.00    +0.134 C 
BRANCH  19  20
ATOM     20  O   UNL     1      35.270 -19.447 -24.620  0.00  0.00    -0.506 OA
ATOM     21  H   UNL     1      35.730 -20.063 -24.085  0.00  0.00    +0.292 HD
ENDBRANCH  19  20
ENDBRANCH  12  14
ENDBRANCH   2  11
BRANCH   3  22
ATOM     22  O   UNL     1      33.038 -10.564 -22.393  0.00  0.00    -0.448 OA
BRANCH  22  24
ATOM     23  O   UNL     1      33.717 -10.802 -24.579  0.00  0.00    -0.245 OA
ATOM     24  C   UNL     1      33.317 -10.124 -23.645  0.00  0.00    +0.341 C 
BRANCH  24  25
ATOM     25  C   UNL     1      33.072  -8.664 -23.745  0.00  0.00    +0.076 C 
ATOM     26  C   UNL     1      34.143  -7.799 -23.647  0.00  0.00    +0.007 C 
ATOM     27  C   UNL     1      31.780  -8.215 -23.931  0.00  0.00    +0.007 C 
ATOM     28  C   UNL     1      33.912  -6.426 -23.740  0.00  0.00    +0.003 C 
ATOM     29  C   UNL     1      31.549  -6.843 -24.024  0.00  0.00    +0.003 C 
ATOM     30  C   UNL     1      32.616  -5.948 -23.929  0.00  0.00    +0.039 C 
BRANCH  30  32
ATOM     31  O   UNL     1      32.071  -3.865 -23.016  0.00  0.00    -0.286 OA
ATOM     32  C   UNL     1      32.375  -4.518 -24.025  0.00  0.00    +0.198 C 
BRANCH  32  33
ATOM     33  C   UNL     1      32.478  -3.774 -25.318  0.00  0.00    +0.073 C 
ATOM     34  C   UNL     1      31.550  -2.803 -25.617  0.00  0.00    +0.137 C 
ATOM     35  C   UNL     1      33.514  -4.100 -26.164  0.00  0.00    +0.006 C 
ATOM     36  C   UNL     1      31.664  -2.121 -26.828  0.00  0.00    +0.037 C 
ATOM     37  C   UNL     1      33.628  -3.417 -27.375  0.00  0.00    +0.000 C 
ATOM     38  C   UNL     1      32.703  -2.428 -27.707  0.00  0.00    +0.003 C 
BRANCH  34  39
ATOM     39  O   UNL     1      30.528  -2.489 -24.772  0.00  0.00    -0.505 OA
ATOM     40  H   UNL     1      30.242  -1.599 -24.692  0.00  0.00    +0.292 HD
ENDBRANCH  34  39
ENDBRANCH  32  33
ENDBRANCH  30  32
ENDBRANCH  24  25
ENDBRANCH  22  24
ENDBRANCH   3  22
TORSDOF 9
ENDMDL
