MODEL 1
REMARK VINA RESULT:     -11.5      0.000      0.000
REMARK  Name = 11560787
REMARK  5 active torsions:
REMARK  status: ('A' for Active; 'I' for Inactive)
REMARK    1  A    between atoms: N_2  and  C_23
REMARK    2  A    between atoms: C_8  and  C_9
REMARK    3  A    between atoms: C_12  and  N_15
REMARK    4  A    between atoms: C_13  and  O_21
REMARK    5  A    between atoms: C_23  and  C_26
REMARK                            x       y       z     vdW  Elec       q    Type
REMARK                         _______ _______ _______ _____ _____    ______ ____
ROOT
ATOM      1  O   UNL     1      35.354 -16.493 -24.663  0.00  0.00    -0.270 OA
ATOM      2  N   UNL     1      35.418 -17.131 -22.434  0.00  0.00    -0.274 N 
ATOM      3  C   UNL     1      35.081 -16.871 -21.036  0.00  0.00    +0.094 C 
ATOM      4  C   UNL     1      35.099 -15.393 -20.698  0.00  0.00    +0.026 C 
ATOM      5  C   UNL     1      34.174 -14.659 -21.650  0.00  0.00    +0.033 C 
ATOM      6  C   UNL     1      34.574 -14.913 -23.072  0.00  0.00    +0.031 C 
ATOM      7  C   UNL     1      35.145 -16.241 -23.475  0.00  0.00    +0.245 C 
ATOM      8  C   UNL     1      34.466 -13.963 -24.014  0.00  0.00    +0.000 C 
ENDROOT
BRANCH   8   9
ATOM      9  C   UNL     1      33.934 -12.607 -23.807  0.00  0.00    +0.003 C 
ATOM     10  C   UNL     1      32.837 -12.426 -22.979  0.00  0.00    +0.038 C 
ATOM     11  C   UNL     1      34.539 -11.533 -24.443  0.00  0.00    +0.001 C 
ATOM     12  C   UNL     1      32.931 -10.051 -23.415  0.00  0.00    +0.084 C 
ATOM     13  C   UNL     1      32.332 -11.140 -22.782  0.00  0.00    +0.152 C 
ATOM     14  C   UNL     1      34.035 -10.248 -24.247  0.00  0.00    +0.018 C 
BRANCH  12  15
ATOM     15  N   UNL     1      32.442  -8.769 -23.232  0.00  0.00    -0.280 N 
ATOM     16  N   UNL     1      31.307  -6.892 -23.617  0.00  0.00    -0.255 NA
ATOM     17  C   UNL     1      32.723  -7.932 -22.185  0.00  0.00    +0.134 C 
ATOM     18  C   UNL     1      31.586  -8.096 -24.065  0.00  0.00    +0.220 C 
ATOM     19  C   UNL     1      32.012  -6.783 -22.445  0.00  0.00    +0.054 C 
ATOM     20  C   UNL     1      31.947  -5.552 -21.644  0.00  0.00    +0.049 C 
ENDBRANCH  12  15
BRANCH  13  21
ATOM     21  O   UNL     1      31.254 -10.973 -21.965  0.00  0.00    -0.470 OA
ATOM     22  C   UNL     1      31.330 -11.555 -20.666  0.00  0.00    +0.253 C 
ENDBRANCH  13  21
ENDBRANCH   8   9
BRANCH   2  23
ATOM     23  C   UNL     1      35.922 -18.466 -22.733  0.00  0.00    +0.098 C 
ATOM     24  C   UNL     1      37.453 -18.441 -22.751  0.00  0.00    +0.026 C 
BRANCH  23  26
ATOM     25  F   UNL     1      33.940 -22.279 -19.110  0.00  0.00    -0.204 F 
ATOM     26  C   UNL     1      35.387 -19.494 -21.755  0.00  0.00    -0.004 C 
ATOM     27  C   UNL     1      36.273 -20.158 -20.927  0.00  0.00    -0.000 C 
ATOM     28  C   UNL     1      34.027 -19.743 -21.718  0.00  0.00    -0.000 C 
ATOM     29  C   UNL     1      35.781 -21.105 -20.027  0.00  0.00    +0.029 C 
ATOM     30  C   UNL     1      33.536 -20.689 -20.818  0.00  0.00    +0.029 C 
ATOM     31  C   UNL     1      34.412 -21.370 -19.974  0.00  0.00    +0.140 C 
ENDBRANCH  23  26
ENDBRANCH   2  23
TORSDOF 5
ENDMDL
MODEL 2
REMARK VINA RESULT:     -11.1      5.508     12.135
REMARK  Name = 11560787
REMARK  5 active torsions:
REMARK  status: ('A' for Active; 'I' for Inactive)
REMARK    1  A    between atoms: N_2  and  C_23
REMARK    2  A    between atoms: C_8  and  C_9
REMARK    3  A    between atoms: C_12  and  N_15
REMARK    4  A    between atoms: C_13  and  O_21
REMARK    5  A    between atoms: C_23  and  C_26
REMARK                            x       y       z     vdW  Elec       q    Type
REMARK                         _______ _______ _______ _____ _____    ______ ____
ROOT
ATOM      1  O   UNL     1      37.639 -19.514 -21.319  0.00  0.00    -0.270 OA
ATOM      2  N   UNL     1      35.433 -19.600 -22.029  0.00  0.00    -0.274 N 
ATOM      3  C   UNL     1      34.036 -19.944 -21.771  0.00  0.00    +0.094 C 
ATOM      4  C   UNL     1      33.892 -21.180 -20.906  0.00  0.00    +0.026 C 
ATOM      5  C   UNL     1      34.671 -20.976 -19.620  0.00  0.00    +0.033 C 
ATOM      6  C   UNL     1      36.107 -20.668 -19.920  0.00  0.00    +0.031 C 
ATOM      7  C   UNL     1      36.475 -19.875 -21.140  0.00  0.00    +0.245 C 
ATOM      8  C   UNL     1      37.101 -21.111 -19.134  0.00  0.00    +0.000 C 
ENDROOT
BRANCH   8   9
ATOM      9  C   UNL     1      36.934 -21.898 -17.903  0.00  0.00    +0.003 C 
ATOM     10  C   UNL     1      35.695 -22.445 -17.607  0.00  0.00    +0.038 C 
ATOM     11  C   UNL     1      38.020 -22.082 -17.060  0.00  0.00    +0.001 C 
ATOM     12  C   UNL     1      36.620 -23.385 -15.583  0.00  0.00    +0.084 C 
ATOM     13  C   UNL     1      35.537 -23.193 -16.440  0.00  0.00    +0.152 C 
ATOM     14  C   UNL     1      37.862 -22.829 -15.893  0.00  0.00    +0.018 C 
BRANCH  12  15
ATOM     15  N   UNL     1      36.481 -24.123 -14.421  0.00  0.00    -0.280 N 
ATOM     16  N   UNL     1      36.449 -25.881 -13.054  0.00  0.00    -0.255 NA
ATOM     17  C   UNL     1      36.142 -23.639 -13.184  0.00  0.00    +0.134 C 
ATOM     18  C   UNL     1      36.655 -25.476 -14.287  0.00  0.00    +0.220 C 
ATOM     19  C   UNL     1      36.130 -24.741 -12.360  0.00  0.00    +0.054 C 
ATOM     20  C   UNL     1      35.829 -24.799 -10.922  0.00  0.00    +0.049 C 
ENDBRANCH  12  15
BRANCH  13  21
ATOM     21  O   UNL     1      34.314 -23.725 -16.159  0.00  0.00    -0.470 OA
ATOM     22  C   UNL     1      33.259 -23.442 -17.076  0.00  0.00    +0.253 C 
ENDBRANCH  13  21
ENDBRANCH   8   9
BRANCH   2  23
ATOM     23  C   UNL     1      35.684 -18.789 -23.213  0.00  0.00    +0.098 C 
ATOM     24  C   UNL     1      34.925 -19.378 -24.405  0.00  0.00    +0.026 C 
BRANCH  23  26
ATOM     25  F   UNL     1      34.345 -13.399 -22.346  0.00  0.00    -0.204 F 
ATOM     26  C   UNL     1      35.323 -17.335 -22.979  0.00  0.00    -0.004 C 
ATOM     27  C   UNL     1      35.213 -16.870 -21.682  0.00  0.00    -0.000 C 
ATOM     28  C   UNL     1      35.112 -16.511 -24.069  0.00  0.00    -0.000 C 
ATOM     29  C   UNL     1      34.881 -15.532 -21.466  0.00  0.00    +0.029 C 
ATOM     30  C   UNL     1      34.779 -15.173 -23.854  0.00  0.00    +0.029 C 
ATOM     31  C   UNL     1      34.664 -14.684 -22.553  0.00  0.00    +0.140 C 
ENDBRANCH  23  26
ENDBRANCH   2  23
TORSDOF 5
ENDMDL
MODEL 3
REMARK VINA RESULT:     -10.5      1.089      2.075
REMARK  Name = 11560787
REMARK  5 active torsions:
REMARK  status: ('A' for Active; 'I' for Inactive)
REMARK    1  A    between atoms: N_2  and  C_23
REMARK    2  A    between atoms: C_8  and  C_9
REMARK    3  A    between atoms: C_12  and  N_15
REMARK    4  A    between atoms: C_13  and  O_21
REMARK    5  A    between atoms: C_23  and  C_26
REMARK                            x       y       z     vdW  Elec       q    Type
REMARK                         _______ _______ _______ _____ _____    ______ ____
ROOT
ATOM      1  O   UNL     1      35.009 -16.486 -24.644  0.00  0.00    -0.270 OA
ATOM      2  N   UNL     1      35.285 -17.133 -22.434  0.00  0.00    -0.274 N 
ATOM      3  C   UNL     1      35.099 -16.869 -21.008  0.00  0.00    +0.094 C 
ATOM      4  C   UNL     1      35.190 -15.393 -20.674  0.00  0.00    +0.026 C 
ATOM      5  C   UNL     1      34.191 -14.632 -21.525  0.00  0.00    +0.033 C 
ATOM      6  C   UNL     1      34.437 -14.892 -22.980  0.00  0.00    +0.031 C 
ATOM      7  C   UNL     1      34.929 -16.233 -23.441  0.00  0.00    +0.245 C 
ATOM      8  C   UNL     1      34.257 -13.936 -23.906  0.00  0.00    +0.000 C 
ENDROOT
BRANCH   8   9
ATOM      9  C   UNL     1      33.783 -12.569 -23.645  0.00  0.00    +0.003 C 
ATOM     10  C   UNL     1      34.500 -11.492 -24.144  0.00  0.00    +0.038 C 
ATOM     11  C   UNL     1      32.626 -12.379 -22.904  0.00  0.00    +0.001 C 
ATOM     12  C   UNL     1      32.888  -9.990 -23.153  0.00  0.00    +0.084 C 
ATOM     13  C   UNL     1      34.050 -10.195 -23.897  0.00  0.00    +0.152 C 
ATOM     14  C   UNL     1      32.176 -11.083 -22.656  0.00  0.00    +0.018 C 
BRANCH  12  15
ATOM     15  N   UNL     1      32.428  -8.710 -22.896  0.00  0.00    -0.280 N 
ATOM     16  N   UNL     1      31.883  -6.875 -21.757  0.00  0.00    -0.255 NA
ATOM     17  C   UNL     1      31.943  -7.818 -23.817  0.00  0.00    +0.134 C 
ATOM     18  C   UNL     1      32.371  -8.093 -21.673  0.00  0.00    +0.220 C 
ATOM     19  C   UNL     1      31.615  -6.698 -23.091  0.00  0.00    +0.054 C 
ATOM     20  C   UNL     1      31.048  -5.431 -23.578  0.00  0.00    +0.049 C 
ENDBRANCH  12  15
BRANCH  13  21
ATOM     21  O   UNL     1      34.762  -9.144 -24.393  0.00  0.00    -0.470 OA
ATOM     22  C   UNL     1      35.915  -9.455 -25.172  0.00  0.00    +0.253 C 
ENDBRANCH  13  21
ENDBRANCH   8   9
BRANCH   2  23
ATOM     23  C   UNL     1      35.721 -18.479 -22.784  0.00  0.00    +0.098 C 
ATOM     24  C   UNL     1      37.248 -18.506 -22.899  0.00  0.00    +0.026 C 
BRANCH  23  26
ATOM     25  F   UNL     1      33.838 -22.281 -19.097  0.00  0.00    -0.204 F 
ATOM     26  C   UNL     1      35.213 -19.505 -21.789  0.00  0.00    -0.004 C 
ATOM     27  C   UNL     1      33.855 -19.753 -21.714  0.00  0.00    -0.000 C 
ATOM     28  C   UNL     1      36.121 -20.166 -20.983  0.00  0.00    -0.000 C 
ATOM     29  C   UNL     1      33.388 -20.697 -20.799  0.00  0.00    +0.029 C 
ATOM     30  C   UNL     1      35.654 -21.110 -20.068  0.00  0.00    +0.029 C 
ATOM     31  C   UNL     1      34.288 -21.375 -19.976  0.00  0.00    +0.140 C 
ENDBRANCH  23  26
ENDBRANCH   2  23
TORSDOF 5
ENDMDL
MODEL 4
REMARK VINA RESULT:     -10.4      5.122     11.768
REMARK  Name = 11560787
REMARK  5 active torsions:
REMARK  status: ('A' for Active; 'I' for Inactive)
REMARK    1  A    between atoms: N_2  and  C_23
REMARK    2  A    between atoms: C_8  and  C_9
REMARK    3  A    between atoms: C_12  and  N_15
REMARK    4  A    between atoms: C_13  and  O_21
REMARK    5  A    between atoms: C_23  and  C_26
REMARK                            x       y       z     vdW  Elec       q    Type
REMARK                         _______ _______ _______ _____ _____    ______ ____
ROOT
ATOM      1  O   UNL     1      33.834 -19.802 -22.642  0.00  0.00    -0.270 OA
ATOM      2  N   UNL     1      35.919 -18.807 -22.844  0.00  0.00    -0.274 N 
ATOM      3  C   UNL     1      37.313 -18.696 -22.416  0.00  0.00    +0.094 C 
ATOM      4  C   UNL     1      37.486 -18.949 -20.931  0.00  0.00    +0.026 C 
ATOM      5  C   UNL     1      36.895 -20.304 -20.589  0.00  0.00    +0.033 C 
ATOM      6  C   UNL     1      35.456 -20.368 -21.002  0.00  0.00    +0.031 C 
ATOM      7  C   UNL     1      34.985 -19.646 -22.232  0.00  0.00    +0.245 C 
ATOM      8  C   UNL     1      34.546 -21.039 -20.280  0.00  0.00    +0.000 C 
ENDROOT
BRANCH   8   9
ATOM      9  C   UNL     1      34.819 -21.801 -19.052  0.00  0.00    +0.003 C 
ATOM     10  C   UNL     1      36.045 -21.660 -18.421  0.00  0.00    +0.038 C 
ATOM     11  C   UNL     1      33.844 -22.648 -18.545  0.00  0.00    +0.001 C 
ATOM     12  C   UNL     1      35.333 -23.237 -16.736  0.00  0.00    +0.084 C 
ATOM     13  C   UNL     1      36.304 -22.383 -17.256  0.00  0.00    +0.152 C 
ATOM     14  C   UNL     1      34.102 -23.370 -17.381  0.00  0.00    +0.018 C 
BRANCH  12  15
ATOM     15  N   UNL     1      35.573 -23.963 -15.582  0.00  0.00    -0.280 N 
ATOM     16  N   UNL     1      35.328 -24.720 -13.501  0.00  0.00    -0.255 NA
ATOM     17  C   UNL     1      36.581 -24.871 -15.385  0.00  0.00    +0.134 C 
ATOM     18  C   UNL     1      34.849 -23.910 -14.419  0.00  0.00    +0.220 C 
ATOM     19  C   UNL     1      36.408 -25.322 -14.097  0.00  0.00    +0.054 C 
ATOM     20  C   UNL     1      37.212 -26.311 -13.363  0.00  0.00    +0.049 C 
ENDBRANCH  12  15
BRANCH  13  21
ATOM     21  O   UNL     1      37.513 -22.236 -16.645  0.00  0.00    -0.470 OA
ATOM     22  C   UNL     1      38.236 -21.039 -16.920  0.00  0.00    +0.253 C 
ENDBRANCH  13  21
ENDBRANCH   8   9
BRANCH   2  23
ATOM     23  C   UNL     1      35.571 -18.108 -24.075  0.00  0.00    +0.098 C 
ATOM     24  C   UNL     1      34.508 -18.909 -24.832  0.00  0.00    +0.026 C 
BRANCH  23  26
ATOM     25  F   UNL     1      33.883 -12.845 -23.052  0.00  0.00    -0.204 F 
ATOM     26  C   UNL     1      35.115 -16.688 -23.799  0.00  0.00    -0.004 C 
ATOM     27  C   UNL     1      34.645 -15.918 -24.846  0.00  0.00    -0.000 C 
ATOM     28  C   UNL     1      35.182 -16.200 -22.507  0.00  0.00    -0.000 C 
ATOM     29  C   UNL     1      34.226 -14.611 -24.592  0.00  0.00    +0.029 C 
ATOM     30  C   UNL     1      34.763 -14.894 -22.253  0.00  0.00    +0.029 C 
ATOM     31  C   UNL     1      34.285 -14.100 -23.295  0.00  0.00    +0.140 C 
ENDBRANCH  23  26
ENDBRANCH   2  23
TORSDOF 5
ENDMDL
MODEL 5
REMARK VINA RESULT:     -10.1      1.345      2.247
REMARK  Name = 11560787
REMARK  5 active torsions:
REMARK  status: ('A' for Active; 'I' for Inactive)
REMARK    1  A    between atoms: N_2  and  C_23
REMARK    2  A    between atoms: C_8  and  C_9
REMARK    3  A    between atoms: C_12  and  N_15
REMARK    4  A    between atoms: C_13  and  O_21
REMARK    5  A    between atoms: C_23  and  C_26
REMARK                            x       y       z     vdW  Elec       q    Type
REMARK                         _______ _______ _______ _____ _____    ______ ____
ROOT
ATOM      1  O   UNL     1      35.510 -17.009 -21.000  0.00  0.00    -0.270 OA
ATOM      2  N   UNL     1      35.531 -17.714 -23.210  0.00  0.00    -0.274 N 
ATOM      3  C   UNL     1      35.365 -17.417 -24.632  0.00  0.00    +0.094 C 
ATOM      4  C   UNL     1      34.290 -16.379 -24.887  0.00  0.00    +0.026 C 
ATOM      5  C   UNL     1      34.607 -15.133 -24.082  0.00  0.00    +0.033 C 
ATOM      6  C   UNL     1      34.728 -15.465 -22.626  0.00  0.00    +0.031 C 
ATOM      7  C   UNL     1      35.293 -16.787 -22.192  0.00  0.00    +0.245 C 
ATOM      8  C   UNL     1      34.314 -14.615 -21.673  0.00  0.00    +0.000 C 
ENDROOT
BRANCH   8   9
ATOM      9  C   UNL     1      33.737 -13.283 -21.906  0.00  0.00    +0.003 C 
ATOM     10  C   UNL     1      34.163 -12.536 -22.993  0.00  0.00    +0.038 C 
ATOM     11  C   UNL     1      32.775 -12.795 -21.033  0.00  0.00    +0.001 C 
ATOM     12  C   UNL     1      32.647 -10.771 -22.345  0.00  0.00    +0.084 C 
ATOM     13  C   UNL     1      33.615 -11.272 -23.214  0.00  0.00    +0.152 C 
ATOM     14  C   UNL     1      32.227 -11.532 -21.253  0.00  0.00    +0.018 C 
BRANCH  12  15
ATOM     15  N   UNL     1      32.094  -9.518 -22.548  0.00  0.00    -0.280 N 
ATOM     16  N   UNL     1      30.882  -7.895 -23.475  0.00  0.00    -0.255 NA
ATOM     17  C   UNL     1      32.306  -8.400 -21.785  0.00  0.00    +0.134 C 
ATOM     18  C   UNL     1      31.230  -9.160 -23.551  0.00  0.00    +0.220 C 
ATOM     19  C   UNL     1      31.549  -7.415 -22.376  0.00  0.00    +0.054 C 
ATOM     20  C   UNL     1      31.404  -6.009 -21.968  0.00  0.00    +0.049 C 
ENDBRANCH  12  15
BRANCH  13  21
ATOM     21  O   UNL     1      34.041 -10.548 -24.287  0.00  0.00    -0.470 OA
ATOM     22  C   UNL     1      34.632 -11.272 -25.363  0.00  0.00    +0.253 C 
ENDBRANCH  13  21
ENDBRANCH   8   9
BRANCH   2  23
ATOM     23  C   UNL     1      36.130 -19.003 -22.891  0.00  0.00    +0.098 C 
ATOM     24  C   UNL     1      37.572 -18.794 -22.420  0.00  0.00    +0.026 C 
BRANCH  23  26
ATOM     25  F   UNL     1      33.082 -21.814 -19.096  0.00  0.00    -0.204 F 
ATOM     26  C   UNL     1      35.308 -19.762 -21.867  0.00  0.00    -0.004 C 
ATOM     27  C   UNL     1      35.957 -20.444 -20.855  0.00  0.00    -0.000 C 
ATOM     28  C   UNL     1      33.929 -19.752 -21.971  0.00  0.00    -0.000 C 
ATOM     29  C   UNL     1      35.201 -21.141 -19.913  0.00  0.00    +0.029 C 
ATOM     30  C   UNL     1      33.173 -20.449 -21.029  0.00  0.00    +0.029 C 
ATOM     31  C   UNL     1      33.809 -21.144 -20.001  0.00  0.00    +0.140 C 
ENDBRANCH  23  26
ENDBRANCH   2  23
TORSDOF 5
ENDMDL
MODEL 6
REMARK VINA RESULT:      -9.8      4.162      6.723
REMARK  Name = 11560787
REMARK  5 active torsions:
REMARK  status: ('A' for Active; 'I' for Inactive)
REMARK    1  A    between atoms: N_2  and  C_23
REMARK    2  A    between atoms: C_8  and  C_9
REMARK    3  A    between atoms: C_12  and  N_15
REMARK    4  A    between atoms: C_13  and  O_21
REMARK    5  A    between atoms: C_23  and  C_26
REMARK                            x       y       z     vdW  Elec       q    Type
REMARK                         _______ _______ _______ _____ _____    ______ ____
ROOT
ATOM      1  O   UNL     1      36.983 -21.213 -19.327  0.00  0.00    -0.270 OA
ATOM      2  N   UNL     1      34.875 -22.068 -18.877  0.00  0.00    -0.274 N 
ATOM      3  C   UNL     1      33.456 -22.174 -19.215  0.00  0.00    +0.094 C 
ATOM      4  C   UNL     1      32.901 -20.891 -19.802  0.00  0.00    +0.026 C 
ATOM      5  C   UNL     1      33.741 -20.493 -21.001  0.00  0.00    +0.033 C 
ATOM      6  C   UNL     1      35.181 -20.352 -20.610  0.00  0.00    +0.031 C 
ATOM      7  C   UNL     1      35.773 -21.243 -19.557  0.00  0.00    +0.245 C 
ATOM      8  C   UNL     1      35.971 -19.416 -21.160  0.00  0.00    +0.000 C 
ENDROOT
BRANCH   8   9
ATOM      9  C   UNL     1      35.568 -18.459 -22.200  0.00  0.00    +0.003 C 
ATOM     10  C   UNL     1      35.457 -17.114 -21.883  0.00  0.00    +0.038 C 
ATOM     11  C   UNL     1      35.307 -18.917 -23.484  0.00  0.00    +0.001 C 
ATOM     12  C   UNL     1      34.810 -16.653 -24.164  0.00  0.00    +0.084 C 
ATOM     13  C   UNL     1      35.075 -16.205 -22.871  0.00  0.00    +0.152 C 
ATOM     14  C   UNL     1      34.926 -18.010 -24.471  0.00  0.00    +0.018 C 
BRANCH  12  15
ATOM     15  N   UNL     1      34.429 -15.766 -25.156  0.00  0.00    -0.280 N 
ATOM     16  N   UNL     1      33.769 -15.016 -27.147  0.00  0.00    -0.255 NA
ATOM     17  C   UNL     1      34.326 -14.404 -25.037  0.00  0.00    +0.134 C 
ATOM     18  C   UNL     1      34.083 -16.082 -26.445  0.00  0.00    +0.220 C 
ATOM     19  C   UNL     1      33.918 -13.967 -26.275  0.00  0.00    +0.054 C 
ATOM     20  C   UNL     1      33.651 -12.588 -26.711  0.00  0.00    +0.049 C 
ENDBRANCH  12  15
BRANCH  13  21
ATOM     21  O   UNL     1      34.970 -14.885 -22.547  0.00  0.00    -0.470 OA
ATOM     22  C   UNL     1      34.614 -14.576 -21.201  0.00  0.00    +0.253 C 
ENDBRANCH  13  21
ENDBRANCH   8   9
BRANCH   2  23
ATOM     23  C   UNL     1      35.365 -23.007 -17.876  0.00  0.00    +0.098 C 
ATOM     24  C   UNL     1      36.639 -22.449 -17.235  0.00  0.00    +0.026 C 
BRANCH  23  26
ATOM     25  F   UNL     1      31.432 -24.172 -14.034  0.00  0.00    -0.204 F 
ATOM     26  C   UNL     1      34.304 -23.321 -16.840  0.00  0.00    -0.004 C 
ATOM     27  C   UNL     1      34.672 -23.422 -15.511  0.00  0.00    -0.000 C 
ATOM     28  C   UNL     1      32.996 -23.499 -17.250  0.00  0.00    -0.000 C 
ATOM     29  C   UNL     1      33.695 -23.711 -14.557  0.00  0.00    +0.029 C 
ATOM     30  C   UNL     1      32.019 -23.788 -16.296  0.00  0.00    +0.029 C 
ATOM     31  C   UNL     1      32.369 -23.894 -14.951  0.00  0.00    +0.140 C 
ENDBRANCH  23  26
ENDBRANCH   2  23
TORSDOF 5
ENDMDL
MODEL 7
REMARK VINA RESULT:      -9.7      4.842     11.457
REMARK  Name = 11560787
REMARK  5 active torsions:
REMARK  status: ('A' for Active; 'I' for Inactive)
REMARK    1  A    between atoms: N_2  and  C_23
REMARK    2  A    between atoms: C_8  and  C_9
REMARK    3  A    between atoms: C_12  and  N_15
REMARK    4  A    between atoms: C_13  and  O_21
REMARK    5  A    between atoms: C_23  and  C_26
REMARK                            x       y       z     vdW  Elec       q    Type
REMARK                         _______ _______ _______ _____ _____    ______ ____
ROOT
ATOM      1  O   UNL     1      30.831  -7.665 -24.048  0.00  0.00    -0.270 OA
ATOM      2  N   UNL     1      32.777  -6.404 -23.991  0.00  0.00    -0.274 N 
ATOM      3  C   UNL     1      34.236  -6.334 -23.948  0.00  0.00    +0.094 C 
ATOM      4  C   UNL     1      34.849  -7.465 -23.145  0.00  0.00    +0.026 C 
ATOM      5  C   UNL     1      34.361  -8.788 -23.705  0.00  0.00    +0.033 C 
ATOM      6  C   UNL     1      32.863  -8.842 -23.695  0.00  0.00    +0.031 C 
ATOM      7  C   UNL     1      32.056  -7.598 -23.930  0.00  0.00    +0.245 C 
ATOM      8  C   UNL     1      32.202  -9.984 -23.448  0.00  0.00    +0.000 C 
ENDROOT
BRANCH   8   9
ATOM      9  C   UNL     1      32.820 -11.294 -23.196  0.00  0.00    +0.003 C 
ATOM     10  C   UNL     1      32.346 -12.082 -22.158  0.00  0.00    +0.038 C 
ATOM     11  C   UNL     1      33.866 -11.720 -24.001  0.00  0.00    +0.001 C 
ATOM     12  C   UNL     1      33.984 -13.766 -22.721  0.00  0.00    +0.084 C 
ATOM     13  C   UNL     1      32.932 -13.326 -21.919  0.00  0.00    +0.152 C 
ATOM     14  C   UNL     1      34.452 -12.963 -23.763  0.00  0.00    +0.018 C 
BRANCH  12  15
ATOM     15  N   UNL     1      34.578 -14.996 -22.498  0.00  0.00    -0.280 N 
ATOM     16  N   UNL     1      35.412 -16.744 -21.397  0.00  0.00    -0.255 NA
ATOM     17  C   UNL     1      35.019 -15.875 -23.453  0.00  0.00    +0.134 C 
ATOM     18  C   UNL     1      34.838 -15.567 -21.279  0.00  0.00    +0.220 C 
ATOM     19  C   UNL     1      35.527 -16.942 -22.750  0.00  0.00    +0.054 C 
ATOM     20  C   UNL     1      36.133 -18.174 -23.277  0.00  0.00    +0.049 C 
ENDBRANCH  12  15
BRANCH  13  21
ATOM     21  O   UNL     1      32.458 -14.092 -20.897  0.00  0.00    -0.470 OA
ATOM     22  C   UNL     1      32.219 -13.436 -19.654  0.00  0.00    +0.253 C 
ENDBRANCH  13  21
ENDBRANCH   8   9
BRANCH   2  23
ATOM     23  C   UNL     1      32.085  -5.152 -24.271  0.00  0.00    +0.098 C 
ATOM     24  C   UNL     1      32.019  -4.309 -22.994  0.00  0.00    +0.026 C 
BRANCH  23  26
ATOM     25  F   UNL     1      34.513  -2.352 -28.497  0.00  0.00    -0.204 F 
ATOM     26  C   UNL     1      32.740  -4.396 -25.411  0.00  0.00    -0.004 C 
ATOM     27  C   UNL     1      33.340  -5.109 -26.433  0.00  0.00    -0.000 C 
ATOM     28  C   UNL     1      32.721  -3.014 -25.401  0.00  0.00    -0.000 C 
ATOM     29  C   UNL     1      33.943  -4.415 -27.482  0.00  0.00    +0.029 C 
ATOM     30  C   UNL     1      33.323  -2.319 -26.450  0.00  0.00    +0.029 C 
ATOM     31  C   UNL     1      33.934  -3.019 -27.490  0.00  0.00    +0.140 C 
ENDBRANCH  23  26
ENDBRANCH   2  23
TORSDOF 5
ENDMDL
MODEL 8
REMARK VINA RESULT:      -9.7      6.031      9.928
REMARK  Name = 11560787
REMARK  5 active torsions:
REMARK  status: ('A' for Active; 'I' for Inactive)
REMARK    1  A    between atoms: N_2  and  C_23
REMARK    2  A    between atoms: C_8  and  C_9
REMARK    3  A    between atoms: C_12  and  N_15
REMARK    4  A    between atoms: C_13  and  O_21
REMARK    5  A    between atoms: C_23  and  C_26
REMARK                            x       y       z     vdW  Elec       q    Type
REMARK                         _______ _______ _______ _____ _____    ______ ____
ROOT
ATOM      1  O   UNL     1      34.105 -24.595 -17.207  0.00  0.00    -0.270 OA
ATOM      2  N   UNL     1      36.014 -24.157 -15.966  0.00  0.00    -0.274 N 
ATOM      3  C   UNL     1      37.134 -23.275 -15.640  0.00  0.00    +0.094 C 
ATOM      4  C   UNL     1      37.644 -22.512 -16.847  0.00  0.00    +0.026 C 
ATOM      5  C   UNL     1      36.489 -21.753 -17.474  0.00  0.00    +0.033 C 
ATOM      6  C   UNL     1      35.378 -22.691 -17.834  0.00  0.00    +0.031 C 
ATOM      7  C   UNL     1      35.094 -23.896 -16.984  0.00  0.00    +0.245 C 
ATOM      8  C   UNL     1      34.628 -22.506 -18.932  0.00  0.00    +0.000 C 
ENDROOT
BRANCH   8   9
ATOM      9  C   UNL     1      34.758 -21.389 -19.880  0.00  0.00    +0.003 C 
ATOM     10  C   UNL     1      36.020 -20.911 -20.200  0.00  0.00    +0.038 C 
ATOM     11  C   UNL     1      33.616 -20.833 -20.438  0.00  0.00    +0.001 C 
ATOM     12  C   UNL     1      35.004 -19.284 -21.668  0.00  0.00    +0.084 C 
ATOM     13  C   UNL     1      36.143 -19.852 -21.100  0.00  0.00    +0.152 C 
ATOM     14  C   UNL     1      33.740 -19.775 -21.337  0.00  0.00    +0.018 C 
BRANCH  12  15
ATOM     15  N   UNL     1      35.108 -18.232 -22.562  0.00  0.00    -0.280 N 
ATOM     16  N   UNL     1      35.430 -16.164 -23.325  0.00  0.00    -0.255 NA
ATOM     17  C   UNL     1      34.933 -18.294 -23.919  0.00  0.00    +0.134 C 
ATOM     18  C   UNL     1      35.405 -16.929 -22.256  0.00  0.00    +0.220 C 
ATOM     19  C   UNL     1      35.137 -17.010 -24.366  0.00  0.00    +0.054 C 
ATOM     20  C   UNL     1      35.072 -16.504 -25.746  0.00  0.00    +0.049 C 
ENDBRANCH  12  15
BRANCH  13  21
ATOM     21  O   UNL     1      37.388 -19.391 -21.407  0.00  0.00    -0.470 OA
ATOM     22  C   UNL     1      38.071 -18.649 -20.399  0.00  0.00    +0.253 C 
ENDBRANCH  13  21
ENDBRANCH   8   9
BRANCH   2  23
ATOM     23  C   UNL     1      35.793 -25.273 -15.055  0.00  0.00    +0.098 C 
ATOM     24  C   UNL     1      36.660 -26.460 -15.483  0.00  0.00    +0.026 C 
BRANCH  23  26
ATOM     25  F   UNL     1      36.757 -23.802  -9.717  0.00  0.00    -0.204 F 
ATOM     26  C   UNL     1      36.053 -24.876 -13.615  0.00  0.00    -0.004 C 
ATOM     27  C   UNL     1      37.312 -25.076 -13.079  0.00  0.00    -0.000 C 
ATOM     28  C   UNL     1      35.025 -24.324 -12.874  0.00  0.00    -0.000 C 
ATOM     29  C   UNL     1      37.551 -24.711 -11.755  0.00  0.00    +0.029 C 
ATOM     30  C   UNL     1      35.265 -23.958 -11.549  0.00  0.00    +0.029 C 
ATOM     31  C   UNL     1      36.527 -24.152 -10.990  0.00  0.00    +0.140 C 
ENDBRANCH  23  26
ENDBRANCH   2  23
TORSDOF 5
ENDMDL
MODEL 9
REMARK VINA RESULT:      -9.7      4.634     11.445
REMARK  Name = 11560787
REMARK  5 active torsions:
REMARK  status: ('A' for Active; 'I' for Inactive)
REMARK    1  A    between atoms: N_2  and  C_23
REMARK    2  A    between atoms: C_8  and  C_9
REMARK    3  A    between atoms: C_12  and  N_15
REMARK    4  A    between atoms: C_13  and  O_21
REMARK    5  A    between atoms: C_23  and  C_26
REMARK                            x       y       z     vdW  Elec       q    Type
REMARK                         _______ _______ _______ _____ _____    ______ ____
ROOT
ATOM      1  O   UNL     1      30.916  -7.421 -24.768  0.00  0.00    -0.270 OA
ATOM      2  N   UNL     1      31.905  -6.121 -23.121  0.00  0.00    -0.274 N 
ATOM      3  C   UNL     1      32.879  -5.977 -22.040  0.00  0.00    +0.094 C 
ATOM      4  C   UNL     1      33.075  -7.262 -21.259  0.00  0.00    +0.026 C 
ATOM      5  C   UNL     1      33.456  -8.371 -22.222  0.00  0.00    +0.033 C 
ATOM      6  C   UNL     1      32.416  -8.520 -23.290  0.00  0.00    +0.031 C 
ATOM      7  C   UNL     1      31.677  -7.318 -23.804  0.00  0.00    +0.245 C 
ATOM      8  C   UNL     1      32.092  -9.720 -23.795  0.00  0.00    +0.000 C 
ENDROOT
BRANCH   8   9
ATOM      9  C   UNL     1      32.705 -11.002 -23.416  0.00  0.00    +0.003 C 
ATOM     10  C   UNL     1      32.212 -11.696 -22.322  0.00  0.00    +0.038 C 
ATOM     11  C   UNL     1      33.765 -11.497 -24.162  0.00  0.00    +0.001 C 
ATOM     12  C   UNL     1      33.859 -13.421 -22.703  0.00  0.00    +0.084 C 
ATOM     13  C   UNL     1      32.793 -12.913 -21.963  0.00  0.00    +0.152 C 
ATOM     14  C   UNL     1      34.346 -12.713 -23.803  0.00  0.00    +0.018 C 
BRANCH  12  15
ATOM     15  N   UNL     1      34.448 -14.626 -22.360  0.00  0.00    -0.280 N 
ATOM     16  N   UNL     1      35.206 -16.295 -21.095  0.00  0.00    -0.255 NA
ATOM     17  C   UNL     1      34.983 -15.547 -23.223  0.00  0.00    +0.134 C 
ATOM     18  C   UNL     1      34.608 -15.125 -21.093  0.00  0.00    +0.220 C 
ATOM     19  C   UNL     1      35.442 -16.564 -22.420  0.00  0.00    +0.054 C 
ATOM     20  C   UNL     1      36.110 -17.812 -22.823  0.00  0.00    +0.049 C 
ENDBRANCH  12  15
BRANCH  13  21
ATOM     21  O   UNL     1      32.300 -13.586 -20.885  0.00  0.00    -0.470 OA
ATOM     22  C   UNL     1      32.035 -12.821 -19.711  0.00  0.00    +0.253 C 
ENDBRANCH  13  21
ENDBRANCH   8   9
BRANCH   2  23
ATOM     23  C   UNL     1      31.275  -4.891 -23.582  0.00  0.00    +0.098 C 
ATOM     24  C   UNL     1      30.917  -4.018 -22.375  0.00  0.00    +0.026 C 
BRANCH  23  26
ATOM     25  F   UNL     1      34.537  -2.148 -27.246  0.00  0.00    -0.204 F 
ATOM     26  C   UNL     1      32.155  -4.151 -24.570  0.00  0.00    -0.004 C 
ATOM     27  C   UNL     1      33.149  -4.844 -25.236  0.00  0.00    -0.000 C 
ATOM     28  C   UNL     1      31.942  -2.801 -24.781  0.00  0.00    -0.000 C 
ATOM     29  C   UNL     1      33.959  -4.164 -26.145  0.00  0.00    +0.029 C 
ATOM     30  C   UNL     1      32.751  -2.121 -25.691  0.00  0.00    +0.029 C 
ATOM     31  C   UNL     1      33.759  -2.802 -26.372  0.00  0.00    +0.140 C 
ENDBRANCH  23  26
ENDBRANCH   2  23
TORSDOF 5
ENDMDL
