MODEL 1
REMARK VINA RESULT:     -12.5      0.000      0.000
REMARK  Name = 23635314
REMARK  9 active torsions:
REMARK  status: ('A' for Active; 'I' for Inactive)
REMARK    1  A    between atoms: C_2  and  C_8
REMARK    2  A    between atoms: C_3  and  C_23
REMARK    3  A    between atoms: C_7  and  O_13
REMARK    4  A    between atoms: O_13  and  C_14
REMARK    5  A    between atoms: C_14  and  C_15
REMARK    6  A    between atoms: C_15  and  N_17
REMARK    7  A    between atoms: C_23  and  C_26
REMARK    8  A    between atoms: N_25  and  C_28
REMARK    9  A    between atoms: C_28  and  C_29
REMARK                            x       y       z     vdW  Elec       q    Type
REMARK                         _______ _______ _______ _____ _____    ______ ____
ROOT
ATOM      1  N   UNL     1      35.649 -17.017 -23.127  0.00  0.00    -0.248 NA
ATOM      2  C   UNL     1      35.245 -19.238 -22.265  0.00  0.00    +0.019 C 
ATOM      3  C   UNL     1      35.222 -17.459 -24.331  0.00  0.00    +0.068 C 
ATOM      4  C   UNL     1      34.812 -19.656 -23.518  0.00  0.00    +0.003 C 
ATOM      5  C   UNL     1      35.649 -17.921 -22.121  0.00  0.00    +0.098 C 
ATOM      6  C   UNL     1      34.798 -18.755 -24.576  0.00  0.00    +0.015 C 
ENDROOT
BRANCH   2   8
ATOM      7  C   UNL     1      35.322 -21.906 -18.988  0.00  0.00    +0.138 C 
ATOM      8  C   UNL     1      35.272 -20.151 -21.144  0.00  0.00    +0.002 C 
ATOM      9  C   UNL     1      36.513 -21.375 -19.471  0.00  0.00    +0.037 C 
ATOM     10  C   UNL     1      34.106 -21.569 -19.573  0.00  0.00    +0.037 C 
ATOM     11  C   UNL     1      36.487 -20.494 -20.552  0.00  0.00    +0.003 C 
ATOM     12  C   UNL     1      34.082 -20.689 -20.654  0.00  0.00    +0.003 C 
BRANCH   7  13
ATOM     13  O   UNL     1      35.347 -22.772 -17.926  0.00  0.00    -0.478 OA
BRANCH  13  14
ATOM     14  C   UNL     1      36.291 -22.499 -16.898  0.00  0.00    +0.183 C 
BRANCH  14  15
ATOM     15  C   UNL     1      36.000 -23.405 -15.713  0.00  0.00    -0.029 C 
BRANCH  15  17
ATOM     16  O   UNL     1      38.262 -26.686 -14.397  0.00  0.00    -0.358 OA
ATOM     17  N   UNL     1      36.908 -24.549 -15.702  0.00  0.00    +0.393 N 
ATOM     18  C   UNL     1      38.047 -24.304 -14.807  0.00  0.00    -0.044 C 
ATOM     19  C   UNL     1      36.202 -25.773 -15.295  0.00  0.00    -0.044 C 
ATOM     20  C   UNL     1      38.973 -25.516 -14.804  0.00  0.00    +0.119 C 
ATOM     21  C   UNL     1      37.171 -26.950 -15.281  0.00  0.00    +0.119 C 
ATOM     22  H   UNL     1      37.260 -24.677 -16.651  0.00  0.00    -0.079 HD
ENDBRANCH  15  17
ENDBRANCH  14  15
ENDBRANCH  13  14
ENDBRANCH   7  13
ENDBRANCH   2   8
BRANCH   3  23
ATOM     23  C   UNL     1      35.220 -16.466 -25.445  0.00  0.00    +0.131 C 
BRANCH  23  26
ATOM     24  O   UNL     1      33.121 -15.466 -26.124  0.00  0.00    -0.275 OA
ATOM     25  N   UNL     1      34.283 -14.534 -24.343  0.00  0.00    -0.300 N 
ATOM     26  C   UNL     1      34.086 -15.454 -25.363  0.00  0.00    +0.229 C 
ATOM     27  H   UNL     1      35.092 -14.611 -23.787  0.00  0.00    +0.150 HD
BRANCH  25  28
ATOM     28  C   UNL     1      33.348 -13.469 -24.064  0.00  0.00    +0.116 C 
BRANCH  28  29
ATOM     29  C   UNL     1      32.985 -13.409 -22.608  0.00  0.00    -0.003 C 
ATOM     30  C   UNL     1      32.171 -12.382 -22.145  0.00  0.00    -0.003 C 
ATOM     31  C   UNL     1      33.467 -14.381 -21.738  0.00  0.00    -0.003 C 
ATOM     32  C   UNL     1      31.834 -12.326 -20.792  0.00  0.00    -0.000 C 
ATOM     33  C   UNL     1      33.129 -14.324 -20.386  0.00  0.00    -0.000 C 
ATOM     34  C   UNL     1      32.313 -13.296 -19.913  0.00  0.00    -0.000 C 
ENDBRANCH  28  29
ENDBRANCH  25  28
ENDBRANCH  23  26
ENDBRANCH   3  23
TORSDOF 9
ENDMDL
MODEL 2
REMARK VINA RESULT:     -12.4      2.313      3.073
REMARK  Name = 23635314
REMARK  9 active torsions:
REMARK  status: ('A' for Active; 'I' for Inactive)
REMARK    1  A    between atoms: C_2  and  C_8
REMARK    2  A    between atoms: C_3  and  C_23
REMARK    3  A    between atoms: C_7  and  O_13
REMARK    4  A    between atoms: O_13  and  C_14
REMARK    5  A    between atoms: C_14  and  C_15
REMARK    6  A    between atoms: C_15  and  N_17
REMARK    7  A    between atoms: C_23  and  C_26
REMARK    8  A    between atoms: N_25  and  C_28
REMARK    9  A    between atoms: C_28  and  C_29
REMARK                            x       y       z     vdW  Elec       q    Type
REMARK                         _______ _______ _______ _____ _____    ______ ____
ROOT
ATOM      1  N   UNL     1      35.685 -17.030 -23.080  0.00  0.00    -0.248 NA
ATOM      2  C   UNL     1      35.145 -19.241 -22.271  0.00  0.00    +0.019 C 
ATOM      3  C   UNL     1      35.222 -17.412 -24.290  0.00  0.00    +0.068 C 
ATOM      4  C   UNL     1      34.678 -19.598 -23.529  0.00  0.00    +0.003 C 
ATOM      5  C   UNL     1      35.634 -17.957 -22.097  0.00  0.00    +0.098 C 
ATOM      6  C   UNL     1      34.714 -18.672 -24.565  0.00  0.00    +0.015 C 
ENDROOT
BRANCH   2   8
ATOM      7  C   UNL     1      35.074 -21.993 -19.062  0.00  0.00    +0.138 C 
ATOM      8  C   UNL     1      35.121 -20.182 -21.173  0.00  0.00    +0.002 C 
ATOM      9  C   UNL     1      36.291 -21.501 -19.521  0.00  0.00    +0.037 C 
ATOM     10  C   UNL     1      33.879 -21.588 -19.649  0.00  0.00    +0.037 C 
ATOM     11  C   UNL     1      36.314 -20.593 -20.579  0.00  0.00    +0.003 C 
ATOM     12  C   UNL     1      33.904 -20.680 -20.708  0.00  0.00    +0.003 C 
BRANCH   7  13
ATOM     13  O   UNL     1      35.051 -22.885 -18.023  0.00  0.00    -0.478 OA
BRANCH  13  14
ATOM     14  C   UNL     1      33.773 -23.227 -17.500  0.00  0.00    +0.183 C 
BRANCH  14  15
ATOM     15  C   UNL     1      33.898 -23.431 -16.000  0.00  0.00    -0.029 C 
BRANCH  15  17
ATOM     16  O   UNL     1      29.945 -24.270 -14.866  0.00  0.00    -0.358 OA
ATOM     17  N   UNL     1      32.589 -23.338 -15.356  0.00  0.00    +0.393 N 
ATOM     18  C   UNL     1      31.524 -23.188 -16.356  0.00  0.00    -0.044 C 
ATOM     19  C   UNL     1      32.333 -24.521 -14.521  0.00  0.00    -0.044 C 
ATOM     20  C   UNL     1      30.169 -23.105 -15.661  0.00  0.00    +0.119 C 
ATOM     21  C   UNL     1      30.958 -24.407 -13.869  0.00  0.00    +0.119 C 
ATOM     22  H   UNL     1      32.594 -22.512 -14.758  0.00  0.00    -0.079 HD
ENDBRANCH  15  17
ENDBRANCH  14  15
ENDBRANCH  13  14
ENDBRANCH   7  13
ENDBRANCH   2   8
BRANCH   3  23
ATOM     23  C   UNL     1      35.276 -16.392 -25.379  0.00  0.00    +0.131 C 
BRANCH  23  26
ATOM     24  O   UNL     1      33.192 -15.410 -26.126  0.00  0.00    -0.275 OA
ATOM     25  N   UNL     1      34.292 -14.463 -24.315  0.00  0.00    -0.300 N 
ATOM     26  C   UNL     1      34.133 -15.388 -25.337  0.00  0.00    +0.229 C 
ATOM     27  H   UNL     1      35.085 -14.532 -23.734  0.00  0.00    +0.150 HD
BRANCH  25  28
ATOM     28  C   UNL     1      33.342 -13.403 -24.069  0.00  0.00    +0.116 C 
BRANCH  28  29
ATOM     29  C   UNL     1      32.952 -13.325 -22.621  0.00  0.00    -0.003 C 
ATOM     30  C   UNL     1      32.152 -12.277 -22.181  0.00  0.00    -0.003 C 
ATOM     31  C   UNL     1      33.395 -14.301 -21.735  0.00  0.00    -0.003 C 
ATOM     32  C   UNL     1      31.789 -12.204 -20.836  0.00  0.00    -0.000 C 
ATOM     33  C   UNL     1      33.032 -14.228 -20.390  0.00  0.00    -0.000 C 
ATOM     34  C   UNL     1      32.229 -13.178 -19.941  0.00  0.00    -0.000 C 
ENDBRANCH  28  29
ENDBRANCH  25  28
ENDBRANCH  23  26
ENDBRANCH   3  23
TORSDOF 9
ENDMDL
MODEL 3
REMARK VINA RESULT:     -11.4      3.327     11.263
REMARK  Name = 23635314
REMARK  9 active torsions:
REMARK  status: ('A' for Active; 'I' for Inactive)
REMARK    1  A    between atoms: C_2  and  C_8
REMARK    2  A    between atoms: C_3  and  C_23
REMARK    3  A    between atoms: C_7  and  O_13
REMARK    4  A    between atoms: O_13  and  C_14
REMARK    5  A    between atoms: C_14  and  C_15
REMARK    6  A    between atoms: C_15  and  N_17
REMARK    7  A    between atoms: C_23  and  C_26
REMARK    8  A    between atoms: N_25  and  C_28
REMARK    9  A    between atoms: C_28  and  C_29
REMARK                            x       y       z     vdW  Elec       q    Type
REMARK                         _______ _______ _______ _____ _____    ______ ____
ROOT
ATOM      1  N   UNL     1      34.406 -23.913 -16.543  0.00  0.00    -0.248 NA
ATOM      2  C   UNL     1      35.312 -22.315 -18.111  0.00  0.00    +0.019 C 
ATOM      3  C   UNL     1      35.560 -23.814 -15.848  0.00  0.00    +0.068 C 
ATOM      4  C   UNL     1      36.486 -22.239 -17.370  0.00  0.00    +0.003 C 
ATOM      5  C   UNL     1      34.311 -23.158 -17.660  0.00  0.00    +0.098 C 
ATOM      6  C   UNL     1      36.620 -23.001 -16.215  0.00  0.00    +0.015 C 
ENDROOT
BRANCH   2   8
ATOM      7  C   UNL     1      34.814 -20.037 -21.637  0.00  0.00    +0.138 C 
ATOM      8  C   UNL     1      35.142 -21.535 -19.317  0.00  0.00    +0.002 C 
ATOM      9  C   UNL     1      33.699 -20.561 -20.992  0.00  0.00    +0.037 C 
ATOM     10  C   UNL     1      36.093 -20.256 -21.133  0.00  0.00    +0.037 C 
ATOM     11  C   UNL     1      33.863 -21.312 -19.829  0.00  0.00    +0.003 C 
ATOM     12  C   UNL     1      36.256 -21.008 -19.970  0.00  0.00    +0.003 C 
BRANCH   7  13
ATOM     13  O   UNL     1      34.654 -19.299 -22.781  0.00  0.00    -0.478 OA
BRANCH  13  14
ATOM     14  C   UNL     1      35.394 -18.089 -22.872  0.00  0.00    +0.183 C 
BRANCH  14  15
ATOM     15  C   UNL     1      35.628 -17.769 -24.339  0.00  0.00    -0.029 C 
BRANCH  15  17
ATOM     16  O   UNL     1      33.538 -14.139 -24.605  0.00  0.00    -0.358 OA
ATOM     17  N   UNL     1      35.302 -16.373 -24.621  0.00  0.00    +0.393 N 
ATOM     18  C   UNL     1      34.172 -16.279 -25.556  0.00  0.00    -0.044 C 
ATOM     19  C   UNL     1      34.992 -15.647 -23.381  0.00  0.00    -0.044 C 
ATOM     20  C   UNL     1      33.844 -14.814 -25.826  0.00  0.00    +0.119 C 
ATOM     21  C   UNL     1      34.644 -14.197 -23.703  0.00  0.00    +0.119 C 
ATOM     22  H   UNL     1      36.119 -15.943 -25.055  0.00  0.00    -0.079 HD
ENDBRANCH  15  17
ENDBRANCH  14  15
ENDBRANCH  13  14
ENDBRANCH   7  13
ENDBRANCH   2   8
BRANCH   3  23
ATOM     23  C   UNL     1      35.671 -24.646 -14.613  0.00  0.00    +0.131 C 
BRANCH  23  26
ATOM     24  O   UNL     1      34.481 -24.027 -12.596  0.00  0.00    -0.275 OA
ATOM     25  N   UNL     1      33.336 -25.150 -14.274  0.00  0.00    -0.300 N 
ATOM     26  C   UNL     1      34.454 -24.558 -13.704  0.00  0.00    +0.229 C 
ATOM     27  H   UNL     1      33.418 -25.550 -15.170  0.00  0.00    +0.150 HD
BRANCH  25  28
ATOM     28  C   UNL     1      32.056 -25.200 -13.607  0.00  0.00    +0.116 C 
BRANCH  28  29
ATOM     29  C   UNL     1      30.965 -24.591 -14.439  0.00  0.00    -0.003 C 
ATOM     30  C   UNL     1      30.929 -23.214 -14.625  0.00  0.00    -0.003 C 
ATOM     31  C   UNL     1      30.001 -25.411 -15.017  0.00  0.00    -0.003 C 
ATOM     32  C   UNL     1      29.915 -22.648 -15.398  0.00  0.00    -0.000 C 
ATOM     33  C   UNL     1      28.988 -24.845 -15.790  0.00  0.00    -0.000 C 
ATOM     34  C   UNL     1      28.944 -23.463 -15.980  0.00  0.00    -0.000 C 
ENDBRANCH  28  29
ENDBRANCH  25  28
ENDBRANCH  23  26
ENDBRANCH   3  23
TORSDOF 9
ENDMDL
MODEL 4
REMARK VINA RESULT:     -11.2      2.906     11.179
REMARK  Name = 23635314
REMARK  9 active torsions:
REMARK  status: ('A' for Active; 'I' for Inactive)
REMARK    1  A    between atoms: C_2  and  C_8
REMARK    2  A    between atoms: C_3  and  C_23
REMARK    3  A    between atoms: C_7  and  O_13
REMARK    4  A    between atoms: O_13  and  C_14
REMARK    5  A    between atoms: C_14  and  C_15
REMARK    6  A    between atoms: C_15  and  N_17
REMARK    7  A    between atoms: C_23  and  C_26
REMARK    8  A    between atoms: N_25  and  C_28
REMARK    9  A    between atoms: C_28  and  C_29
REMARK                            x       y       z     vdW  Elec       q    Type
REMARK                         _______ _______ _______ _____ _____    ______ ____
ROOT
ATOM      1  N   UNL     1      33.995 -21.226 -20.105  0.00  0.00    -0.248 NA
ATOM      2  C   UNL     1      35.159 -19.793 -21.664  0.00  0.00    +0.019 C 
ATOM      3  C   UNL     1      35.194 -21.515 -19.551  0.00  0.00    +0.068 C 
ATOM      4  C   UNL     1      36.373 -20.115 -21.068  0.00  0.00    +0.003 C 
ATOM      5  C   UNL     1      34.009 -20.369 -21.151  0.00  0.00    +0.098 C 
ATOM      6  C   UNL     1      36.399 -20.992 -19.991  0.00  0.00    +0.015 C 
ENDROOT
BRANCH   2   8
ATOM      7  C   UNL     1      34.983 -17.135 -24.946  0.00  0.00    +0.138 C 
ATOM      8  C   UNL     1      35.098 -18.884 -22.787  0.00  0.00    +0.002 C 
ATOM      9  C   UNL     1      34.524 -18.439 -25.091  0.00  0.00    +0.037 C 
ATOM     10  C   UNL     1      35.500 -16.696 -23.731  0.00  0.00    +0.037 C 
ATOM     11  C   UNL     1      34.582 -19.316 -24.008  0.00  0.00    +0.003 C 
ATOM     12  C   UNL     1      35.557 -17.574 -22.649  0.00  0.00    +0.003 C 
BRANCH   7  13
ATOM     13  O   UNL     1      34.927 -16.273 -26.010  0.00  0.00    -0.478 OA
BRANCH  13  14
ATOM     14  C   UNL     1      33.686 -15.617 -26.238  0.00  0.00    +0.183 C 
BRANCH  14  15
ATOM     15  C   UNL     1      33.957 -14.156 -26.558  0.00  0.00    -0.029 C 
BRANCH  15  17
ATOM     16  O   UNL     1      33.238 -11.599 -23.309  0.00  0.00    -0.358 OA
ATOM     17  N   UNL     1      34.144 -13.385 -25.332  0.00  0.00    +0.393 N 
ATOM     18  C   UNL     1      33.987 -11.947 -25.590  0.00  0.00    -0.044 C 
ATOM     19  C   UNL     1      33.197 -13.816 -24.293  0.00  0.00    -0.044 C 
ATOM     20  C   UNL     1      34.176 -11.164 -24.294  0.00  0.00    +0.119 C 
ATOM     21  C   UNL     1      33.404 -12.990 -23.028  0.00  0.00    +0.119 C 
ATOM     22  H   UNL     1      35.093 -13.554 -24.998  0.00  0.00    -0.079 HD
ENDBRANCH  15  17
ENDBRANCH  14  15
ENDBRANCH  13  14
ENDBRANCH   7  13
ENDBRANCH   2   8
BRANCH   3  23
ATOM     23  C   UNL     1      35.185 -22.461 -18.396  0.00  0.00    +0.131 C 
BRANCH  23  26
ATOM     24  O   UNL     1      33.694 -24.354 -18.639  0.00  0.00    -0.275 OA
ATOM     25  N   UNL     1      32.919 -22.447 -17.566  0.00  0.00    -0.300 N 
ATOM     26  C   UNL     1      33.871 -23.210 -18.227  0.00  0.00    +0.229 C 
ATOM     27  H   UNL     1      33.161 -21.538 -17.275  0.00  0.00    +0.150 HD
BRANCH  25  28
ATOM     28  C   UNL     1      31.588 -22.933 -17.287  0.00  0.00    +0.116 C 
BRANCH  28  29
ATOM     29  C   UNL     1      31.519 -23.656 -15.973  0.00  0.00    -0.003 C 
ATOM     30  C   UNL     1      30.619 -24.702 -15.810  0.00  0.00    -0.003 C 
ATOM     31  C   UNL     1      32.357 -23.272 -14.932  0.00  0.00    -0.003 C 
ATOM     32  C   UNL     1      30.554 -25.374 -14.589  0.00  0.00    -0.000 C 
ATOM     33  C   UNL     1      32.293 -23.944 -13.711  0.00  0.00    -0.000 C 
ATOM     34  C   UNL     1      31.390 -24.995 -13.540  0.00  0.00    -0.000 C 
ENDBRANCH  28  29
ENDBRANCH  25  28
ENDBRANCH  23  26
ENDBRANCH   3  23
TORSDOF 9
ENDMDL
MODEL 5
REMARK VINA RESULT:     -11.1      4.608      7.612
REMARK  Name = 23635314
REMARK  9 active torsions:
REMARK  status: ('A' for Active; 'I' for Inactive)
REMARK    1  A    between atoms: C_2  and  C_8
REMARK    2  A    between atoms: C_3  and  C_23
REMARK    3  A    between atoms: C_7  and  O_13
REMARK    4  A    between atoms: O_13  and  C_14
REMARK    5  A    between atoms: C_14  and  C_15
REMARK    6  A    between atoms: C_15  and  N_17
REMARK    7  A    between atoms: C_23  and  C_26
REMARK    8  A    between atoms: N_25  and  C_28
REMARK    9  A    between atoms: C_28  and  C_29
REMARK                            x       y       z     vdW  Elec       q    Type
REMARK                         _______ _______ _______ _____ _____    ______ ____
ROOT
ATOM      1  N   UNL     1      33.176 -11.069 -23.498  0.00  0.00    -0.248 NA
ATOM      2  C   UNL     1      33.568 -13.290 -22.633  0.00  0.00    +0.019 C 
ATOM      3  C   UNL     1      32.261 -10.901 -22.518  0.00  0.00    +0.068 C 
ATOM      4  C   UNL     1      32.620 -13.081 -21.639  0.00  0.00    +0.003 C 
ATOM      5  C   UNL     1      33.808 -12.263 -23.531  0.00  0.00    +0.098 C 
ATOM      6  C   UNL     1      31.949 -11.866 -21.574  0.00  0.00    +0.015 C 
ENDROOT
BRANCH   2   8
ATOM      7  C   UNL     1      35.658 -16.954 -22.912  0.00  0.00    +0.138 C 
ATOM      8  C   UNL     1      34.283 -14.544 -22.728  0.00  0.00    +0.002 C 
ATOM      9  C   UNL     1      35.300 -16.459 -21.663  0.00  0.00    +0.037 C 
ATOM     10  C   UNL     1      35.336 -16.255 -24.071  0.00  0.00    +0.037 C 
ATOM     11  C   UNL     1      34.610 -15.251 -21.571  0.00  0.00    +0.003 C 
ATOM     12  C   UNL     1      34.646 -15.047 -23.978  0.00  0.00    +0.003 C 
BRANCH   7  13
ATOM     13  O   UNL     1      36.337 -18.141 -23.002  0.00  0.00    -0.478 OA
BRANCH  13  14
ATOM     14  C   UNL     1      35.658 -19.304 -22.544  0.00  0.00    +0.183 C 
BRANCH  14  15
ATOM     15  C   UNL     1      36.316 -19.780 -21.260  0.00  0.00    -0.029 C 
BRANCH  15  17
ATOM     16  O   UNL     1      33.309 -22.284 -19.743  0.00  0.00    -0.358 OA
ATOM     17  N   UNL     1      35.329 -20.377 -20.364  0.00  0.00    +0.393 N 
ATOM     18  C   UNL     1      33.978 -20.281 -20.936  0.00  0.00    -0.044 C 
ATOM     19  C   UNL     1      35.658 -21.781 -20.084  0.00  0.00    -0.044 C 
ATOM     20  C   UNL     1      32.968 -20.919 -19.988  0.00  0.00    +0.119 C 
ATOM     21  C   UNL     1      34.608 -22.385 -19.156  0.00  0.00    +0.119 C 
ATOM     22  H   UNL     1      35.348 -19.856 -19.487  0.00  0.00    -0.079 HD
ENDBRANCH  15  17
ENDBRANCH  14  15
ENDBRANCH  13  14
ENDBRANCH   7  13
ENDBRANCH   2   8
BRANCH   3  23
ATOM     23  C   UNL     1      31.559  -9.584 -22.477  0.00  0.00    +0.131 C 
BRANCH  23  26
ATOM     24  O   UNL     1      32.422  -7.774 -21.118  0.00  0.00    -0.275 OA
ATOM     25  N   UNL     1      33.358  -8.152 -23.209  0.00  0.00    -0.300 N 
ATOM     26  C   UNL     1      32.476  -8.409 -22.169  0.00  0.00    +0.229 C 
ATOM     27  H   UNL     1      33.321  -8.721 -24.012  0.00  0.00    +0.150 HD
BRANCH  25  28
ATOM     28  C   UNL     1      34.329  -7.084 -23.160  0.00  0.00    +0.116 C 
BRANCH  28  29
ATOM     29  C   UNL     1      34.089  -6.058 -24.231  0.00  0.00    -0.003 C 
ATOM     30  C   UNL     1      34.992  -5.936 -25.280  0.00  0.00    -0.003 C 
ATOM     31  C   UNL     1      32.966  -5.242 -24.162  0.00  0.00    -0.003 C 
ATOM     32  C   UNL     1      34.770  -4.984 -26.275  0.00  0.00    -0.000 C 
ATOM     33  C   UNL     1      32.744  -4.289 -25.156  0.00  0.00    -0.000 C 
ATOM     34  C   UNL     1      33.647  -4.160 -26.213  0.00  0.00    -0.000 C 
ENDBRANCH  28  29
ENDBRANCH  25  28
ENDBRANCH  23  26
ENDBRANCH   3  23
TORSDOF 9
ENDMDL
MODEL 6
REMARK VINA RESULT:     -11.0      2.385     11.896
REMARK  Name = 23635314
REMARK  9 active torsions:
REMARK  status: ('A' for Active; 'I' for Inactive)
REMARK    1  A    between atoms: C_2  and  C_8
REMARK    2  A    between atoms: C_3  and  C_23
REMARK    3  A    between atoms: C_7  and  O_13
REMARK    4  A    between atoms: O_13  and  C_14
REMARK    5  A    between atoms: C_14  and  C_15
REMARK    6  A    between atoms: C_15  and  N_17
REMARK    7  A    between atoms: C_23  and  C_26
REMARK    8  A    between atoms: N_25  and  C_28
REMARK    9  A    between atoms: C_28  and  C_29
REMARK                            x       y       z     vdW  Elec       q    Type
REMARK                         _______ _______ _______ _____ _____    ______ ____
ROOT
ATOM      1  N   UNL     1      34.968 -23.611 -15.885  0.00  0.00    -0.248 NA
ATOM      2  C   UNL     1      34.171 -22.554 -17.905  0.00  0.00    +0.019 C 
ATOM      3  C   UNL     1      33.686 -23.940 -15.609  0.00  0.00    +0.068 C 
ATOM      4  C   UNL     1      32.866 -22.910 -17.588  0.00  0.00    +0.003 C 
ATOM      5  C   UNL     1      35.178 -22.925 -17.030  0.00  0.00    +0.098 C 
ATOM      6  C   UNL     1      32.610 -23.616 -16.419  0.00  0.00    +0.015 C 
ENDROOT
BRANCH   2   8
ATOM      7  C   UNL     1      35.045 -20.407 -21.440  0.00  0.00    +0.138 C 
ATOM      8  C   UNL     1      34.470 -21.819 -19.115  0.00  0.00    +0.002 C 
ATOM      9  C   UNL     1      33.724 -20.544 -21.027  0.00  0.00    +0.037 C 
ATOM     10  C   UNL     1      36.081 -20.969 -20.702  0.00  0.00    +0.037 C 
ATOM     11  C   UNL     1      33.436 -21.252 -19.860  0.00  0.00    +0.003 C 
ATOM     12  C   UNL     1      35.792 -21.678 -19.536  0.00  0.00    +0.003 C 
BRANCH   7  13
ATOM     13  O   UNL     1      35.328 -19.711 -22.586  0.00  0.00    -0.478 OA
BRANCH  13  14
ATOM     14  C   UNL     1      35.049 -18.317 -22.575  0.00  0.00    +0.183 C 
BRANCH  14  15
ATOM     15  C   UNL     1      36.187 -17.585 -23.267  0.00  0.00    -0.029 C 
BRANCH  15  17
ATOM     16  O   UNL     1      33.576 -14.797 -25.007  0.00  0.00    -0.358 OA
ATOM     17  N   UNL     1      35.678 -16.459 -24.047  0.00  0.00    +0.393 N 
ATOM     18  C   UNL     1      34.745 -16.921 -25.084  0.00  0.00    -0.044 C 
ATOM     19  C   UNL     1      35.017 -15.476 -23.177  0.00  0.00    -0.044 C 
ATOM     20  C   UNL     1      34.220 -15.728 -25.877  0.00  0.00    +0.119 C 
ATOM     21  C   UNL     1      34.485 -14.318 -24.015  0.00  0.00    +0.119 C 
ATOM     22  H   UNL     1      36.473 -16.010 -24.502  0.00  0.00    -0.079 HD
ENDBRANCH  15  17
ENDBRANCH  14  15
ENDBRANCH  13  14
ENDBRANCH   7  13
ENDBRANCH   2   8
BRANCH   3  23
ATOM     23  C   UNL     1      33.448 -24.698 -14.345  0.00  0.00    +0.131 C 
BRANCH  23  26
ATOM     24  O   UNL     1      34.531 -23.859 -12.347  0.00  0.00    -0.275 OA
ATOM     25  N   UNL     1      35.665 -25.383 -13.681  0.00  0.00    -0.300 N 
ATOM     26  C   UNL     1      34.583 -24.583 -13.338  0.00  0.00    +0.229 C 
ATOM     27  H   UNL     1      35.608 -25.929 -14.499  0.00  0.00    +0.150 HD
BRANCH  25  28
ATOM     28  C   UNL     1      36.869 -25.447 -12.886  0.00  0.00    +0.116 C 
BRANCH  28  29
ATOM     29  C   UNL     1      38.105 -25.354 -13.733  0.00  0.00    -0.003 C 
ATOM     30  C   UNL     1      39.256 -26.030 -13.345  0.00  0.00    -0.003 C 
ATOM     31  C   UNL     1      38.087 -24.593 -14.896  0.00  0.00    -0.003 C 
ATOM     32  C   UNL     1      40.405 -25.943 -14.131  0.00  0.00    -0.000 C 
ATOM     33  C   UNL     1      39.236 -24.507 -15.683  0.00  0.00    -0.000 C 
ATOM     34  C   UNL     1      40.396 -25.182 -15.299  0.00  0.00    -0.000 C 
ENDBRANCH  28  29
ENDBRANCH  25  28
ENDBRANCH  23  26
ENDBRANCH   3  23
TORSDOF 9
ENDMDL
MODEL 7
REMARK VINA RESULT:     -10.9      1.898     11.237
REMARK  Name = 23635314
REMARK  9 active torsions:
REMARK  status: ('A' for Active; 'I' for Inactive)
REMARK    1  A    between atoms: C_2  and  C_8
REMARK    2  A    between atoms: C_3  and  C_23
REMARK    3  A    between atoms: C_7  and  O_13
REMARK    4  A    between atoms: O_13  and  C_14
REMARK    5  A    between atoms: C_14  and  C_15
REMARK    6  A    between atoms: C_15  and  N_17
REMARK    7  A    between atoms: C_23  and  C_26
REMARK    8  A    between atoms: N_25  and  C_28
REMARK    9  A    between atoms: C_28  and  C_29
REMARK                            x       y       z     vdW  Elec       q    Type
REMARK                         _______ _______ _______ _____ _____    ______ ____
ROOT
ATOM      1  N   UNL     1      35.835 -22.104 -19.216  0.00  0.00    -0.248 NA
ATOM      2  C   UNL     1      34.839 -20.514 -20.738  0.00  0.00    +0.019 C 
ATOM      3  C   UNL     1      34.586 -22.431 -18.817  0.00  0.00    +0.068 C 
ATOM      4  C   UNL     1      33.571 -20.876 -20.302  0.00  0.00    +0.003 C 
ATOM      5  C   UNL     1      35.930 -21.151 -20.171  0.00  0.00    +0.098 C 
ATOM      6  C   UNL     1      33.433 -21.852 -19.322  0.00  0.00    +0.015 C 
ENDROOT
BRANCH   2   8
ATOM      7  C   UNL     1      35.357 -17.555 -23.712  0.00  0.00    +0.138 C 
ATOM      8  C   UNL     1      35.016 -19.502 -21.756  0.00  0.00    +0.002 C 
ATOM      9  C   UNL     1      34.833 -18.795 -24.059  0.00  0.00    +0.037 C 
ATOM     10  C   UNL     1      35.713 -17.278 -22.396  0.00  0.00    +0.037 C 
ATOM     11  C   UNL     1      34.662 -19.771 -23.078  0.00  0.00    +0.003 C 
ATOM     12  C   UNL     1      35.542 -18.255 -21.416  0.00  0.00    +0.003 C 
BRANCH   7  13
ATOM     13  O   UNL     1      35.525 -16.596 -24.677  0.00  0.00    -0.478 OA
BRANCH  13  14
ATOM     14  C   UNL     1      34.482 -15.641 -24.819  0.00  0.00    +0.183 C 
BRANCH  14  15
ATOM     15  C   UNL     1      34.812 -14.425 -23.969  0.00  0.00    -0.029 C 
BRANCH  15  17
ATOM     16  O   UNL     1      32.544 -12.674 -20.902  0.00  0.00    -0.358 OA
ATOM     17  N   UNL     1      33.704 -14.107 -23.071  0.00  0.00    +0.393 N 
ATOM     18  C   UNL     1      34.061 -14.402 -21.676  0.00  0.00    -0.044 C 
ATOM     19  C   UNL     1      33.313 -12.696 -23.203  0.00  0.00    -0.044 C 
ATOM     20  C   UNL     1      32.894 -14.052 -20.758  0.00  0.00    +0.119 C 
ATOM     21  C   UNL     1      32.165 -12.385 -22.248  0.00  0.00    +0.119 C 
ATOM     22  H   UNL     1      32.911 -14.691 -23.335  0.00  0.00    -0.079 HD
ENDBRANCH  15  17
ENDBRANCH  14  15
ENDBRANCH  13  14
ENDBRANCH   7  13
ENDBRANCH   2   8
BRANCH   3  23
ATOM     23  C   UNL     1      34.475 -23.482 -17.763  0.00  0.00    +0.131 C 
BRANCH  23  26
ATOM     24  O   UNL     1      34.416 -22.784 -15.444  0.00  0.00    -0.275 OA
ATOM     25  N   UNL     1      36.475 -23.087 -16.472  0.00  0.00    -0.300 N 
ATOM     26  C   UNL     1      35.088 -23.080 -16.429  0.00  0.00    +0.229 C 
ATOM     27  H   UNL     1      36.921 -23.341 -17.313  0.00  0.00    +0.150 HD
BRANCH  25  28
ATOM     28  C   UNL     1      37.291 -22.739 -15.332  0.00  0.00    +0.116 C 
BRANCH  28  29
ATOM     29  C   UNL     1      37.515 -23.913 -14.423  0.00  0.00    -0.003 C 
ATOM     30  C   UNL     1      37.332 -23.765 -13.053  0.00  0.00    -0.003 C 
ATOM     31  C   UNL     1      37.902 -25.135 -14.960  0.00  0.00    -0.003 C 
ATOM     32  C   UNL     1      37.540 -24.855 -12.207  0.00  0.00    -0.000 C 
ATOM     33  C   UNL     1      38.110 -26.225 -14.115  0.00  0.00    -0.000 C 
ATOM     34  C   UNL     1      37.930 -26.085 -12.738  0.00  0.00    -0.000 C 
ENDBRANCH  28  29
ENDBRANCH  25  28
ENDBRANCH  23  26
ENDBRANCH   3  23
TORSDOF 9
ENDMDL
MODEL 8
REMARK VINA RESULT:     -10.5      3.333      4.609
REMARK  Name = 23635314
REMARK  9 active torsions:
REMARK  status: ('A' for Active; 'I' for Inactive)
REMARK    1  A    between atoms: C_2  and  C_8
REMARK    2  A    between atoms: C_3  and  C_23
REMARK    3  A    between atoms: C_7  and  O_13
REMARK    4  A    between atoms: O_13  and  C_14
REMARK    5  A    between atoms: C_14  and  C_15
REMARK    6  A    between atoms: C_15  and  N_17
REMARK    7  A    between atoms: C_23  and  C_26
REMARK    8  A    between atoms: N_25  and  C_28
REMARK    9  A    between atoms: C_28  and  C_29
REMARK                            x       y       z     vdW  Elec       q    Type
REMARK                         _______ _______ _______ _____ _____    ______ ____
ROOT
ATOM      1  N   UNL     1      33.801 -20.147 -21.638  0.00  0.00    -0.248 NA
ATOM      2  C   UNL     1      34.760 -21.379 -19.794  0.00  0.00    +0.019 C 
ATOM      3  C   UNL     1      35.060 -19.851 -22.032  0.00  0.00    +0.068 C 
ATOM      4  C   UNL     1      36.039 -21.053 -20.229  0.00  0.00    +0.003 C 
ATOM      5  C   UNL     1      33.683 -20.907 -20.526  0.00  0.00    +0.098 C 
ATOM      6  C   UNL     1      36.200 -20.274 -21.369  0.00  0.00    +0.015 C 
ENDROOT
BRANCH   2   8
ATOM      7  C   UNL     1      34.170 -23.742 -16.339  0.00  0.00    +0.138 C 
ATOM      8  C   UNL     1      34.558 -22.187 -18.612  0.00  0.00    +0.002 C 
ATOM      9  C   UNL     1      35.397 -23.122 -16.548  0.00  0.00    +0.037 C 
ATOM     10  C   UNL     1      33.135 -23.593 -17.257  0.00  0.00    +0.037 C 
ATOM     11  C   UNL     1      35.591 -22.342 -17.688  0.00  0.00    +0.003 C 
ATOM     12  C   UNL     1      33.331 -22.814 -18.396  0.00  0.00    +0.003 C 
BRANCH   7  13
ATOM     13  O   UNL     1      33.979 -24.509 -15.220  0.00  0.00    -0.478 OA
BRANCH  13  14
ATOM     14  C   UNL     1      33.150 -23.963 -14.203  0.00  0.00    +0.183 C 
BRANCH  14  15
ATOM     15  C   UNL     1      32.049 -24.960 -13.881  0.00  0.00    -0.029 C 
BRANCH  15  17
ATOM     16  O   UNL     1      29.133 -23.377 -16.451  0.00  0.00    -0.358 OA
ATOM     17  N   UNL     1      30.766 -24.502 -14.409  0.00  0.00    +0.393 N 
ATOM     18  C   UNL     1      30.815 -23.069 -14.729  0.00  0.00    -0.044 C 
ATOM     19  C   UNL     1      30.387 -25.272 -15.602  0.00  0.00    -0.044 C 
ATOM     20  C   UNL     1      29.469 -22.617 -15.288  0.00  0.00    +0.119 C 
ATOM     21  C   UNL     1      29.052 -24.769 -16.141  0.00  0.00    +0.119 C 
ATOM     22  H   UNL     1      30.061 -24.651 -13.687  0.00  0.00    -0.079 HD
ENDBRANCH  15  17
ENDBRANCH  14  15
ENDBRANCH  13  14
ENDBRANCH   7  13
ENDBRANCH   2   8
BRANCH   3  23
ATOM     23  C   UNL     1      35.196 -19.012 -23.259  0.00  0.00    +0.131 C 
BRANCH  23  26
ATOM     24  O   UNL     1      36.545 -17.322 -22.167  0.00  0.00    -0.275 OA
ATOM     25  N   UNL     1      34.980 -16.659 -23.749  0.00  0.00    -0.300 N 
ATOM     26  C   UNL     1      35.665 -17.591 -22.982  0.00  0.00    +0.229 C 
ATOM     27  H   UNL     1      34.290 -16.978 -24.375  0.00  0.00    +0.150 HD
BRANCH  25  28
ATOM     28  C   UNL     1      35.239 -15.241 -23.666  0.00  0.00    +0.116 C 
BRANCH  28  29
ATOM     29  C   UNL     1      34.248 -14.540 -22.783  0.00  0.00    -0.003 C 
ATOM     30  C   UNL     1      33.370 -13.615 -23.334  0.00  0.00    -0.003 C 
ATOM     31  C   UNL     1      34.219 -14.824 -21.422  0.00  0.00    -0.003 C 
ATOM     32  C   UNL     1      32.449 -12.963 -22.514  0.00  0.00    -0.000 C 
ATOM     33  C   UNL     1      33.298 -14.172 -20.601  0.00  0.00    -0.000 C 
ATOM     34  C   UNL     1      32.413 -13.241 -21.148  0.00  0.00    -0.000 C 
ENDBRANCH  28  29
ENDBRANCH  25  28
ENDBRANCH  23  26
ENDBRANCH   3  23
TORSDOF 9
ENDMDL
MODEL 9
REMARK VINA RESULT:     -10.5      1.728      2.617
REMARK  Name = 23635314
REMARK  9 active torsions:
REMARK  status: ('A' for Active; 'I' for Inactive)
REMARK    1  A    between atoms: C_2  and  C_8
REMARK    2  A    between atoms: C_3  and  C_23
REMARK    3  A    between atoms: C_7  and  O_13
REMARK    4  A    between atoms: O_13  and  C_14
REMARK    5  A    between atoms: C_14  and  C_15
REMARK    6  A    between atoms: C_15  and  N_17
REMARK    7  A    between atoms: C_23  and  C_26
REMARK    8  A    between atoms: N_25  and  C_28
REMARK    9  A    between atoms: C_28  and  C_29
REMARK                            x       y       z     vdW  Elec       q    Type
REMARK                         _______ _______ _______ _____ _____    ______ ____
ROOT
ATOM      1  N   UNL     1      34.940 -15.681 -24.148  0.00  0.00    -0.248 NA
ATOM      2  C   UNL     1      35.225 -17.952 -23.375  0.00  0.00    +0.019 C 
ATOM      3  C   UNL     1      34.398 -16.185 -25.279  0.00  0.00    +0.068 C 
ATOM      4  C   UNL     1      34.663 -18.433 -24.551  0.00  0.00    +0.003 C 
ATOM      5  C   UNL     1      35.340 -16.580 -23.221  0.00  0.00    +0.098 C 
ATOM      6  C   UNL     1      34.240 -17.539 -25.527  0.00  0.00    +0.015 C 
ENDROOT
BRANCH   2   8
ATOM      7  C   UNL     1      36.542 -20.595 -20.350  0.00  0.00    +0.138 C 
ATOM      8  C   UNL     1      35.675 -18.857 -22.340  0.00  0.00    +0.002 C 
ATOM      9  C   UNL     1      35.242 -20.693 -20.832  0.00  0.00    +0.037 C 
ATOM     10  C   UNL     1      37.414 -19.635 -20.853  0.00  0.00    +0.037 C 
ATOM     11  C   UNL     1      34.807 -19.822 -21.830  0.00  0.00    +0.003 C 
ATOM     12  C   UNL     1      36.978 -18.764 -21.851  0.00  0.00    +0.003 C 
BRANCH   7  13
ATOM     13  O   UNL     1      36.969 -21.451 -19.369  0.00  0.00    -0.478 OA
BRANCH  13  14
ATOM     14  C   UNL     1      35.989 -21.907 -18.445  0.00  0.00    +0.183 C 
BRANCH  14  15
ATOM     15  C   UNL     1      36.679 -22.270 -17.141  0.00  0.00    -0.029 C 
BRANCH  15  17
ATOM     16  O   UNL     1      33.994 -24.579 -14.887  0.00  0.00    -0.358 OA
ATOM     17  N   UNL     1      35.700 -22.670 -16.133  0.00  0.00    +0.393 N 
ATOM     18  C   UNL     1      34.449 -23.111 -16.765  0.00  0.00    -0.044 C 
ATOM     19  C   UNL     1      36.236 -23.739 -15.278  0.00  0.00    -0.044 C 
ATOM     20  C   UNL     1      33.448 -23.534 -15.694  0.00  0.00    +0.119 C 
ATOM     21  C   UNL     1      35.194 -24.148 -14.243  0.00  0.00    +0.119 C 
ATOM     22  H   UNL     1      35.501 -21.857 -15.550  0.00  0.00    -0.079 HD
ENDBRANCH  15  17
ENDBRANCH  14  15
ENDBRANCH  13  14
ENDBRANCH   7  13
ENDBRANCH   2   8
BRANCH   3  23
ATOM     23  C   UNL     1      33.955 -15.197 -26.306  0.00  0.00    +0.131 C 
BRANCH  23  26
ATOM     24  O   UNL     1      34.163 -12.787 -26.427  0.00  0.00    -0.275 OA
ATOM     25  N   UNL     1      33.317 -13.743 -24.488  0.00  0.00    -0.300 N 
ATOM     26  C   UNL     1      33.833 -13.775 -25.776  0.00  0.00    +0.229 C 
ATOM     27  H   UNL     1      33.082 -14.594 -24.052  0.00  0.00    +0.150 HD
BRANCH  25  28
ATOM     28  C   UNL     1      33.109 -12.511 -23.764  0.00  0.00    +0.116 C 
BRANCH  28  29
ATOM     29  C   UNL     1      32.762 -12.759 -22.324  0.00  0.00    -0.003 C 
ATOM     30  C   UNL     1      33.152 -13.948 -21.718  0.00  0.00    -0.003 C 
ATOM     31  C   UNL     1      32.055 -11.797 -21.611  0.00  0.00    -0.003 C 
ATOM     32  C   UNL     1      32.830 -14.178 -20.380  0.00  0.00    -0.000 C 
ATOM     33  C   UNL     1      31.734 -12.028 -20.274  0.00  0.00    -0.000 C 
ATOM     34  C   UNL     1      32.120 -13.219 -19.658  0.00  0.00    -0.000 C 
ENDBRANCH  28  29
ENDBRANCH  25  28
ENDBRANCH  23  26
ENDBRANCH   3  23
TORSDOF 9
ENDMDL
