MODEL 1
REMARK VINA RESULT:     -11.9      0.000      0.000
REMARK  Name = 4566
REMARK  6 active torsions:
REMARK  status: ('A' for Active; 'I' for Inactive)
REMARK    1  A    between atoms: N_4  and  C_14
REMARK    2  A    between atoms: C_6  and  O_26
REMARK    3  A    between atoms: C_15  and  S_20
REMARK    4  A    between atoms: S_20  and  N_23
REMARK    5  A    between atoms: O_26  and  C_27
REMARK    6  A    between atoms: C_27  and  C_28
REMARK                            x       y       z     vdW  Elec       q    Type
REMARK                         _______ _______ _______ _____ _____    ______ ____
ROOT
ATOM      1  N   UNL     1      34.121 -23.876 -16.208  0.00  0.00    -0.293 NA
ATOM      2  N   UNL     1      30.733 -22.801 -17.154  0.00  0.00    -0.266 NA
ATOM      3  N   UNL     1      32.443 -24.227 -14.473  0.00  0.00    -0.316 NA
ATOM      4  N   UNL     1      34.681 -24.820 -14.140  0.00  0.00    -0.238 N 
ATOM      5  N   UNL     1      30.207 -23.512 -15.108  0.00  0.00    -0.296 N 
ATOM      6  C   UNL     1      33.203 -23.351 -17.050  0.00  0.00    +0.288 C 
ATOM      7  C   UNL     1      31.899 -23.259 -16.609  0.00  0.00    +0.215 C 
ATOM      8  C   UNL     1      31.546 -23.696 -15.339  0.00  0.00    +0.196 C 
ATOM      9  C   UNL     1      33.690 -24.276 -14.988  0.00  0.00    +0.207 C 
ATOM     10  C   UNL     1      29.748 -22.973 -16.217  0.00  0.00    +0.164 C 
ATOM     11  H   UNL     1      30.621 -22.418 -18.054  0.00  0.00    +0.126 HD
ATOM     12  H   UNL     1      34.338 -25.103 -13.261  0.00  0.00    +0.166 HD
ATOM     13  H   UNL     1      29.702 -23.735 -14.293  0.00  0.00    +0.150 HD
ENDROOT
BRANCH   4  14
ATOM     14  C   UNL     1      36.060 -25.037 -14.306  0.00  0.00    +0.059 C 
ATOM     15  C   UNL     1      38.802 -25.466 -14.632  0.00  0.00    +0.122 C 
ATOM     16  C   UNL     1      36.516 -26.142 -15.027  0.00  0.00    +0.017 C 
ATOM     17  C   UNL     1      36.982 -24.146 -13.748  0.00  0.00    +0.017 C 
ATOM     18  C   UNL     1      37.884 -26.357 -15.191  0.00  0.00    +0.021 C 
ATOM     19  C   UNL     1      38.351 -24.362 -13.912  0.00  0.00    +0.021 C 
BRANCH  15  20
ATOM     20  S   UNL     1      40.515 -25.736 -14.837  0.00  0.00    +0.057 S 
ATOM     21  O   UNL     1      41.214 -24.493 -14.542  0.00  0.00    -0.153 OA
ATOM     22  O   UNL     1      40.878 -26.956 -14.129  0.00  0.00    -0.153 OA
BRANCH  20  23
ATOM     23  N   UNL     1      40.600 -26.032 -16.517  0.00  0.00    -0.203 NA
ATOM     24  H   UNL     1      40.821 -25.164 -17.005  0.00  0.00    +0.144 HD
ATOM     25  H   UNL     1      39.701 -26.386 -16.846  0.00  0.00    +0.144 HD
ENDBRANCH  20  23
ENDBRANCH  15  20
ENDBRANCH   4  14
BRANCH   6  26
ATOM     26  O   UNL     1      33.608 -22.934 -18.294  0.00  0.00    -0.453 OA
BRANCH  26  27
ATOM     27  C   UNL     1      34.965 -22.559 -18.437  0.00  0.00    +0.208 C 
BRANCH  27  28
ATOM     28  C   UNL     1      35.126 -21.826 -19.768  0.00  0.00    +0.044 C 
ATOM     29  C   UNL     1      33.878 -20.991 -20.083  0.00  0.00    +0.004 C 
ATOM     30  C   UNL     1      36.383 -20.945 -19.752  0.00  0.00    +0.004 C 
ATOM     31  C   UNL     1      34.036 -20.206 -21.383  0.00  0.00    +0.000 C 
ATOM     32  C   UNL     1      36.537 -20.160 -21.053  0.00  0.00    +0.000 C 
ATOM     33  C   UNL     1      35.291 -19.338 -21.366  0.00  0.00    +0.000 C 
ENDBRANCH  27  28
ENDBRANCH  26  27
ENDBRANCH   6  26
TORSDOF 6
ENDMDL
MODEL 2
REMARK VINA RESULT:     -11.3      3.340      7.000
REMARK  Name = 4566
REMARK  6 active torsions:
REMARK  status: ('A' for Active; 'I' for Inactive)
REMARK    1  A    between atoms: N_4  and  C_14
REMARK    2  A    between atoms: C_6  and  O_26
REMARK    3  A    between atoms: C_15  and  S_20
REMARK    4  A    between atoms: S_20  and  N_23
REMARK    5  A    between atoms: O_26  and  C_27
REMARK    6  A    between atoms: C_27  and  C_28
REMARK                            x       y       z     vdW  Elec       q    Type
REMARK                         _______ _______ _______ _____ _____    ______ ____
ROOT
ATOM      1  N   UNL     1      34.896 -24.068 -14.638  0.00  0.00    -0.293 NA
ATOM      2  N   UNL     1      38.432 -24.331 -13.659  0.00  0.00    -0.266 NA
ATOM      3  N   UNL     1      35.242 -24.586 -12.279  0.00  0.00    -0.316 NA
ATOM      4  N   UNL     1      33.093 -24.361 -13.174  0.00  0.00    -0.238 N 
ATOM      5  N   UNL     1      37.583 -24.758 -11.643  0.00  0.00    -0.296 N 
ATOM      6  C   UNL     1      36.227 -24.036 -14.870  0.00  0.00    +0.288 C 
ATOM      7  C   UNL     1      37.075 -24.279 -13.809  0.00  0.00    +0.215 C 
ATOM      8  C   UNL     1      36.570 -24.547 -12.544  0.00  0.00    +0.196 C 
ATOM      9  C   UNL     1      34.492 -24.338 -13.374  0.00  0.00    +0.207 C 
ATOM     10  C   UNL     1      38.688 -24.622 -12.344  0.00  0.00    +0.164 C 
ATOM     11  H   UNL     1      39.103 -24.187 -14.365  0.00  0.00    +0.126 HD
ATOM     12  H   UNL     1      32.828 -24.558 -12.246  0.00  0.00    +0.166 HD
ATOM     13  H   UNL     1      37.500 -24.965 -10.684  0.00  0.00    +0.150 HD
ENDROOT
BRANCH   4  14
ATOM     14  C   UNL     1      32.005 -24.157 -14.041  0.00  0.00    +0.059 C 
ATOM     15  C   UNL     1      29.844 -23.752 -15.765  0.00  0.00    +0.122 C 
ATOM     16  C   UNL     1      31.081 -25.181 -14.261  0.00  0.00    +0.017 C 
ATOM     17  C   UNL     1      31.844 -22.929 -14.688  0.00  0.00    +0.017 C 
ATOM     18  C   UNL     1      30.002 -24.980 -15.122  0.00  0.00    +0.021 C 
ATOM     19  C   UNL     1      30.764 -22.727 -15.549  0.00  0.00    +0.021 C 
BRANCH  15  20
ATOM     20  S   UNL     1      28.494 -23.499 -16.844  0.00  0.00    +0.057 S 
ATOM     21  O   UNL     1      28.824 -22.404 -17.745  0.00  0.00    -0.153 OA
ATOM     22  O   UNL     1      28.090 -24.788 -17.388  0.00  0.00    -0.153 OA
BRANCH  20  23
ATOM     23  N   UNL     1      27.296 -22.969 -15.747  0.00  0.00    -0.203 NA
ATOM     24  H   UNL     1      27.300 -23.571 -14.923  0.00  0.00    +0.144 HD
ATOM     25  H   UNL     1      26.381 -23.014 -16.195  0.00  0.00    +0.144 HD
ENDBRANCH  20  23
ENDBRANCH  15  20
ENDBRANCH   4  14
BRANCH   6  26
ATOM     26  O   UNL     1      36.671 -23.767 -16.141  0.00  0.00    -0.453 OA
BRANCH  26  27
ATOM     27  C   UNL     1      36.517 -22.441 -16.610  0.00  0.00    +0.208 C 
BRANCH  27  28
ATOM     28  C   UNL     1      35.961 -22.491 -18.031  0.00  0.00    +0.044 C 
ATOM     29  C   UNL     1      34.426 -22.497 -18.014  0.00  0.00    +0.004 C 
ATOM     30  C   UNL     1      36.493 -21.316 -18.863  0.00  0.00    +0.004 C 
ATOM     31  C   UNL     1      33.845 -22.493 -19.426  0.00  0.00    +0.000 C 
ATOM     32  C   UNL     1      35.908 -21.314 -20.274  0.00  0.00    +0.000 C 
ATOM     33  C   UNL     1      34.383 -21.329 -20.252  0.00  0.00    +0.000 C 
ENDBRANCH  27  28
ENDBRANCH  26  27
ENDBRANCH   6  26
TORSDOF 6
ENDMDL
MODEL 3
REMARK VINA RESULT:     -11.2      1.673      2.331
REMARK  Name = 4566
REMARK  6 active torsions:
REMARK  status: ('A' for Active; 'I' for Inactive)
REMARK    1  A    between atoms: N_4  and  C_14
REMARK    2  A    between atoms: C_6  and  O_26
REMARK    3  A    between atoms: C_15  and  S_20
REMARK    4  A    between atoms: S_20  and  N_23
REMARK    5  A    between atoms: O_26  and  C_27
REMARK    6  A    between atoms: C_27  and  C_28
REMARK                            x       y       z     vdW  Elec       q    Type
REMARK                         _______ _______ _______ _____ _____    ______ ____
ROOT
ATOM      1  N   UNL     1      32.437 -23.388 -15.988  0.00  0.00    -0.293 NA
ATOM      2  N   UNL     1      29.166 -22.509 -17.421  0.00  0.00    -0.266 NA
ATOM      3  N   UNL     1      30.567 -23.658 -14.445  0.00  0.00    -0.316 NA
ATOM      4  N   UNL     1      32.760 -24.145 -13.796  0.00  0.00    -0.238 N 
ATOM      5  N   UNL     1      28.410 -23.073 -15.403  0.00  0.00    -0.296 N 
ATOM      6  C   UNL     1      31.617 -22.963 -16.974  0.00  0.00    +0.288 C 
ATOM      7  C   UNL     1      30.267 -22.882 -16.703  0.00  0.00    +0.215 C 
ATOM      8  C   UNL     1      29.771 -23.228 -15.454  0.00  0.00    +0.196 C 
ATOM      9  C   UNL     1      31.868 -23.705 -14.800  0.00  0.00    +0.207 C 
ATOM     10  C   UNL     1      28.077 -22.640 -16.599  0.00  0.00    +0.164 C 
ATOM     11  H   UNL     1      29.156 -22.202 -18.357  0.00  0.00    +0.126 HD
ATOM     12  H   UNL     1      32.319 -24.369 -12.944  0.00  0.00    +0.166 HD
ATOM     13  H   UNL     1      27.813 -23.248 -14.639  0.00  0.00    +0.150 HD
ENDROOT
BRANCH   4  14
ATOM     14  C   UNL     1      34.154 -24.326 -13.775  0.00  0.00    +0.059 C 
ATOM     15  C   UNL     1      36.925 -24.689 -13.732  0.00  0.00    +0.122 C 
ATOM     16  C   UNL     1      34.898 -24.194 -14.950  0.00  0.00    +0.017 C 
ATOM     17  C   UNL     1      34.803 -24.642 -12.578  0.00  0.00    +0.017 C 
ATOM     18  C   UNL     1      36.281 -24.374 -14.930  0.00  0.00    +0.021 C 
ATOM     19  C   UNL     1      36.187 -24.823 -12.558  0.00  0.00    +0.021 C 
BRANCH  15  20
ATOM     20  S   UNL     1      38.656 -24.916 -13.707  0.00  0.00    +0.057 S 
ATOM     21  O   UNL     1      38.933 -26.304 -13.362  0.00  0.00    -0.153 OA
ATOM     22  O   UNL     1      39.214 -24.348 -14.926  0.00  0.00    -0.153 OA
BRANCH  20  23
ATOM     23  N   UNL     1      39.095 -23.922 -12.389  0.00  0.00    -0.203 NA
ATOM     24  H   UNL     1      40.062 -24.114 -12.125  0.00  0.00    +0.144 HD
ATOM     25  H   UNL     1      38.483 -24.117 -11.597  0.00  0.00    +0.144 HD
ENDBRANCH  20  23
ENDBRANCH  15  20
ENDBRANCH   4  14
BRANCH   6  26
ATOM     26  O   UNL     1      32.162 -22.633 -18.191  0.00  0.00    -0.453 OA
BRANCH  26  27
ATOM     27  C   UNL     1      33.518 -22.977 -18.404  0.00  0.00    +0.208 C 
BRANCH  27  28
ATOM     28  C   UNL     1      34.235 -21.769 -19.005  0.00  0.00    +0.044 C 
ATOM     29  C   UNL     1      35.682 -22.124 -19.371  0.00  0.00    +0.004 C 
ATOM     30  C   UNL     1      33.474 -21.243 -20.230  0.00  0.00    +0.004 C 
ATOM     31  C   UNL     1      36.404 -20.947 -20.024  0.00  0.00    +0.000 C 
ATOM     32  C   UNL     1      34.200 -20.067 -20.882  0.00  0.00    +0.000 C 
ATOM     33  C   UNL     1      35.641 -20.422 -21.237  0.00  0.00    +0.000 C 
ENDBRANCH  27  28
ENDBRANCH  26  27
ENDBRANCH   6  26
TORSDOF 6
ENDMDL
MODEL 4
REMARK VINA RESULT:     -11.0      3.434      7.326
REMARK  Name = 4566
REMARK  6 active torsions:
REMARK  status: ('A' for Active; 'I' for Inactive)
REMARK    1  A    between atoms: N_4  and  C_14
REMARK    2  A    between atoms: C_6  and  O_26
REMARK    3  A    between atoms: C_15  and  S_20
REMARK    4  A    between atoms: S_20  and  N_23
REMARK    5  A    between atoms: O_26  and  C_27
REMARK    6  A    between atoms: C_27  and  C_28
REMARK                            x       y       z     vdW  Elec       q    Type
REMARK                         _______ _______ _______ _____ _____    ______ ____
ROOT
ATOM      1  N   UNL     1      34.125 -22.782 -16.793  0.00  0.00    -0.293 NA
ATOM      2  N   UNL     1      33.147 -24.738 -13.836  0.00  0.00    -0.266 NA
ATOM      3  N   UNL     1      31.899 -23.769 -16.942  0.00  0.00    -0.316 NA
ATOM      4  N   UNL     1      32.776 -22.476 -18.682  0.00  0.00    -0.238 N 
ATOM      5  N   UNL     1      31.263 -25.061 -14.982  0.00  0.00    -0.296 N 
ATOM      6  C   UNL     1      34.322 -23.306 -15.563  0.00  0.00    +0.288 C 
ATOM      7  C   UNL     1      33.310 -24.066 -15.014  0.00  0.00    +0.215 C 
ATOM      8  C   UNL     1      32.127 -24.281 -15.708  0.00  0.00    +0.196 C 
ATOM      9  C   UNL     1      32.942 -23.043 -17.398  0.00  0.00    +0.207 C 
ATOM     10  C   UNL     1      31.906 -25.317 -13.863  0.00  0.00    +0.164 C 
ATOM     11  H   UNL     1      33.801 -24.795 -13.102  0.00  0.00    +0.126 HD
ATOM     12  H   UNL     1      31.906 -22.681 -19.097  0.00  0.00    +0.166 HD
ATOM     13  H   UNL     1      30.362 -25.360 -15.241  0.00  0.00    +0.150 HD
ENDROOT
BRANCH   4  14
ATOM     14  C   UNL     1      33.610 -21.675 -19.483  0.00  0.00    +0.059 C 
ATOM     15  C   UNL     1      35.265 -20.082 -21.073  0.00  0.00    +0.122 C 
ATOM     16  C   UNL     1      34.992 -21.871 -19.473  0.00  0.00    +0.017 C 
ATOM     17  C   UNL     1      33.058 -20.677 -20.292  0.00  0.00    +0.017 C 
ATOM     18  C   UNL     1      35.819 -21.077 -20.267  0.00  0.00    +0.021 C 
ATOM     19  C   UNL     1      33.885 -19.883 -21.086  0.00  0.00    +0.021 C 
BRANCH  15  20
ATOM     20  S   UNL     1      36.300 -19.086 -22.067  0.00  0.00    +0.057 S 
ATOM     21  O   UNL     1      37.671 -19.239 -21.599  0.00  0.00    -0.153 OA
ATOM     22  O   UNL     1      35.980 -19.339 -23.465  0.00  0.00    -0.153 OA
BRANCH  20  23
ATOM     23  N   UNL     1      35.745 -17.525 -21.652  0.00  0.00    -0.203 NA
ATOM     24  H   UNL     1      36.111 -16.846 -22.320  0.00  0.00    +0.144 HD
ATOM     25  H   UNL     1      36.069 -17.287 -20.714  0.00  0.00    +0.144 HD
ENDBRANCH  20  23
ENDBRANCH  15  20
ENDBRANCH   4  14
BRANCH   6  26
ATOM     26  O   UNL     1      35.512 -23.062 -14.923  0.00  0.00    -0.453 OA
BRANCH  26  27
ATOM     27  C   UNL     1      36.698 -23.392 -15.621  0.00  0.00    +0.208 C 
BRANCH  27  28
ATOM     28  C   UNL     1      37.465 -24.434 -14.808  0.00  0.00    +0.044 C 
ATOM     29  C   UNL     1      37.511 -24.039 -13.326  0.00  0.00    +0.004 C 
ATOM     30  C   UNL     1      36.841 -25.825 -14.984  0.00  0.00    +0.004 C 
ATOM     31  C   UNL     1      38.227 -25.093 -12.483  0.00  0.00    +0.000 C 
ATOM     32  C   UNL     1      37.558 -26.875 -14.139  0.00  0.00    +0.000 C 
ATOM     33  C   UNL     1      37.608 -26.475 -12.667  0.00  0.00    +0.000 C 
ENDBRANCH  27  28
ENDBRANCH  26  27
ENDBRANCH   6  26
TORSDOF 6
ENDMDL
MODEL 5
REMARK VINA RESULT:     -10.8      3.358      7.010
REMARK  Name = 4566
REMARK  6 active torsions:
REMARK  status: ('A' for Active; 'I' for Inactive)
REMARK    1  A    between atoms: N_4  and  C_14
REMARK    2  A    between atoms: C_6  and  O_26
REMARK    3  A    between atoms: C_15  and  S_20
REMARK    4  A    between atoms: S_20  and  N_23
REMARK    5  A    between atoms: O_26  and  C_27
REMARK    6  A    between atoms: C_27  and  C_28
REMARK                            x       y       z     vdW  Elec       q    Type
REMARK                         _______ _______ _______ _____ _____    ______ ____
ROOT
ATOM      1  N   UNL     1      34.807 -23.760 -15.825  0.00  0.00    -0.293 NA
ATOM      2  N   UNL     1      38.477 -23.807 -15.581  0.00  0.00    -0.266 NA
ATOM      3  N   UNL     1      35.663 -24.984 -13.896  0.00  0.00    -0.316 NA
ATOM      4  N   UNL     1      33.366 -24.795 -14.297  0.00  0.00    -0.238 N 
ATOM      5  N   UNL     1      38.089 -25.009 -13.745  0.00  0.00    -0.296 N 
ATOM      6  C   UNL     1      36.057 -23.454 -16.239  0.00  0.00    +0.288 C 
ATOM      7  C   UNL     1      37.118 -23.910 -15.485  0.00  0.00    +0.215 C 
ATOM      8  C   UNL     1      36.902 -24.661 -14.336  0.00  0.00    +0.196 C 
ATOM      9  C   UNL     1      34.689 -24.497 -14.695  0.00  0.00    +0.207 C 
ATOM     10  C   UNL     1      39.015 -24.481 -14.516  0.00  0.00    +0.164 C 
ATOM     11  H   UNL     1      38.978 -23.335 -16.285  0.00  0.00    +0.126 HD
ATOM     12  H   UNL     1      33.311 -25.330 -13.472  0.00  0.00    +0.166 HD
ATOM     13  H   UNL     1      38.219 -25.537 -12.923  0.00  0.00    +0.150 HD
ENDROOT
BRANCH   4  14
ATOM     14  C   UNL     1      32.113 -24.476 -14.849  0.00  0.00    +0.059 C 
ATOM     15  C   UNL     1      29.621 -23.843 -15.943  0.00  0.00    +0.122 C 
ATOM     16  C   UNL     1      31.973 -23.360 -15.677  0.00  0.00    +0.017 C 
ATOM     17  C   UNL     1      31.000 -25.275 -14.570  0.00  0.00    +0.017 C 
ATOM     18  C   UNL     1      30.729 -23.044 -16.224  0.00  0.00    +0.021 C 
ATOM     19  C   UNL     1      29.756 -24.958 -15.117  0.00  0.00    +0.021 C 
BRANCH  15  20
ATOM     20  S   UNL     1      28.064 -23.447 -16.627  0.00  0.00    +0.057 S 
ATOM     21  O   UNL     1      27.734 -24.448 -17.632  0.00  0.00    -0.153 OA
ATOM     22  O   UNL     1      27.135 -23.183 -15.537  0.00  0.00    -0.153 OA
BRANCH  20  23
ATOM     23  N   UNL     1      28.419 -21.972 -17.412  0.00  0.00    -0.203 NA
ATOM     24  H   UNL     1      27.903 -21.215 -16.964  0.00  0.00    +0.144 HD
ATOM     25  H   UNL     1      28.146 -22.035 -18.393  0.00  0.00    +0.144 HD
ENDBRANCH  20  23
ENDBRANCH  15  20
ENDBRANCH   4  14
BRANCH   6  26
ATOM     26  O   UNL     1      36.212 -22.709 -17.382  0.00  0.00    -0.453 OA
BRANCH  26  27
ATOM     27  C   UNL     1      35.282 -22.932 -18.426  0.00  0.00    +0.208 C 
BRANCH  27  28
ATOM     28  C   UNL     1      35.055 -21.612 -19.161  0.00  0.00    +0.044 C 
ATOM     29  C   UNL     1      36.187 -21.347 -20.163  0.00  0.00    +0.004 C 
ATOM     30  C   UNL     1      33.691 -21.612 -19.864  0.00  0.00    +0.004 C 
ATOM     31  C   UNL     1      35.954 -20.059 -20.950  0.00  0.00    +0.000 C 
ATOM     32  C   UNL     1      33.463 -20.323 -20.651  0.00  0.00    +0.000 C 
ATOM     33  C   UNL     1      34.594 -20.060 -21.640  0.00  0.00    +0.000 C 
ENDBRANCH  27  28
ENDBRANCH  26  27
ENDBRANCH   6  26
TORSDOF 6
ENDMDL
MODEL 6
REMARK VINA RESULT:     -10.6      2.721      5.572
REMARK  Name = 4566
REMARK  6 active torsions:
REMARK  status: ('A' for Active; 'I' for Inactive)
REMARK    1  A    between atoms: N_4  and  C_14
REMARK    2  A    between atoms: C_6  and  O_26
REMARK    3  A    between atoms: C_15  and  S_20
REMARK    4  A    between atoms: S_20  and  N_23
REMARK    5  A    between atoms: O_26  and  C_27
REMARK    6  A    between atoms: C_27  and  C_28
REMARK                            x       y       z     vdW  Elec       q    Type
REMARK                         _______ _______ _______ _____ _____    ______ ____
ROOT
ATOM      1  N   UNL     1      35.152 -22.501 -17.909  0.00  0.00    -0.293 NA
ATOM      2  N   UNL     1      33.886 -20.967 -21.002  0.00  0.00    -0.266 NA
ATOM      3  N   UNL     1      36.765 -21.063 -19.042  0.00  0.00    -0.316 NA
ATOM      4  N   UNL     1      37.305 -22.166 -17.051  0.00  0.00    -0.238 N 
ATOM      5  N   UNL     1      35.918 -20.055 -21.086  0.00  0.00    -0.296 N 
ATOM      6  C   UNL     1      34.214 -22.265 -18.853  0.00  0.00    +0.288 C 
ATOM      7  C   UNL     1      34.545 -21.427 -19.898  0.00  0.00    +0.215 C 
ATOM      8  C   UNL     1      35.804 -20.846 -19.972  0.00  0.00    +0.196 C 
ATOM      9  C   UNL     1      36.354 -21.893 -18.060  0.00  0.00    +0.207 C 
ATOM     10  C   UNL     1      34.749 -20.149 -21.683  0.00  0.00    +0.164 C 
ATOM     11  H   UNL     1      32.961 -21.183 -21.262  0.00  0.00    +0.126 HD
ATOM     12  H   UNL     1      38.168 -21.711 -17.186  0.00  0.00    +0.166 HD
ATOM     13  H   UNL     1      36.701 -19.532 -21.374  0.00  0.00    +0.150 HD
ENDROOT
BRANCH   4  14
ATOM     14  C   UNL     1      37.261 -22.960 -15.892  0.00  0.00    +0.059 C 
ATOM     15  C   UNL     1      37.170 -24.539 -13.588  0.00  0.00    +0.122 C 
ATOM     16  C   UNL     1      38.246 -23.923 -15.662  0.00  0.00    +0.017 C 
ATOM     17  C   UNL     1      36.229 -22.791 -14.964  0.00  0.00    +0.017 C 
ATOM     18  C   UNL     1      38.202 -24.712 -14.512  0.00  0.00    +0.021 C 
ATOM     19  C   UNL     1      36.185 -23.579 -13.814  0.00  0.00    +0.021 C 
BRANCH  15  20
ATOM     20  S   UNL     1      37.114 -25.527 -12.149  0.00  0.00    +0.057 S 
ATOM     21  O   UNL     1      37.259 -26.921 -12.542  0.00  0.00    -0.153 OA
ATOM     22  O   UNL     1      38.020 -24.956 -11.162  0.00  0.00    -0.153 OA
BRANCH  20  23
ATOM     23  N   UNL     1      35.507 -25.262 -11.635  0.00  0.00    -0.203 NA
ATOM     24  H   UNL     1      35.052 -26.159 -11.464  0.00  0.00    +0.144 HD
ATOM     25  H   UNL     1      34.997 -24.757 -12.360  0.00  0.00    +0.144 HD
ENDBRANCH  20  23
ENDBRANCH  15  20
ENDBRANCH   4  14
BRANCH   6  26
ATOM     26  O   UNL     1      32.986 -22.866 -18.730  0.00  0.00    -0.453 OA
BRANCH  26  27
ATOM     27  C   UNL     1      32.136 -22.391 -17.704  0.00  0.00    +0.208 C 
BRANCH  27  28
ATOM     28  C   UNL     1      31.967 -23.497 -16.664  0.00  0.00    +0.044 C 
ATOM     29  C   UNL     1      32.742 -23.161 -15.383  0.00  0.00    +0.004 C 
ATOM     30  C   UNL     1      30.482 -23.732 -16.359  0.00  0.00    +0.004 C 
ATOM     31  C   UNL     1      32.546 -24.227 -14.307  0.00  0.00    +0.000 C 
ATOM     32  C   UNL     1      30.289 -24.797 -15.281  0.00  0.00    +0.000 C 
ATOM     33  C   UNL     1      31.068 -24.463 -14.013  0.00  0.00    +0.000 C 
ENDBRANCH  27  28
ENDBRANCH  26  27
ENDBRANCH   6  26
TORSDOF 6
ENDMDL
MODEL 7
REMARK VINA RESULT:      -9.9      7.629     11.093
REMARK  Name = 4566
REMARK  6 active torsions:
REMARK  status: ('A' for Active; 'I' for Inactive)
REMARK    1  A    between atoms: N_4  and  C_14
REMARK    2  A    between atoms: C_6  and  O_26
REMARK    3  A    between atoms: C_15  and  S_20
REMARK    4  A    between atoms: S_20  and  N_23
REMARK    5  A    between atoms: O_26  and  C_27
REMARK    6  A    between atoms: C_27  and  C_28
REMARK                            x       y       z     vdW  Elec       q    Type
REMARK                         _______ _______ _______ _____ _____    ______ ____
ROOT
ATOM      1  N   UNL     1      34.643 -15.732 -23.715  0.00  0.00    -0.293 NA
ATOM      2  N   UNL     1      33.677 -12.728 -25.604  0.00  0.00    -0.266 NA
ATOM      3  N   UNL     1      34.492 -16.075 -26.126  0.00  0.00    -0.316 NA
ATOM      4  N   UNL     1      35.086 -17.818 -24.683  0.00  0.00    -0.238 N 
ATOM      5  N   UNL     1      33.852 -14.083 -27.364  0.00  0.00    -0.296 N 
ATOM      6  C   UNL     1      34.295 -14.432 -23.835  0.00  0.00    +0.288 C 
ATOM      7  C   UNL     1      34.042 -13.944 -25.101  0.00  0.00    +0.215 C 
ATOM      8  C   UNL     1      34.145 -14.768 -26.213  0.00  0.00    +0.196 C 
ATOM      9  C   UNL     1      34.719 -16.463 -24.853  0.00  0.00    +0.207 C 
ATOM     10  C   UNL     1      33.576 -12.861 -26.964  0.00  0.00    +0.164 C 
ATOM     11  H   UNL     1      33.517 -11.906 -25.085  0.00  0.00    +0.126 HD
ATOM     12  H   UNL     1      35.134 -18.324 -25.526  0.00  0.00    +0.166 HD
ATOM     13  H   UNL     1      33.851 -14.429 -28.286  0.00  0.00    +0.150 HD
ENDROOT
BRANCH   4  14
ATOM     14  C   UNL     1      35.397 -18.583 -23.545  0.00  0.00    +0.059 C 
ATOM     15  C   UNL     1      36.013 -20.107 -21.286  0.00  0.00    +0.122 C 
ATOM     16  C   UNL     1      36.659 -18.486 -22.956  0.00  0.00    +0.017 C 
ATOM     17  C   UNL     1      34.443 -19.447 -22.999  0.00  0.00    +0.017 C 
ATOM     18  C   UNL     1      36.968 -19.246 -21.828  0.00  0.00    +0.021 C 
ATOM     19  C   UNL     1      34.752 -20.207 -21.871  0.00  0.00    +0.021 C 
BRANCH  15  20
ATOM     20  S   UNL     1      36.400 -21.059 -19.874  0.00  0.00    +0.057 S 
ATOM     21  O   UNL     1      36.991 -22.315 -20.314  0.00  0.00    -0.153 OA
ATOM     22  O   UNL     1      37.116 -20.214 -18.929  0.00  0.00    -0.153 OA
BRANCH  20  23
ATOM     23  N   UNL     1      34.838 -21.371 -19.254  0.00  0.00    -0.203 NA
ATOM     24  H   UNL     1      34.504 -20.552 -18.747  0.00  0.00    +0.144 HD
ATOM     25  H   UNL     1      34.878 -22.170 -18.621  0.00  0.00    +0.144 HD
ENDBRANCH  20  23
ENDBRANCH  15  20
ENDBRANCH   4  14
BRANCH   6  26
ATOM     26  O   UNL     1      34.207 -13.663 -22.701  0.00  0.00    -0.453 OA
BRANCH  26  27
ATOM     27  C   UNL     1      33.444 -14.182 -21.629  0.00  0.00    +0.208 C 
BRANCH  27  28
ATOM     28  C   UNL     1      32.343 -13.179 -21.287  0.00  0.00    +0.044 C 
ATOM     29  C   UNL     1      32.485 -12.689 -19.840  0.00  0.00    +0.004 C 
ATOM     30  C   UNL     1      32.362 -11.999 -22.269  0.00  0.00    +0.004 C 
ATOM     31  C   UNL     1      31.428 -11.644 -19.492  0.00  0.00    +0.000 C 
ATOM     32  C   UNL     1      31.304 -10.956 -21.916  0.00  0.00    +0.000 C 
ATOM     33  C   UNL     1      31.444 -10.477 -20.474  0.00  0.00    +0.000 C 
ENDBRANCH  27  28
ENDBRANCH  26  27
ENDBRANCH   6  26
TORSDOF 6
ENDMDL
MODEL 8
REMARK VINA RESULT:      -9.7      5.874      8.680
REMARK  Name = 4566
REMARK  6 active torsions:
REMARK  status: ('A' for Active; 'I' for Inactive)
REMARK    1  A    between atoms: N_4  and  C_14
REMARK    2  A    between atoms: C_6  and  O_26
REMARK    3  A    between atoms: C_15  and  S_20
REMARK    4  A    between atoms: S_20  and  N_23
REMARK    5  A    between atoms: O_26  and  C_27
REMARK    6  A    between atoms: C_27  and  C_28
REMARK                            x       y       z     vdW  Elec       q    Type
REMARK                         _______ _______ _______ _____ _____    ______ ____
ROOT
ATOM      1  N   UNL     1      35.297 -17.919 -21.335  0.00  0.00    -0.293 NA
ATOM      2  N   UNL     1      35.132 -15.070 -23.656  0.00  0.00    -0.266 NA
ATOM      3  N   UNL     1      35.581 -18.526 -23.681  0.00  0.00    -0.316 NA
ATOM      4  N   UNL     1      35.641 -20.140 -21.990  0.00  0.00    -0.238 N 
ATOM      5  N   UNL     1      35.469 -16.635 -25.206  0.00  0.00    -0.296 N 
ATOM      6  C   UNL     1      35.156 -16.611 -21.647  0.00  0.00    +0.288 C 
ATOM      7  C   UNL     1      35.225 -16.251 -22.977  0.00  0.00    +0.215 C 
ATOM      8  C   UNL     1      35.435 -17.208 -23.961  0.00  0.00    +0.196 C 
ATOM      9  C   UNL     1      35.498 -18.783 -22.359  0.00  0.00    +0.207 C 
ATOM     10  C   UNL     1      35.284 -15.351 -24.989  0.00  0.00    +0.164 C 
ATOM     11  H   UNL     1      34.983 -14.180 -23.262  0.00  0.00    +0.126 HD
ATOM     12  H   UNL     1      35.787 -20.745 -22.754  0.00  0.00    +0.166 HD
ATOM     13  H   UNL     1      35.604 -17.086 -26.072  0.00  0.00    +0.150 HD
ENDROOT
BRANCH   4  14
ATOM     14  C   UNL     1      35.616 -20.796 -20.747  0.00  0.00    +0.059 C 
ATOM     15  C   UNL     1      35.566 -22.100 -18.276  0.00  0.00    +0.122 C 
ATOM     16  C   UNL     1      36.779 -20.890 -19.979  0.00  0.00    +0.017 C 
ATOM     17  C   UNL     1      34.427 -21.358 -20.273  0.00  0.00    +0.017 C 
ATOM     18  C   UNL     1      36.755 -21.541 -18.745  0.00  0.00    +0.021 C 
ATOM     19  C   UNL     1      34.403 -22.009 -19.039  0.00  0.00    +0.021 C 
BRANCH  15  20
ATOM     20  S   UNL     1      35.535 -22.916 -16.732  0.00  0.00    +0.057 S 
ATOM     21  O   UNL     1      35.261 -21.930 -15.697  0.00  0.00    -0.153 OA
ATOM     22  O   UNL     1      34.690 -24.096 -16.850  0.00  0.00    -0.153 OA
BRANCH  20  23
ATOM     23  N   UNL     1      37.162 -23.419 -16.598  0.00  0.00    -0.203 NA
ATOM     24  H   UNL     1      37.494 -23.746 -17.506  0.00  0.00    +0.144 HD
ATOM     25  H   UNL     1      37.228 -24.179 -15.920  0.00  0.00    +0.144 HD
ENDBRANCH  20  23
ENDBRANCH  15  20
ENDBRANCH   4  14
BRANCH   6  26
ATOM     26  O   UNL     1      34.949 -15.708 -20.633  0.00  0.00    -0.453 OA
BRANCH  26  27
ATOM     27  C   UNL     1      33.606 -15.427 -20.286  0.00  0.00    +0.208 C 
BRANCH  27  28
ATOM     28  C   UNL     1      33.328 -13.955 -20.584  0.00  0.00    +0.044 C 
ATOM     29  C   UNL     1      32.786 -13.783 -22.010  0.00  0.00    +0.004 C 
ATOM     30  C   UNL     1      32.353 -13.368 -19.554  0.00  0.00    +0.004 C 
ATOM     31  C   UNL     1      32.449 -12.325 -22.314  0.00  0.00    +0.000 C 
ATOM     32  C   UNL     1      32.017 -11.911 -19.863  0.00  0.00    +0.000 C 
ATOM     33  C   UNL     1      31.486 -11.744 -21.283  0.00  0.00    +0.000 C 
ENDBRANCH  27  28
ENDBRANCH  26  27
ENDBRANCH   6  26
TORSDOF 6
ENDMDL
MODEL 9
REMARK VINA RESULT:      -9.4      3.574      7.529
REMARK  Name = 4566
REMARK  6 active torsions:
REMARK  status: ('A' for Active; 'I' for Inactive)
REMARK    1  A    between atoms: N_4  and  C_14
REMARK    2  A    between atoms: C_6  and  O_26
REMARK    3  A    between atoms: C_15  and  S_20
REMARK    4  A    between atoms: S_20  and  N_23
REMARK    5  A    between atoms: O_26  and  C_27
REMARK    6  A    between atoms: C_27  and  C_28
REMARK                            x       y       z     vdW  Elec       q    Type
REMARK                         _______ _______ _______ _____ _____    ______ ____
ROOT
ATOM      1  N   UNL     1      35.825 -23.530 -16.124  0.00  0.00    -0.293 NA
ATOM      2  N   UNL     1      36.204 -25.566 -13.085  0.00  0.00    -0.266 NA
ATOM      3  N   UNL     1      38.111 -23.643 -15.278  0.00  0.00    -0.316 NA
ATOM      4  N   UNL     1      37.583 -22.416 -17.198  0.00  0.00    -0.238 N 
ATOM      5  N   UNL     1      38.349 -24.991 -13.268  0.00  0.00    -0.296 N 
ATOM      6  C   UNL     1      35.371 -24.320 -15.126  0.00  0.00    +0.288 C 
ATOM      7  C   UNL     1      36.283 -24.776 -14.197  0.00  0.00    +0.215 C 
ATOM      8  C   UNL     1      37.625 -24.432 -14.290  0.00  0.00    +0.196 C 
ATOM      9  C   UNL     1      37.149 -23.244 -16.138  0.00  0.00    +0.207 C 
ATOM     10  C   UNL     1      37.467 -25.665 -12.563  0.00  0.00    +0.164 C 
ATOM     11  H   UNL     1      35.390 -25.987 -12.725  0.00  0.00    +0.126 HD
ATOM     12  H   UNL     1      38.549 -22.226 -17.184  0.00  0.00    +0.166 HD
ATOM     13  H   UNL     1      39.316 -24.906 -13.101  0.00  0.00    +0.150 HD
ENDROOT
BRANCH   4  14
ATOM     14  C   UNL     1      36.904 -21.811 -18.271  0.00  0.00    +0.059 C 
ATOM     15  C   UNL     1      35.553 -20.607 -20.400  0.00  0.00    +0.122 C 
ATOM     16  C   UNL     1      37.491 -20.750 -18.964  0.00  0.00    +0.017 C 
ATOM     17  C   UNL     1      35.638 -22.267 -18.647  0.00  0.00    +0.017 C 
ATOM     18  C   UNL     1      36.817 -20.149 -20.027  0.00  0.00    +0.021 C 
ATOM     19  C   UNL     1      34.964 -21.666 -19.710  0.00  0.00    +0.021 C 
BRANCH  15  20
ATOM     20  S   UNL     1      34.709 -19.854 -21.731  0.00  0.00    +0.057 S 
ATOM     21  O   UNL     1      35.358 -20.253 -22.971  0.00  0.00    -0.153 OA
ATOM     22  O   UNL     1      33.281 -20.077 -21.557  0.00  0.00    -0.153 OA
BRANCH  20  23
ATOM     23  N   UNL     1      35.045 -18.205 -21.437  0.00  0.00    -0.203 NA
ATOM     24  H   UNL     1      36.029 -18.097 -21.191  0.00  0.00    +0.144 HD
ATOM     25  H   UNL     1      34.465 -17.871 -20.668  0.00  0.00    +0.144 HD
ENDBRANCH  20  23
ENDBRANCH  15  20
ENDBRANCH   4  14
BRANCH   6  26
ATOM     26  O   UNL     1      34.034 -24.627 -15.082  0.00  0.00    -0.453 OA
BRANCH  26  27
ATOM     27  C   UNL     1      33.302 -24.160 -13.964  0.00  0.00    +0.208 C 
BRANCH  27  28
ATOM     28  C   UNL     1      31.850 -23.949 -14.390  0.00  0.00    +0.044 C 
ATOM     29  C   UNL     1      31.780 -23.304 -15.781  0.00  0.00    +0.004 C 
ATOM     30  C   UNL     1      31.080 -25.276 -14.362  0.00  0.00    +0.004 C 
ATOM     31  C   UNL     1      30.338 -23.132 -16.251  0.00  0.00    +0.000 C 
ATOM     32  C   UNL     1      29.638 -25.099 -14.835  0.00  0.00    +0.000 C 
ATOM     33  C   UNL     1      29.573 -24.451 -16.215  0.00  0.00    +0.000 C 
ENDBRANCH  27  28
ENDBRANCH  26  27
ENDBRANCH   6  26
TORSDOF 6
ENDMDL
