MODEL 1
REMARK VINA RESULT:     -12.6      0.000      0.000
REMARK  Name = 58212050
REMARK  2 active torsions:
REMARK  status: ('A' for Active; 'I' for Inactive)
REMARK    1  A    between atoms: C_2  and  C_13
REMARK    2  A    between atoms: C_10  and  C_26
REMARK                            x       y       z     vdW  Elec       q    Type
REMARK                         _______ _______ _______ _____ _____    ______ ____
ROOT
ATOM      1  N   UNL     1      37.204 -22.974 -17.091  0.00  0.00    +0.389 N 
ATOM      2  C   UNL     1      34.759 -23.220 -17.396  0.00  0.00    +0.023 C 
ATOM      3  C   UNL     1      35.924 -23.099 -16.384  0.00  0.00    -0.068 C 
ATOM      4  C   UNL     1      34.864 -22.218 -18.540  0.00  0.00    -0.026 C 
ATOM      5  C   UNL     1      36.066 -21.516 -18.752  0.00  0.00    -0.047 C 
ATOM      6  C   UNL     1      37.242 -21.696 -17.820  0.00  0.00    -0.050 C 
ATOM      7  C   UNL     1      33.806 -22.042 -19.447  0.00  0.00    -0.004 C 
ATOM      8  C   UNL     1      36.162 -20.605 -19.815  0.00  0.00    -0.005 C 
ATOM      9  C   UNL     1      38.323 -23.057 -16.153  0.00  0.00    -0.100 C 
ATOM     10  C   UNL     1      35.092 -20.420 -20.688  0.00  0.00    +0.019 C 
ATOM     11  C   UNL     1      33.917 -21.143 -20.508  0.00  0.00    +0.001 C 
ATOM     12  H   UNL     1      37.290 -23.742 -17.756  0.00  0.00    -0.079 HD
ENDROOT
BRANCH   2  13
ATOM     13  C   UNL     1      33.434 -23.176 -16.644  0.00  0.00    -0.020 C 
ATOM     14  C   UNL     1      32.238 -23.033 -17.347  0.00  0.00    -0.004 C 
ATOM     15  C   UNL     1      33.419 -23.279 -15.257  0.00  0.00    -0.004 C 
ATOM     16  C   UNL     1      31.009 -22.990 -16.669  0.00  0.00    -0.000 C 
ATOM     17  C   UNL     1      30.994 -23.094 -15.258  0.00  0.00    -0.000 C 
ATOM     18  C   UNL     1      32.207 -23.238 -14.567  0.00  0.00    -0.000 C 
ATOM     19  C   UNL     1      29.795 -22.845 -17.362  0.00  0.00    -0.000 C 
ATOM     20  C   UNL     1      29.764 -23.050 -14.580  0.00  0.00    -0.000 C 
ATOM     21  C   UNL     1      28.583 -22.804 -16.672  0.00  0.00    -0.000 C 
ATOM     22  C   UNL     1      28.568 -22.906 -15.284  0.00  0.00    -0.000 C 
ENDBRANCH   2  13
BRANCH  10  26
ATOM     23  N   UNL     1      35.626 -18.245 -21.447  0.00  0.00    -0.147 NA
ATOM     24  N   UNL     1      35.760 -17.303 -22.419  0.00  0.00    -0.133 NA
ATOM     25  N   UNL     1      35.608 -16.650 -24.707  0.00  0.00    -0.341 N 
ATOM     26  C   UNL     1      35.205 -19.483 -21.784  0.00  0.00    +0.103 C 
ATOM     27  C   UNL     1      34.901 -19.845 -23.081  0.00  0.00    +0.024 C 
ATOM     28  C   UNL     1      35.037 -18.886 -24.069  0.00  0.00    +0.037 C 
ATOM     29  C   UNL     1      35.469 -17.630 -23.696  0.00  0.00    +0.147 C 
ATOM     30  H   UNL     1      35.914 -15.743 -24.475  0.00  0.00    +0.144 HD
ATOM     31  H   UNL     1      35.398 -16.875 -25.642  0.00  0.00    +0.144 HD
ENDBRANCH  10  26
TORSDOF 2
ENDMDL
MODEL 2
REMARK VINA RESULT:     -12.2      0.781      1.641
REMARK  Name = 58212050
REMARK  2 active torsions:
REMARK  status: ('A' for Active; 'I' for Inactive)
REMARK    1  A    between atoms: C_2  and  C_13
REMARK    2  A    between atoms: C_10  and  C_26
REMARK                            x       y       z     vdW  Elec       q    Type
REMARK                         _______ _______ _______ _____ _____    ______ ____
ROOT
ATOM      1  N   UNL     1      37.416 -22.692 -17.305  0.00  0.00    +0.389 N 
ATOM      2  C   UNL     1      35.026 -23.179 -17.729  0.00  0.00    +0.023 C 
ATOM      3  C   UNL     1      36.128 -22.976 -16.661  0.00  0.00    -0.068 C 
ATOM      4  C   UNL     1      35.072 -22.131 -18.834  0.00  0.00    -0.026 C 
ATOM      5  C   UNL     1      36.202 -21.301 -18.968  0.00  0.00    -0.047 C 
ATOM      6  C   UNL     1      37.350 -21.391 -17.990  0.00  0.00    -0.050 C 
ATOM      7  C   UNL     1      34.040 -22.032 -19.782  0.00  0.00    -0.004 C 
ATOM      8  C   UNL     1      36.246 -20.346 -19.995  0.00  0.00    -0.005 C 
ATOM      9  C   UNL     1      38.498 -22.694 -16.320  0.00  0.00    -0.100 C 
ATOM     10  C   UNL     1      35.200 -20.240 -20.910  0.00  0.00    +0.019 C 
ATOM     11  C   UNL     1      34.101 -21.088 -20.807  0.00  0.00    +0.001 C 
ATOM     12  H   UNL     1      37.611 -23.423 -17.990  0.00  0.00    -0.079 HD
ENDROOT
BRANCH   2  13
ATOM     13  C   UNL     1      33.673 -23.301 -17.037  0.00  0.00    -0.020 C 
ATOM     14  C   UNL     1      33.568 -23.996 -15.831  0.00  0.00    -0.004 C 
ATOM     15  C   UNL     1      32.545 -22.721 -17.608  0.00  0.00    -0.004 C 
ATOM     16  C   UNL     1      32.329 -24.118 -15.181  0.00  0.00    -0.000 C 
ATOM     17  C   UNL     1      31.182 -23.528 -15.763  0.00  0.00    -0.000 C 
ATOM     18  C   UNL     1      31.306 -22.833 -16.976  0.00  0.00    -0.000 C 
ATOM     19  C   UNL     1      32.205 -24.814 -13.968  0.00  0.00    -0.000 C 
ATOM     20  C   UNL     1      29.942 -23.651 -15.113  0.00  0.00    -0.000 C 
ATOM     21  C   UNL     1      30.966 -24.926 -13.336  0.00  0.00    -0.000 C 
ATOM     22  C   UNL     1      29.837 -24.346 -13.907  0.00  0.00    -0.000 C 
ENDBRANCH   2  13
BRANCH  10  26
ATOM     23  N   UNL     1      35.596 -18.008 -21.581  0.00  0.00    -0.147 NA
ATOM     24  N   UNL     1      35.675 -17.022 -22.515  0.00  0.00    -0.133 NA
ATOM     25  N   UNL     1      35.497 -16.294 -24.779  0.00  0.00    -0.341 N 
ATOM     26  C   UNL     1      35.259 -19.257 -21.968  0.00  0.00    +0.103 C 
ATOM     27  C   UNL     1      34.988 -19.588 -23.281  0.00  0.00    +0.024 C 
ATOM     28  C   UNL     1      35.069 -18.586 -24.231  0.00  0.00    +0.037 C 
ATOM     29  C   UNL     1      35.415 -17.319 -23.807  0.00  0.00    +0.147 C 
ATOM     30  H   UNL     1      35.741 -15.379 -24.510  0.00  0.00    +0.144 HD
ATOM     31  H   UNL     1      35.309 -16.496 -25.724  0.00  0.00    +0.144 HD
ENDBRANCH  10  26
TORSDOF 2
ENDMDL
MODEL 3
REMARK VINA RESULT:     -11.9      7.869     13.180
REMARK  Name = 58212050
REMARK  2 active torsions:
REMARK  status: ('A' for Active; 'I' for Inactive)
REMARK    1  A    between atoms: C_2  and  C_13
REMARK    2  A    between atoms: C_10  and  C_26
REMARK                            x       y       z     vdW  Elec       q    Type
REMARK                         _______ _______ _______ _____ _____    ______ ____
ROOT
ATOM      1  N   UNL     1      31.048 -11.197 -20.358  0.00  0.00    +0.389 N 
ATOM      2  C   UNL     1      32.031 -10.458 -22.507  0.00  0.00    +0.023 C 
ATOM      3  C   UNL     1      31.616 -10.048 -21.073  0.00  0.00    -0.068 C 
ATOM      4  C   UNL     1      32.779 -11.785 -22.550  0.00  0.00    -0.026 C 
ATOM      5  C   UNL     1      32.778 -12.629 -21.424  0.00  0.00    -0.047 C 
ATOM      6  C   UNL     1      32.093 -12.211 -20.143  0.00  0.00    -0.050 C 
ATOM      7  C   UNL     1      33.404 -12.226 -23.729  0.00  0.00    -0.004 C 
ATOM      8  C   UNL     1      33.457 -13.856 -21.472  0.00  0.00    -0.005 C 
ATOM      9  C   UNL     1      30.475 -10.779 -19.079  0.00  0.00    -0.100 C 
ATOM     10  C   UNL     1      34.097 -14.265 -22.640  0.00  0.00    +0.019 C 
ATOM     11  C   UNL     1      34.065 -13.453 -23.770  0.00  0.00    +0.001 C 
ATOM     12  H   UNL     1      30.301 -11.601 -20.923  0.00  0.00    -0.079 HD
ENDROOT
BRANCH   2  13
ATOM     13  C   UNL     1      32.770  -9.299 -23.166  0.00  0.00    -0.020 C 
ATOM     14  C   UNL     1      32.090  -8.119 -23.466  0.00  0.00    -0.004 C 
ATOM     15  C   UNL     1      34.122  -9.420 -23.469  0.00  0.00    -0.004 C 
ATOM     16  C   UNL     1      32.756  -7.043 -24.074  0.00  0.00    -0.000 C 
ATOM     17  C   UNL     1      34.131  -7.166 -24.382  0.00  0.00    -0.000 C 
ATOM     18  C   UNL     1      34.800  -8.361 -24.073  0.00  0.00    -0.000 C 
ATOM     19  C   UNL     1      32.086  -5.848 -24.383  0.00  0.00    -0.000 C 
ATOM     20  C   UNL     1      34.798  -6.089 -24.990  0.00  0.00    -0.000 C 
ATOM     21  C   UNL     1      32.764  -4.788 -24.987  0.00  0.00    -0.000 C 
ATOM     22  C   UNL     1      34.117  -4.909 -25.291  0.00  0.00    -0.000 C 
ENDBRANCH   2  13
BRANCH  10  26
ATOM     23  N   UNL     1      35.051 -16.091 -21.478  0.00  0.00    -0.147 NA
ATOM     24  N   UNL     1      35.699 -17.286 -21.427  0.00  0.00    -0.133 NA
ATOM     25  N   UNL     1      36.736 -19.129 -22.528  0.00  0.00    -0.341 N 
ATOM     26  C   UNL     1      34.789 -15.535 -22.681  0.00  0.00    +0.103 C 
ATOM     27  C   UNL     1      35.149 -16.126 -23.875  0.00  0.00    +0.024 C 
ATOM     28  C   UNL     1      35.807 -17.342 -23.823  0.00  0.00    +0.037 C 
ATOM     29  C   UNL     1      36.062 -17.886 -22.581  0.00  0.00    +0.147 C 
ATOM     30  H   UNL     1      36.933 -19.545 -21.658  0.00  0.00    +0.144 HD
ATOM     31  H   UNL     1      37.007 -19.577 -23.361  0.00  0.00    +0.144 HD
ENDBRANCH  10  26
TORSDOF 2
ENDMDL
MODEL 4
REMARK VINA RESULT:     -10.7      5.165     10.225
REMARK  Name = 58212050
REMARK  2 active torsions:
REMARK  status: ('A' for Active; 'I' for Inactive)
REMARK    1  A    between atoms: C_2  and  C_13
REMARK    2  A    between atoms: C_10  and  C_26
REMARK                            x       y       z     vdW  Elec       q    Type
REMARK                         _______ _______ _______ _____ _____    ______ ____
ROOT
ATOM      1  N   UNL     1      34.308 -14.526 -26.173  0.00  0.00    +0.389 N 
ATOM      2  C   UNL     1      34.358 -13.355 -23.992  0.00  0.00    +0.023 C 
ATOM      3  C   UNL     1      33.658 -13.486 -25.367  0.00  0.00    -0.068 C 
ATOM      4  C   UNL     1      34.647 -14.704 -23.345  0.00  0.00    -0.026 C 
ATOM      5  C   UNL     1      34.548 -15.885 -24.106  0.00  0.00    -0.047 C 
ATOM      6  C   UNL     1      34.095 -15.841 -25.547  0.00  0.00    -0.050 C 
ATOM      7  C   UNL     1      35.098 -14.788 -22.017  0.00  0.00    -0.004 C 
ATOM      8  C   UNL     1      34.828 -17.123 -23.510  0.00  0.00    -0.005 C 
ATOM      9  C   UNL     1      33.785 -14.524 -27.539  0.00  0.00    -0.100 C 
ATOM     10  C   UNL     1      35.245 -17.192 -22.181  0.00  0.00    +0.019 C 
ATOM     11  C   UNL     1      35.387 -16.024 -21.438  0.00  0.00    +0.001 C 
ATOM     12  H   UNL     1      35.308 -14.333 -26.217  0.00  0.00    -0.079 HD
ENDROOT
BRANCH   2  13
ATOM     13  C   UNL     1      33.564 -12.396 -23.114  0.00  0.00    -0.020 C 
ATOM     14  C   UNL     1      33.157 -12.791 -21.840  0.00  0.00    -0.004 C 
ATOM     15  C   UNL     1      33.243 -11.126 -23.585  0.00  0.00    -0.004 C 
ATOM     16  C   UNL     1      32.424 -11.920 -21.019  0.00  0.00    -0.000 C 
ATOM     17  C   UNL     1      32.098 -10.629 -21.497  0.00  0.00    -0.000 C 
ATOM     18  C   UNL     1      32.515 -10.247 -22.782  0.00  0.00    -0.000 C 
ATOM     19  C   UNL     1      32.007 -12.302 -19.733  0.00  0.00    -0.000 C 
ATOM     20  C   UNL     1      31.364  -9.757 -20.676  0.00  0.00    -0.000 C 
ATOM     21  C   UNL     1      31.278 -11.423 -18.931  0.00  0.00    -0.000 C 
ATOM     22  C   UNL     1      30.957 -10.154 -19.401  0.00  0.00    -0.000 C 
ENDBRANCH   2  13
BRANCH  10  26
ATOM     23  N   UNL     1      36.775 -18.598 -21.053  0.00  0.00    -0.147 NA
ATOM     24  N   UNL     1      37.131 -19.773 -20.467  0.00  0.00    -0.133 NA
ATOM     25  N   UNL     1      36.608 -22.007 -19.817  0.00  0.00    -0.341 N 
ATOM     26  C   UNL     1      35.537 -18.474 -21.579  0.00  0.00    +0.103 C 
ATOM     27  C   UNL     1      34.605 -19.491 -21.552  0.00  0.00    +0.024 C 
ATOM     28  C   UNL     1      34.967 -20.686 -20.956  0.00  0.00    +0.037 C 
ATOM     29  C   UNL     1      36.238 -20.785 -20.426  0.00  0.00    +0.147 C 
ATOM     30  H   UNL     1      37.507 -22.111 -19.430  0.00  0.00    +0.144 HD
ATOM     31  H   UNL     1      35.967 -22.753 -19.782  0.00  0.00    +0.144 HD
ENDBRANCH  10  26
TORSDOF 2
ENDMDL
MODEL 5
REMARK VINA RESULT:     -10.5      2.313      5.758
REMARK  Name = 58212050
REMARK  2 active torsions:
REMARK  status: ('A' for Active; 'I' for Inactive)
REMARK    1  A    between atoms: C_2  and  C_13
REMARK    2  A    between atoms: C_10  and  C_26
REMARK                            x       y       z     vdW  Elec       q    Type
REMARK                         _______ _______ _______ _____ _____    ______ ____
ROOT
ATOM      1  N   UNL     1      32.616 -23.513 -16.223  0.00  0.00    +0.389 N 
ATOM      2  C   UNL     1      35.059 -23.559 -15.821  0.00  0.00    +0.023 C 
ATOM      3  C   UNL     1      33.732 -24.355 -15.776  0.00  0.00    -0.068 C 
ATOM      4  C   UNL     1      35.222 -22.754 -17.104  0.00  0.00    -0.026 C 
ATOM      5  C   UNL     1      34.119 -22.558 -17.957  0.00  0.00    -0.047 C 
ATOM      6  C   UNL     1      32.781 -23.190 -17.649  0.00  0.00    -0.050 C 
ATOM      7  C   UNL     1      36.440 -22.126 -17.415  0.00  0.00    -0.004 C 
ATOM      8  C   UNL     1      34.271 -21.805 -19.131  0.00  0.00    -0.005 C 
ATOM      9  C   UNL     1      31.337 -24.187 -15.999  0.00  0.00    -0.100 C 
ATOM     10  C   UNL     1      35.494 -21.213 -19.439  0.00  0.00    +0.019 C 
ATOM     11  C   UNL     1      36.576 -21.368 -18.578  0.00  0.00    +0.001 C 
ATOM     12  H   UNL     1      32.618 -22.649 -15.681  0.00  0.00    -0.079 HD
ENDROOT
BRANCH   2  13
ATOM     13  C   UNL     1      36.219 -24.501 -15.519  0.00  0.00    -0.020 C 
ATOM     14  C   UNL     1      37.520 -24.003 -15.451  0.00  0.00    -0.004 C 
ATOM     15  C   UNL     1      35.979 -25.855 -15.313  0.00  0.00    -0.004 C 
ATOM     16  C   UNL     1      38.600 -24.857 -15.175  0.00  0.00    -0.000 C 
ATOM     17  C   UNL     1      38.356 -26.235 -14.965  0.00  0.00    -0.000 C 
ATOM     18  C   UNL     1      37.040 -26.718 -15.037  0.00  0.00    -0.000 C 
ATOM     19  C   UNL     1      39.917 -24.373 -15.104  0.00  0.00    -0.000 C 
ATOM     20  C   UNL     1      39.437 -27.089 -14.690  0.00  0.00    -0.000 C 
ATOM     21  C   UNL     1      40.978 -25.236 -14.828  0.00  0.00    -0.000 C 
ATOM     22  C   UNL     1      40.739 -26.591 -14.622  0.00  0.00    -0.000 C 
ENDBRANCH   2  13
BRANCH  10  26
ATOM     23  N   UNL     1      36.805 -19.767 -20.775  0.00  0.00    -0.147 NA
ATOM     24  N   UNL     1      37.020 -19.009 -21.883  0.00  0.00    -0.133 NA
ATOM     25  N   UNL     1      36.283 -18.155 -23.984  0.00  0.00    -0.341 N 
ATOM     26  C   UNL     1      35.637 -20.433 -20.649  0.00  0.00    +0.103 C 
ATOM     27  C   UNL     1      34.638 -20.383 -21.601  0.00  0.00    +0.024 C 
ATOM     28  C   UNL     1      34.857 -19.612 -22.729  0.00  0.00    +0.037 C 
ATOM     29  C   UNL     1      36.060 -18.943 -22.830  0.00  0.00    +0.147 C 
ATOM     30  H   UNL     1      37.130 -17.664 -24.088  0.00  0.00    +0.144 HD
ATOM     31  H   UNL     1      35.591 -18.096 -24.681  0.00  0.00    +0.144 HD
ENDBRANCH  10  26
TORSDOF 2
ENDMDL
MODEL 6
REMARK VINA RESULT:     -10.5     12.254     18.169
REMARK  Name = 58212050
REMARK  2 active torsions:
REMARK  status: ('A' for Active; 'I' for Inactive)
REMARK    1  A    between atoms: C_2  and  C_13
REMARK    2  A    between atoms: C_10  and  C_26
REMARK                            x       y       z     vdW  Elec       q    Type
REMARK                         _______ _______ _______ _____ _____    ______ ____
ROOT
ATOM      1  N   UNL     1      30.870  -3.585 -23.353  0.00  0.00    +0.389 N 
ATOM      2  C   UNL     1      32.194  -4.915 -24.968  0.00  0.00    +0.023 C 
ATOM      3  C   UNL     1      31.986  -3.532 -24.305  0.00  0.00    -0.068 C 
ATOM      4  C   UNL     1      32.144  -6.063 -23.968  0.00  0.00    -0.026 C 
ATOM      5  C   UNL     1      31.650  -5.843 -22.668  0.00  0.00    -0.047 C 
ATOM      6  C   UNL     1      31.224  -4.462 -22.226  0.00  0.00    -0.050 C 
ATOM      7  C   UNL     1      32.503  -7.368 -24.345  0.00  0.00    -0.004 C 
ATOM      8  C   UNL     1      31.593  -6.906 -21.754  0.00  0.00    -0.005 C 
ATOM      9  C   UNL     1      30.538  -2.244 -22.870  0.00  0.00    -0.100 C 
ATOM     10  C   UNL     1      31.982  -8.189 -22.136  0.00  0.00    +0.019 C 
ATOM     11  C   UNL     1      32.430  -8.421 -23.432  0.00  0.00    +0.001 C 
ATOM     12  H   UNL     1      30.049  -3.962 -23.828  0.00  0.00    -0.079 HD
ENDROOT
BRANCH   2  13
ATOM     13  C   UNL     1      33.459  -4.878 -25.818  0.00  0.00    -0.020 C 
ATOM     14  C   UNL     1      33.411  -4.371 -27.116  0.00  0.00    -0.004 C 
ATOM     15  C   UNL     1      34.659  -5.352 -25.298  0.00  0.00    -0.004 C 
ATOM     16  C   UNL     1      34.566  -4.332 -27.913  0.00  0.00    -0.000 C 
ATOM     17  C   UNL     1      35.787  -4.814 -27.385  0.00  0.00    -0.000 C 
ATOM     18  C   UNL     1      35.817  -5.320 -26.076  0.00  0.00    -0.000 C 
ATOM     19  C   UNL     1      34.536  -3.825 -29.223  0.00  0.00    -0.000 C 
ATOM     20  C   UNL     1      36.943  -4.775 -28.182  0.00  0.00    -0.000 C 
ATOM     21  C   UNL     1      35.694  -3.793 -30.000  0.00  0.00    -0.000 C 
ATOM     22  C   UNL     1      36.895  -4.267 -29.481  0.00  0.00    -0.000 C 
ENDBRANCH   2  13
BRANCH  10  26
ATOM     23  N   UNL     1      32.336  -8.988 -19.938  0.00  0.00    -0.147 NA
ATOM     24  N   UNL     1      32.303  -9.958 -18.985  0.00  0.00    -0.133 NA
ATOM     25  N   UNL     1      31.814 -12.196 -18.321  0.00  0.00    -0.341 N 
ATOM     26  C   UNL     1      31.912  -9.279 -21.187  0.00  0.00    +0.103 C 
ATOM     27  C   UNL     1      31.442 -10.525 -21.550  0.00  0.00    +0.024 C 
ATOM     28  C   UNL     1      31.409 -11.512 -20.580  0.00  0.00    +0.037 C 
ATOM     29  C   UNL     1      31.848 -11.187 -19.312  0.00  0.00    +0.147 C 
ATOM     30  H   UNL     1      32.120 -11.997 -17.407  0.00  0.00    +0.144 HD
ATOM     31  H   UNL     1      31.486 -13.096 -18.547  0.00  0.00    +0.144 HD
ENDBRANCH  10  26
TORSDOF 2
ENDMDL
MODEL 7
REMARK VINA RESULT:     -10.2      5.617     11.127
REMARK  Name = 58212050
REMARK  2 active torsions:
REMARK  status: ('A' for Active; 'I' for Inactive)
REMARK    1  A    between atoms: C_2  and  C_13
REMARK    2  A    between atoms: C_10  and  C_26
REMARK                            x       y       z     vdW  Elec       q    Type
REMARK                         _______ _______ _______ _____ _____    ______ ____
ROOT
ATOM      1  N   UNL     1      34.211 -14.302 -26.493  0.00  0.00    +0.389 N 
ATOM      2  C   UNL     1      34.367 -13.059 -24.358  0.00  0.00    +0.023 C 
ATOM      3  C   UNL     1      33.623 -13.212 -25.706  0.00  0.00    -0.068 C 
ATOM      4  C   UNL     1      34.627 -14.394 -23.671  0.00  0.00    -0.026 C 
ATOM      5  C   UNL     1      34.463 -15.596 -24.385  0.00  0.00    -0.047 C 
ATOM      6  C   UNL     1      33.971 -15.586 -25.814  0.00  0.00    -0.050 C 
ATOM      7  C   UNL     1      35.113 -14.448 -22.354  0.00  0.00    -0.004 C 
ATOM      8  C   UNL     1      34.717 -16.822 -23.753  0.00  0.00    -0.005 C 
ATOM      9  C   UNL     1      33.649 -14.329 -27.843  0.00  0.00    -0.100 C 
ATOM     10  C   UNL     1      35.170 -16.859 -22.436  0.00  0.00    +0.019 C 
ATOM     11  C   UNL     1      35.374 -15.672 -21.739  0.00  0.00    +0.001 C 
ATOM     12  H   UNL     1      35.217 -14.147 -26.571  0.00  0.00    -0.079 HD
ENDROOT
BRANCH   2  13
ATOM     13  C   UNL     1      33.632 -12.041 -23.493  0.00  0.00    -0.020 C 
ATOM     14  C   UNL     1      33.872 -10.678 -23.665  0.00  0.00    -0.004 C 
ATOM     15  C   UNL     1      32.724 -12.472 -22.531  0.00  0.00    -0.004 C 
ATOM     16  C   UNL     1      33.205  -9.727 -22.876  0.00  0.00    -0.000 C 
ATOM     17  C   UNL     1      32.282 -10.166 -21.898  0.00  0.00    -0.000 C 
ATOM     18  C   UNL     1      32.053 -11.542 -21.738  0.00  0.00    -0.000 C 
ATOM     19  C   UNL     1      33.435  -8.351 -23.037  0.00  0.00    -0.000 C 
ATOM     20  C   UNL     1      31.615  -9.215 -21.107  0.00  0.00    -0.000 C 
ATOM     21  C   UNL     1      32.763  -7.420 -22.243  0.00  0.00    -0.000 C 
ATOM     22  C   UNL     1      31.855  -7.851 -21.280  0.00  0.00    -0.000 C 
ENDBRANCH   2  13
BRANCH  10  26
ATOM     23  N   UNL     1      36.658 -18.254 -21.240  0.00  0.00    -0.147 NA
ATOM     24  N   UNL     1      36.988 -19.418 -20.618  0.00  0.00    -0.133 NA
ATOM     25  N   UNL     1      36.425 -21.630 -19.925  0.00  0.00    -0.341 N 
ATOM     26  C   UNL     1      35.434 -18.130 -21.796  0.00  0.00    +0.103 C 
ATOM     27  C   UNL     1      34.489 -19.136 -21.765  0.00  0.00    +0.024 C 
ATOM     28  C   UNL     1      34.825 -20.319 -21.132  0.00  0.00    +0.037 C 
ATOM     29  C   UNL     1      36.083 -20.419 -20.572  0.00  0.00    +0.147 C 
ATOM     30  H   UNL     1      37.315 -21.734 -19.516  0.00  0.00    +0.144 HD
ATOM     31  H   UNL     1      35.775 -22.367 -19.886  0.00  0.00    +0.144 HD
ENDBRANCH  10  26
TORSDOF 2
ENDMDL
