MODEL 1
REMARK VINA RESULT:     -12.4      0.000      0.000
REMARK  Name = 46937081
REMARK  6 active torsions:
REMARK  status: ('A' for Active; 'I' for Inactive)
REMARK    1  A    between atoms: N_1  and  C_10
REMARK    2  A    between atoms: C_4  and  C_16
REMARK    3  A    between atoms: C_9  and  C_31
REMARK    4  A    between atoms: C_16  and  C_17
REMARK    5  A    between atoms: C_18  and  N_23
REMARK    6  A    between atoms: C_31  and  N_32
REMARK                            x       y       z     vdW  Elec       q    Type
REMARK                         _______ _______ _______ _____ _____    ______ ____
ROOT
ATOM      1  N   UNL     1      34.288 -23.475 -15.895  0.00  0.00    -0.267 N 
ATOM      2  N   UNL     1      35.366 -23.722 -13.751  0.00  0.00    -0.341 NA
ATOM      3  N   UNL     1      37.733 -23.152 -13.807  0.00  0.00    -0.188 NA
ATOM      4  C   UNL     1      34.660 -23.090 -17.156  0.00  0.00    +0.035 C 
ATOM      5  C   UNL     1      35.373 -23.414 -15.060  0.00  0.00    +0.199 C 
ATOM      6  C   UNL     1      36.463 -22.982 -15.805  0.00  0.00    +0.066 C 
ATOM      7  C   UNL     1      36.003 -22.779 -17.132  0.00  0.00    +0.016 C 
ATOM      8  C   UNL     1      37.674 -22.856 -15.127  0.00  0.00    +0.114 C 
ATOM      9  C   UNL     1      36.591 -23.561 -13.210  0.00  0.00    +0.042 C 
ENDROOT
BRANCH   1  10
ATOM     10  C   UNL     1      32.893 -23.903 -15.479  0.00  0.00    +0.079 C 
ATOM     11  C   UNL     1      32.925 -24.928 -14.332  0.00  0.00    +0.020 C 
ATOM     12  C   UNL     1      32.008 -22.697 -15.115  0.00  0.00    +0.020 C 
ATOM     13  C   UNL     1      31.516 -25.359 -13.928  0.00  0.00    +0.002 C 
ATOM     14  C   UNL     1      30.604 -23.137 -14.708  0.00  0.00    +0.002 C 
ATOM     15  C   UNL     1      30.640 -24.161 -13.576  0.00  0.00    +0.000 C 
ENDBRANCH   1  10
BRANCH   4  16
ATOM     16  C   UNL     1      33.677 -23.050 -18.311  0.00  0.00    +0.068 C 
BRANCH  16  17
ATOM     17  C   UNL     1      33.984 -22.006 -19.331  0.00  0.00    -0.016 C 
ATOM     18  C   UNL     1      34.559 -20.055 -21.240  0.00  0.00    +0.048 C 
ATOM     19  C   UNL     1      35.295 -21.831 -19.777  0.00  0.00    -0.003 C 
ATOM     20  C   UNL     1      32.962 -21.207 -19.840  0.00  0.00    -0.003 C 
ATOM     21  C   UNL     1      35.582 -20.856 -20.731  0.00  0.00    +0.014 C 
ATOM     22  C   UNL     1      33.248 -20.230 -20.794  0.00  0.00    +0.014 C 
BRANCH  18  23
ATOM     23  N   UNL     1      34.846 -19.077 -22.198  0.00  0.00    -0.312 N 
ATOM     24  N   UNL     1      35.684 -17.141 -24.124  0.00  0.00    +0.388 N 
ATOM     25  C   UNL     1      34.995 -19.458 -23.606  0.00  0.00    +0.068 C 
ATOM     26  C   UNL     1      35.617 -17.902 -21.774  0.00  0.00    +0.068 C 
ATOM     27  C   UNL     1      35.398 -16.737 -22.742  0.00  0.00    -0.056 C 
ATOM     28  C   UNL     1      34.797 -18.243 -24.516  0.00  0.00    -0.056 C 
ATOM     29  C   UNL     1      35.524 -16.007 -25.033  0.00  0.00    -0.101 C 
ATOM     30  H   UNL     1      36.650 -17.460 -24.182  0.00  0.00    -0.080 HD
ENDBRANCH  18  23
ENDBRANCH  16  17
ENDBRANCH   4  16
BRANCH   9  31
ATOM     31  C   UNL     1      36.701 -23.876 -11.755  0.00  0.00    +0.030 C 
BRANCH  31  32
ATOM     32  N   UNL     1      38.092 -23.984 -11.314  0.00  0.00    +0.390 N 
ATOM     33  H   UNL     1      38.122 -24.048 -10.295  0.00  0.00    -0.088 HD
ATOM     34  H   UNL     1      38.610 -23.160 -11.617  0.00  0.00    -0.088 HD
ATOM     35  H   UNL     1      38.514 -24.819 -11.720  0.00  0.00    -0.088 HD
ENDBRANCH  31  32
ENDBRANCH   9  31
TORSDOF 6
ENDMDL
MODEL 2
REMARK VINA RESULT:     -11.6      1.816      3.969
REMARK  Name = 46937081
REMARK  6 active torsions:
REMARK  status: ('A' for Active; 'I' for Inactive)
REMARK    1  A    between atoms: N_1  and  C_10
REMARK    2  A    between atoms: C_4  and  C_16
REMARK    3  A    between atoms: C_9  and  C_31
REMARK    4  A    between atoms: C_16  and  C_17
REMARK    5  A    between atoms: C_18  and  N_23
REMARK    6  A    between atoms: C_31  and  N_32
REMARK                            x       y       z     vdW  Elec       q    Type
REMARK                         _______ _______ _______ _____ _____    ______ ____
ROOT
ATOM      1  N   UNL     1      34.600 -23.427 -16.570  0.00  0.00    -0.267 N 
ATOM      2  N   UNL     1      32.901 -24.297 -15.095  0.00  0.00    -0.341 NA
ATOM      3  N   UNL     1      30.641 -23.810 -15.857  0.00  0.00    -0.188 NA
ATOM      4  C   UNL     1      34.630 -22.721 -17.744  0.00  0.00    +0.035 C 
ATOM      5  C   UNL     1      33.298 -23.637 -16.197  0.00  0.00    +0.199 C 
ATOM      6  C   UNL     1      32.479 -23.051 -17.153  0.00  0.00    +0.066 C 
ATOM      7  C   UNL     1      33.330 -22.473 -18.129  0.00  0.00    +0.016 C 
ATOM      8  C   UNL     1      31.104 -23.157 -16.949  0.00  0.00    +0.114 C 
ATOM      9  C   UNL     1      31.556 -24.332 -15.009  0.00  0.00    +0.042 C 
ENDROOT
BRANCH   1  10
ATOM     10  C   UNL     1      35.815 -23.906 -15.797  0.00  0.00    +0.079 C 
ATOM     11  C   UNL     1      36.002 -23.127 -14.483  0.00  0.00    +0.020 C 
ATOM     12  C   UNL     1      35.767 -25.421 -15.536  0.00  0.00    +0.020 C 
ATOM     13  C   UNL     1      37.234 -23.610 -13.718  0.00  0.00    +0.002 C 
ATOM     14  C   UNL     1      36.999 -25.895 -14.767  0.00  0.00    +0.002 C 
ATOM     15  C   UNL     1      37.187 -25.115 -13.469  0.00  0.00    +0.000 C 
ENDBRANCH   1  10
BRANCH   4  16
ATOM     16  C   UNL     1      35.932 -22.331 -18.418  0.00  0.00    +0.068 C 
BRANCH  16  17
ATOM     17  C   UNL     1      35.764 -21.377 -19.552  0.00  0.00    -0.016 C 
ATOM     18  C   UNL     1      35.450 -19.595 -21.675  0.00  0.00    +0.048 C 
ATOM     19  C   UNL     1      36.868 -20.685 -20.051  0.00  0.00    -0.003 C 
ATOM     20  C   UNL     1      34.504 -21.178 -20.115  0.00  0.00    -0.003 C 
ATOM     21  C   UNL     1      36.711 -19.794 -21.112  0.00  0.00    +0.014 C 
ATOM     22  C   UNL     1      34.346 -20.287 -21.176  0.00  0.00    +0.014 C 
BRANCH  18  23
ATOM     23  N   UNL     1      35.293 -18.701 -22.740  0.00  0.00    -0.312 N 
ATOM     24  N   UNL     1      35.226 -16.900 -24.956  0.00  0.00    +0.388 N 
ATOM     25  C   UNL     1      35.101 -19.216 -24.099  0.00  0.00    +0.068 C 
ATOM     26  C   UNL     1      35.948 -17.391 -22.643  0.00  0.00    +0.068 C 
ATOM     27  C   UNL     1      35.278 -16.385 -23.582  0.00  0.00    -0.056 C 
ATOM     28  C   UNL     1      34.459 -18.151 -24.992  0.00  0.00    -0.056 C 
ATOM     29  C   UNL     1      34.633 -15.909 -25.853  0.00  0.00    -0.101 C 
ATOM     30  H   UNL     1      36.176 -17.088 -25.274  0.00  0.00    -0.080 HD
ENDBRANCH  18  23
ENDBRANCH  16  17
ENDBRANCH   4  16
BRANCH   9  31
ATOM     31  C   UNL     1      31.001 -25.043 -13.820  0.00  0.00    +0.030 C 
BRANCH  31  32
ATOM     32  N   UNL     1      29.652 -25.558 -14.059  0.00  0.00    +0.390 N 
ATOM     33  H   UNL     1      29.037 -25.266 -13.298  0.00  0.00    -0.088 HD
ATOM     34  H   UNL     1      29.679 -26.576 -14.102  0.00  0.00    -0.088 HD
ATOM     35  H   UNL     1      29.299 -25.189 -14.942  0.00  0.00    -0.088 HD
ENDBRANCH  31  32
ENDBRANCH   9  31
TORSDOF 6
ENDMDL
MODEL 3
REMARK VINA RESULT:     -10.2      1.779      3.897
REMARK  Name = 46937081
REMARK  6 active torsions:
REMARK  status: ('A' for Active; 'I' for Inactive)
REMARK    1  A    between atoms: N_1  and  C_10
REMARK    2  A    between atoms: C_4  and  C_16
REMARK    3  A    between atoms: C_9  and  C_31
REMARK    4  A    between atoms: C_16  and  C_17
REMARK    5  A    between atoms: C_18  and  N_23
REMARK    6  A    between atoms: C_31  and  N_32
REMARK                            x       y       z     vdW  Elec       q    Type
REMARK                         _______ _______ _______ _____ _____    ______ ____
ROOT
ATOM      1  N   UNL     1      34.874 -23.306 -16.596  0.00  0.00    -0.267 N 
ATOM      2  N   UNL     1      33.244 -24.250 -15.089  0.00  0.00    -0.341 NA
ATOM      3  N   UNL     1      30.980 -24.195 -15.984  0.00  0.00    -0.188 NA
ATOM      4  C   UNL     1      34.864 -22.740 -17.843  0.00  0.00    +0.035 C 
ATOM      5  C   UNL     1      33.599 -23.665 -16.247  0.00  0.00    +0.199 C 
ATOM      6  C   UNL     1      32.755 -23.320 -17.295  0.00  0.00    +0.066 C 
ATOM      7  C   UNL     1      33.565 -22.734 -18.302  0.00  0.00    +0.016 C 
ATOM      8  C   UNL     1      31.401 -23.606 -17.128  0.00  0.00    +0.114 C 
ATOM      9  C   UNL     1      31.914 -24.476 -15.049  0.00  0.00    +0.042 C 
ENDROOT
BRANCH   1  10
ATOM     10  C   UNL     1      36.103 -23.509 -15.728  0.00  0.00    +0.079 C 
ATOM     11  C   UNL     1      35.885 -22.992 -14.296  0.00  0.00    +0.020 C 
ATOM     12  C   UNL     1      36.563 -24.977 -15.721  0.00  0.00    +0.020 C 
ATOM     13  C   UNL     1      37.132 -23.191 -13.434  0.00  0.00    +0.002 C 
ATOM     14  C   UNL     1      37.806 -25.169 -14.854  0.00  0.00    +0.002 C 
ATOM     15  C   UNL     1      37.590 -24.647 -13.436  0.00  0.00    +0.000 C 
ENDBRANCH   1  10
BRANCH   4  16
ATOM     16  C   UNL     1      36.130 -22.238 -18.512  0.00  0.00    +0.068 C 
BRANCH  16  17
ATOM     17  C   UNL     1      35.884 -21.328 -19.667  0.00  0.00    -0.016 C 
ATOM     18  C   UNL     1      35.422 -19.624 -21.827  0.00  0.00    +0.048 C 
ATOM     19  C   UNL     1      34.604 -21.226 -20.214  0.00  0.00    -0.003 C 
ATOM     20  C   UNL     1      36.931 -20.578 -20.199  0.00  0.00    -0.003 C 
ATOM     21  C   UNL     1      34.373 -20.374 -21.294  0.00  0.00    +0.014 C 
ATOM     22  C   UNL     1      36.701 -19.726 -21.280  0.00  0.00    +0.014 C 
BRANCH  18  23
ATOM     23  N   UNL     1      35.190 -18.769 -22.911  0.00  0.00    -0.312 N 
ATOM     24  N   UNL     1      34.969 -17.055 -25.185  0.00  0.00    +0.388 N 
ATOM     25  C   UNL     1      34.877 -19.333 -24.228  0.00  0.00    +0.068 C 
ATOM     26  C   UNL     1      35.873 -17.470 -22.922  0.00  0.00    +0.068 C 
ATOM     27  C   UNL     1      35.144 -16.488 -23.842  0.00  0.00    -0.056 C 
ATOM     28  C   UNL     1      34.180 -18.291 -25.106  0.00  0.00    -0.056 C 
ATOM     29  C   UNL     1      34.320 -16.088 -26.069  0.00  0.00    -0.101 C 
ATOM     30  H   UNL     1      35.886 -17.274 -25.572  0.00  0.00    -0.080 HD
ENDBRANCH  18  23
ENDBRANCH  16  17
ENDBRANCH   4  16
BRANCH   9  31
ATOM     31  C   UNL     1      31.406 -25.124 -13.803  0.00  0.00    +0.030 C 
BRANCH  31  32
ATOM     32  N   UNL     1      32.489 -25.525 -12.904  0.00  0.00    +0.390 N 
ATOM     33  H   UNL     1      32.540 -24.872 -12.121  0.00  0.00    -0.088 HD
ATOM     34  H   UNL     1      33.373 -25.516 -13.412  0.00  0.00    -0.088 HD
ATOM     35  H   UNL     1      32.308 -26.465 -12.552  0.00  0.00    -0.088 HD
ENDBRANCH  31  32
ENDBRANCH   9  31
TORSDOF 6
ENDMDL
