MODEL 1
REMARK VINA RESULT:     -12.3      0.000      0.000
REMARK  Name = 3488
REMARK  8 active torsions:
REMARK  status: ('A' for Active; 'I' for Inactive)
REMARK    1  A    between atoms: C_1  and  S_7
REMARK    2  A    between atoms: C_2  and  C_22
REMARK    3  A    between atoms: S_7  and  N_12
REMARK    4  A    between atoms: N_11  and  C_16
REMARK    5  A    between atoms: C_22  and  C_23
REMARK    6  A    between atoms: C_23  and  N_25
REMARK    7  A    between atoms: C_26  and  C_29
REMARK    8  A    between atoms: C_30  and  O_35
REMARK                            x       y       z     vdW  Elec       q    Type
REMARK                         _______ _______ _______ _____ _____    ______ ____
ROOT
ATOM      1  C   UNL     1      34.774 -21.777 -19.422  0.00  0.00    +0.125 C 
ATOM      2  C   UNL     1      36.155 -19.926 -20.949  0.00  0.00    -0.020 C 
ATOM      3  C   UNL     1      34.074 -20.973 -20.304  0.00  0.00    +0.020 C 
ATOM      4  C   UNL     1      36.147 -21.679 -19.284  0.00  0.00    +0.020 C 
ATOM      5  C   UNL     1      34.771 -20.040 -21.074  0.00  0.00    -0.003 C 
ATOM      6  C   UNL     1      36.844 -20.746 -20.054  0.00  0.00    -0.003 C 
ENDROOT
BRANCH   1   7
ATOM      7  S   UNL     1      33.892 -22.959 -18.447  0.00  0.00    +0.077 S 
ATOM      8  O   UNL     1      33.898 -24.223 -19.157  0.00  0.00    -0.150 OA
ATOM      9  O   UNL     1      32.640 -22.336 -18.064  0.00  0.00    -0.150 OA
BRANCH   7  12
ATOM     10  O   UNL     1      33.726 -24.693 -15.875  0.00  0.00    -0.251 OA
ATOM     11  N   UNL     1      35.676 -23.816 -14.995  0.00  0.00    -0.289 N 
ATOM     12  N   UNL     1      34.907 -23.075 -17.076  0.00  0.00    -0.169 N 
ATOM     13  C   UNL     1      34.689 -23.936 -15.954  0.00  0.00    +0.319 C 
ATOM     14  H   UNL     1      36.409 -23.179 -15.151  0.00  0.00    +0.151 HD
ATOM     15  H   UNL     1      35.709 -22.503 -17.059  0.00  0.00    +0.178 HD
BRANCH  11  16
ATOM     16  C   UNL     1      35.679 -24.586 -13.770  0.00  0.00    +0.073 C 
ATOM     17  C   UNL     1      35.876 -23.679 -12.551  0.00  0.00    +0.020 C 
ATOM     18  C   UNL     1      36.738 -25.692 -13.818  0.00  0.00    +0.020 C 
ATOM     19  C   UNL     1      37.301 -23.134 -12.452  0.00  0.00    +0.002 C 
ATOM     20  C   UNL     1      38.162 -25.143 -13.717  0.00  0.00    +0.002 C 
ATOM     21  C   UNL     1      38.337 -24.254 -12.489  0.00  0.00    +0.000 C 
ENDBRANCH  11  16
ENDBRANCH   7  12
ENDBRANCH   1   7
BRANCH   2  22
ATOM     22  C   UNL     1      36.900 -18.929 -21.770  0.00  0.00    +0.048 C 
BRANCH  22  23
ATOM     23  C   UNL     1      36.339 -18.762 -23.189  0.00  0.00    +0.094 C 
BRANCH  23  25
ATOM     24  O   UNL     1      34.481 -17.961 -25.225  0.00  0.00    -0.270 OA
ATOM     25  N   UNL     1      35.852 -17.432 -23.431  0.00  0.00    -0.300 N 
ATOM     26  C   UNL     1      34.950 -17.136 -24.445  0.00  0.00    +0.249 C 
ATOM     27  H   UNL     1      36.172 -16.699 -22.855  0.00  0.00    +0.150 HD
BRANCH  26  29
ATOM     28 CL   UNL     1      33.257 -13.342 -27.502  0.00  0.00    -0.082 Cl
ATOM     29  C   UNL     1      34.565 -15.707 -24.582  0.00  0.00    +0.088 C 
ATOM     30  C   UNL     1      34.633 -14.870 -23.487  0.00  0.00    +0.143 C 
ATOM     31  C   UNL     1      34.148 -15.264 -25.821  0.00  0.00    +0.019 C 
ATOM     32  C   UNL     1      34.268 -13.533 -23.636  0.00  0.00    +0.038 C 
ATOM     33  C   UNL     1      33.782 -13.926 -25.970  0.00  0.00    +0.058 C 
ATOM     34  C   UNL     1      33.842 -13.060 -24.878  0.00  0.00    +0.015 C 
BRANCH  30  35
ATOM     35  O   UNL     1      35.045 -15.312 -22.265  0.00  0.00    -0.471 OA
ATOM     36  C   UNL     1      34.588 -14.586 -21.127  0.00  0.00    +0.252 C 
ENDBRANCH  30  35
ENDBRANCH  26  29
ENDBRANCH  23  25
ENDBRANCH  22  23
ENDBRANCH   2  22
TORSDOF 8
ENDMDL
MODEL 2
REMARK VINA RESULT:     -11.5      1.044      2.108
REMARK  Name = 3488
REMARK  8 active torsions:
REMARK  status: ('A' for Active; 'I' for Inactive)
REMARK    1  A    between atoms: C_1  and  S_7
REMARK    2  A    between atoms: C_2  and  C_22
REMARK    3  A    between atoms: S_7  and  N_12
REMARK    4  A    between atoms: N_11  and  C_16
REMARK    5  A    between atoms: C_22  and  C_23
REMARK    6  A    between atoms: C_23  and  N_25
REMARK    7  A    between atoms: C_26  and  C_29
REMARK    8  A    between atoms: C_30  and  O_35
REMARK                            x       y       z     vdW  Elec       q    Type
REMARK                         _______ _______ _______ _____ _____    ______ ____
ROOT
ATOM      1  C   UNL     1      34.327 -21.971 -19.250  0.00  0.00    +0.125 C 
ATOM      2  C   UNL     1      35.464 -20.121 -20.967  0.00  0.00    -0.020 C 
ATOM      3  C   UNL     1      35.705 -21.864 -19.311  0.00  0.00    +0.020 C 
ATOM      4  C   UNL     1      33.503 -21.176 -20.027  0.00  0.00    +0.020 C 
ATOM      5  C   UNL     1      36.278 -20.931 -20.176  0.00  0.00    -0.003 C 
ATOM      6  C   UNL     1      34.075 -20.242 -20.892  0.00  0.00    -0.003 C 
ENDROOT
BRANCH   1   7
ATOM      7  S   UNL     1      33.601 -23.153 -18.154  0.00  0.00    +0.077 S 
ATOM      8  O   UNL     1      33.667 -24.456 -18.788  0.00  0.00    -0.150 OA
ATOM      9  O   UNL     1      32.328 -22.605 -17.730  0.00  0.00    -0.150 OA
BRANCH   7  12
ATOM     10  O   UNL     1      33.731 -24.737 -15.485  0.00  0.00    -0.251 OA
ATOM     11  N   UNL     1      35.647 -23.654 -14.779  0.00  0.00    -0.289 N 
ATOM     12  N   UNL     1      34.700 -23.105 -16.846  0.00  0.00    -0.169 N 
ATOM     13  C   UNL     1      34.620 -23.911 -15.666  0.00  0.00    +0.319 C 
ATOM     14  H   UNL     1      36.314 -22.970 -15.016  0.00  0.00    +0.151 HD
ATOM     15  H   UNL     1      35.450 -22.469 -16.910  0.00  0.00    +0.178 HD
BRANCH  11  16
ATOM     16  C   UNL     1      35.787 -24.346 -13.516  0.00  0.00    +0.073 C 
ATOM     17  C   UNL     1      36.364 -23.419 -12.441  0.00  0.00    +0.020 C 
ATOM     18  C   UNL     1      36.635 -25.612 -13.672  0.00  0.00    +0.020 C 
ATOM     19  C   UNL     1      37.844 -23.111 -12.669  0.00  0.00    +0.002 C 
ATOM     20  C   UNL     1      38.115 -25.300 -13.898  0.00  0.00    +0.002 C 
ATOM     21  C   UNL     1      38.670 -24.387 -12.809  0.00  0.00    +0.000 C 
ENDBRANCH  11  16
ENDBRANCH   7  12
ENDBRANCH   1   7
BRANCH   2  22
ATOM     22  C   UNL     1      36.076 -19.124 -21.892  0.00  0.00    +0.048 C 
BRANCH  22  23
ATOM     23  C   UNL     1      35.942 -17.674 -21.407  0.00  0.00    +0.094 C 
BRANCH  23  25
ATOM     24  O   UNL     1      34.631 -15.140 -21.099  0.00  0.00    -0.270 OA
ATOM     25  N   UNL     1      35.543 -16.781 -22.460  0.00  0.00    -0.300 N 
ATOM     26  C   UNL     1      34.910 -15.569 -22.216  0.00  0.00    +0.249 C 
ATOM     27  H   UNL     1      35.724 -17.039 -23.394  0.00  0.00    +0.150 HD
BRANCH  26  29
ATOM     28 CL   UNL     1      34.253 -10.912 -24.334  0.00  0.00    -0.082 Cl
ATOM     29  C   UNL     1      34.537 -14.772 -23.413  0.00  0.00    +0.088 C 
ATOM     30  C   UNL     1      34.172 -15.415 -24.578  0.00  0.00    +0.143 C 
ATOM     31  C   UNL     1      34.569 -13.395 -23.313  0.00  0.00    +0.019 C 
ATOM     32  C   UNL     1      33.825 -14.651 -25.691  0.00  0.00    +0.038 C 
ATOM     33  C   UNL     1      34.223 -12.631 -24.427  0.00  0.00    +0.058 C 
ATOM     34  C   UNL     1      33.850 -13.258 -25.616  0.00  0.00    +0.015 C 
BRANCH  30  35
ATOM     35  O   UNL     1      34.141 -16.775 -24.673  0.00  0.00    -0.471 OA
ATOM     36  C   UNL     1      34.768 -17.358 -25.813  0.00  0.00    +0.252 C 
ENDBRANCH  30  35
ENDBRANCH  26  29
ENDBRANCH  23  25
ENDBRANCH  22  23
ENDBRANCH   2  22
TORSDOF 8
ENDMDL
MODEL 3
REMARK VINA RESULT:     -11.3      1.818      2.429
REMARK  Name = 3488
REMARK  8 active torsions:
REMARK  status: ('A' for Active; 'I' for Inactive)
REMARK    1  A    between atoms: C_1  and  S_7
REMARK    2  A    between atoms: C_2  and  C_22
REMARK    3  A    between atoms: S_7  and  N_12
REMARK    4  A    between atoms: N_11  and  C_16
REMARK    5  A    between atoms: C_22  and  C_23
REMARK    6  A    between atoms: C_23  and  N_25
REMARK    7  A    between atoms: C_26  and  C_29
REMARK    8  A    between atoms: C_30  and  O_35
REMARK                            x       y       z     vdW  Elec       q    Type
REMARK                         _______ _______ _______ _____ _____    ______ ____
ROOT
ATOM      1  C   UNL     1      34.168 -22.070 -19.176  0.00  0.00    +0.125 C 
ATOM      2  C   UNL     1      35.205 -20.253 -20.990  0.00  0.00    -0.020 C 
ATOM      3  C   UNL     1      33.301 -21.288 -19.919  0.00  0.00    +0.020 C 
ATOM      4  C   UNL     1      35.541 -21.966 -19.318  0.00  0.00    +0.020 C 
ATOM      5  C   UNL     1      33.824 -20.372 -20.833  0.00  0.00    -0.003 C 
ATOM      6  C   UNL     1      36.064 -21.052 -20.233  0.00  0.00    -0.003 C 
ENDROOT
BRANCH   1   7
ATOM      7  S   UNL     1      33.506 -23.230 -18.017  0.00  0.00    +0.077 S 
ATOM      8  O   UNL     1      33.600 -24.554 -18.601  0.00  0.00    -0.150 OA
ATOM      9  O   UNL     1      32.226 -22.706 -17.584  0.00  0.00    -0.150 OA
BRANCH   7  12
ATOM     10  O   UNL     1      33.644 -24.562 -15.215  0.00  0.00    -0.251 OA
ATOM     11  N   UNL     1      35.606 -23.479 -14.647  0.00  0.00    -0.289 N 
ATOM     12  N   UNL     1      34.633 -23.094 -16.738  0.00  0.00    -0.169 N 
ATOM     13  C   UNL     1      34.553 -23.785 -15.488  0.00  0.00    +0.319 C 
ATOM     14  H   UNL     1      36.287 -22.841 -14.958  0.00  0.00    +0.151 HD
ATOM     15  H   UNL     1      35.400 -22.491 -16.875  0.00  0.00    +0.178 HD
BRANCH  11  16
ATOM     16  C   UNL     1      35.750 -24.055 -13.328  0.00  0.00    +0.073 C 
ATOM     17  C   UNL     1      36.632 -23.173 -12.436  0.00  0.00    +0.020 C 
ATOM     18  C   UNL     1      36.294 -25.484 -13.407  0.00  0.00    +0.020 C 
ATOM     19  C   UNL     1      38.105 -23.221 -12.841  0.00  0.00    +0.002 C 
ATOM     20  C   UNL     1      37.768 -25.528 -13.811  0.00  0.00    +0.002 C 
ATOM     21  C   UNL     1      38.627 -24.654 -12.902  0.00  0.00    +0.000 C 
ENDBRANCH  11  16
ENDBRANCH   7  12
ENDBRANCH   1   7
BRANCH   2  22
ATOM     22  C   UNL     1      35.764 -19.275 -21.967  0.00  0.00    +0.048 C 
BRANCH  22  23
ATOM     23  C   UNL     1      36.314 -18.001 -21.312  0.00  0.00    +0.094 C 
BRANCH  23  25
ATOM     24  O   UNL     1      35.999 -16.169 -23.498  0.00  0.00    -0.270 OA
ATOM     25  N   UNL     1      35.387 -16.905 -21.386  0.00  0.00    -0.300 N 
ATOM     26  C   UNL     1      35.305 -16.066 -22.490  0.00  0.00    +0.249 C 
ATOM     27  H   UNL     1      34.786 -16.741 -20.623  0.00  0.00    +0.150 HD
BRANCH  26  29
ATOM     28 CL   UNL     1      32.273 -13.148 -19.507  0.00  0.00    -0.082 Cl
ATOM     29  C   UNL     1      34.314 -14.963 -22.401  0.00  0.00    +0.088 C 
ATOM     30  C   UNL     1      33.908 -14.310 -23.547  0.00  0.00    +0.143 C 
ATOM     31  C   UNL     1      33.828 -14.626 -21.153  0.00  0.00    +0.019 C 
ATOM     32  C   UNL     1      32.977 -13.277 -23.443  0.00  0.00    +0.038 C 
ATOM     33  C   UNL     1      32.898 -13.591 -21.049  0.00  0.00    +0.058 C 
ATOM     34  C   UNL     1      32.471 -12.918 -22.193  0.00  0.00    +0.015 C 
BRANCH  30  35
ATOM     35  O   UNL     1      34.390 -14.646 -24.778  0.00  0.00    -0.471 OA
ATOM     36  C   UNL     1      33.491 -14.528 -25.878  0.00  0.00    +0.252 C 
ENDBRANCH  30  35
ENDBRANCH  26  29
ENDBRANCH  23  25
ENDBRANCH  22  23
ENDBRANCH   2  22
TORSDOF 8
ENDMDL
MODEL 4
REMARK VINA RESULT:     -11.2      6.398     10.123
REMARK  Name = 3488
REMARK  8 active torsions:
REMARK  status: ('A' for Active; 'I' for Inactive)
REMARK    1  A    between atoms: C_1  and  S_7
REMARK    2  A    between atoms: C_2  and  C_22
REMARK    3  A    between atoms: S_7  and  N_12
REMARK    4  A    between atoms: N_11  and  C_16
REMARK    5  A    between atoms: C_22  and  C_23
REMARK    6  A    between atoms: C_23  and  N_25
REMARK    7  A    between atoms: C_26  and  C_29
REMARK    8  A    between atoms: C_30  and  O_35
REMARK                            x       y       z     vdW  Elec       q    Type
REMARK                         _______ _______ _______ _____ _____    ______ ____
ROOT
ATOM      1  C   UNL     1      33.137 -12.892 -22.967  0.00  0.00    +0.125 C 
ATOM      2  C   UNL     1      31.910 -11.482 -20.924  0.00  0.00    -0.020 C 
ATOM      3  C   UNL     1      32.953 -13.504 -21.740  0.00  0.00    +0.020 C 
ATOM      4  C   UNL     1      32.722 -11.592 -23.198  0.00  0.00    +0.020 C 
ATOM      5  C   UNL     1      32.335 -12.794 -20.710  0.00  0.00    -0.003 C 
ATOM      6  C   UNL     1      32.103 -10.881 -22.169  0.00  0.00    -0.003 C 
ENDROOT
BRANCH   1   7
ATOM      7  S   UNL     1      33.920 -13.792 -24.272  0.00  0.00    +0.077 S 
ATOM      8  O   UNL     1      34.940 -12.942 -24.856  0.00  0.00    -0.150 OA
ATOM      9  O   UNL     1      32.862 -14.343 -25.095  0.00  0.00    -0.150 OA
BRANCH   7  12
ATOM     10  O   UNL     1      35.035 -16.556 -25.145  0.00  0.00    -0.251 OA
ATOM     11  N   UNL     1      35.697 -17.118 -23.002  0.00  0.00    -0.289 N 
ATOM     12  N   UNL     1      34.669 -15.054 -23.395  0.00  0.00    -0.169 N 
ATOM     13  C   UNL     1      35.133 -16.287 -23.952  0.00  0.00    +0.319 C 
ATOM     14  H   UNL     1      35.729 -16.811 -22.068  0.00  0.00    +0.151 HD
ATOM     15  H   UNL     1      34.791 -14.920 -22.427  0.00  0.00    +0.178 HD
BRANCH  11  16
ATOM     16  C   UNL     1      36.243 -18.419 -23.321  0.00  0.00    +0.073 C 
ATOM     17  C   UNL     1      35.183 -19.515 -23.163  0.00  0.00    +0.020 C 
ATOM     18  C   UNL     1      37.483 -18.719 -22.473  0.00  0.00    +0.020 C 
ATOM     19  C   UNL     1      34.842 -19.791 -21.699  0.00  0.00    +0.002 C 
ATOM     20  C   UNL     1      37.138 -18.997 -21.010  0.00  0.00    +0.002 C 
ATOM     21  C   UNL     1      36.090 -20.098 -20.878  0.00  0.00    +0.000 C 
ENDBRANCH  11  16
ENDBRANCH   7  12
ENDBRANCH   1   7
BRANCH   2  22
ATOM     22  C   UNL     1      31.250 -10.722 -19.823  0.00  0.00    +0.048 C 
BRANCH  22  23
ATOM     23  C   UNL     1      31.921  -9.376 -19.521  0.00  0.00    +0.094 C 
BRANCH  23  25
ATOM     24  O   UNL     1      33.513  -7.002 -19.776  0.00  0.00    -0.270 OA
ATOM     25  N   UNL     1      32.063  -8.561 -20.696  0.00  0.00    -0.300 N 
ATOM     26  C   UNL     1      32.860  -7.423 -20.728  0.00  0.00    +0.249 C 
ATOM     27  H   UNL     1      31.576  -8.818 -21.513  0.00  0.00    +0.150 HD
BRANCH  26  29
ATOM     28 CL   UNL     1      31.218  -3.351 -23.435  0.00  0.00    -0.082 Cl
ATOM     29  C   UNL     1      32.881  -6.674 -22.010  0.00  0.00    +0.088 C 
ATOM     30  C   UNL     1      33.633  -7.144 -23.067  0.00  0.00    +0.143 C 
ATOM     31  C   UNL     1      32.133  -5.516 -22.098  0.00  0.00    +0.019 C 
ATOM     32  C   UNL     1      33.639  -6.427 -24.264  0.00  0.00    +0.038 C 
ATOM     33  C   UNL     1      32.140  -4.798 -23.294  0.00  0.00    +0.058 C 
ATOM     34  C   UNL     1      32.892  -5.254 -24.377  0.00  0.00    +0.015 C 
BRANCH  30  35
ATOM     35  O   UNL     1      34.369  -8.288 -22.977  0.00  0.00    -0.471 OA
ATOM     36  C   UNL     1      35.008  -8.741 -24.168  0.00  0.00    +0.252 C 
ENDBRANCH  30  35
ENDBRANCH  26  29
ENDBRANCH  23  25
ENDBRANCH  22  23
ENDBRANCH   2  22
TORSDOF 8
ENDMDL
MODEL 5
REMARK VINA RESULT:     -10.9      3.960     11.527
REMARK  Name = 3488
REMARK  8 active torsions:
REMARK  status: ('A' for Active; 'I' for Inactive)
REMARK    1  A    between atoms: C_1  and  S_7
REMARK    2  A    between atoms: C_2  and  C_22
REMARK    3  A    between atoms: S_7  and  N_12
REMARK    4  A    between atoms: N_11  and  C_16
REMARK    5  A    between atoms: C_22  and  C_23
REMARK    6  A    between atoms: C_23  and  N_25
REMARK    7  A    between atoms: C_26  and  C_29
REMARK    8  A    between atoms: C_30  and  O_35
REMARK                            x       y       z     vdW  Elec       q    Type
REMARK                         _______ _______ _______ _____ _____    ______ ____
ROOT
ATOM      1  C   UNL     1      35.162 -20.422 -20.906  0.00  0.00    +0.125 C 
ATOM      2  C   UNL     1      34.280 -22.313 -19.086  0.00  0.00    -0.020 C 
ATOM      3  C   UNL     1      36.091 -21.186 -20.223  0.00  0.00    +0.020 C 
ATOM      4  C   UNL     1      33.802 -20.580 -20.702  0.00  0.00    +0.020 C 
ATOM      5  C   UNL     1      35.646 -22.139 -19.305  0.00  0.00    -0.003 C 
ATOM      6  C   UNL     1      33.357 -21.534 -19.786  0.00  0.00    -0.003 C 
ENDROOT
BRANCH   1   7
ATOM      7  S   UNL     1      35.725 -19.214 -22.068  0.00  0.00    +0.077 S 
ATOM      8  O   UNL     1      35.077 -19.475 -23.339  0.00  0.00    -0.150 OA
ATOM      9  O   UNL     1      37.170 -19.181 -21.971  0.00  0.00    -0.150 OA
BRANCH   7  12
ATOM     10  O   UNL     1      36.075 -16.218 -22.811  0.00  0.00    -0.251 OA
ATOM     11  N   UNL     1      34.686 -15.494 -21.110  0.00  0.00    -0.289 N 
ATOM     12  N   UNL     1      35.081 -17.782 -21.390  0.00  0.00    -0.169 N 
ATOM     13  C   UNL     1      35.344 -16.455 -21.854  0.00  0.00    +0.319 C 
ATOM     14  H   UNL     1      34.121 -15.785 -20.359  0.00  0.00    +0.151 HD
ATOM     15  H   UNL     1      34.479 -17.881 -20.616  0.00  0.00    +0.178 HD
BRANCH  11  16
ATOM     16  C   UNL     1      34.789 -14.078 -21.388  0.00  0.00    +0.073 C 
ATOM     17  C   UNL     1      33.710 -13.290 -20.637  0.00  0.00    +0.020 C 
ATOM     18  C   UNL     1      34.729 -13.806 -22.894  0.00  0.00    +0.020 C 
ATOM     19  C   UNL     1      32.315 -13.510 -21.219  0.00  0.00    +0.002 C 
ATOM     20  C   UNL     1      33.331 -14.025 -23.473  0.00  0.00    +0.002 C 
ATOM     21  C   UNL     1      32.277 -13.222 -22.718  0.00  0.00    +0.000 C 
ENDBRANCH  11  16
ENDBRANCH   7  12
ENDBRANCH   1   7
BRANCH   2  22
ATOM     22  C   UNL     1      33.804 -23.331 -18.106  0.00  0.00    +0.048 C 
BRANCH  22  23
ATOM     23  C   UNL     1      33.940 -22.885 -16.644  0.00  0.00    +0.094 C 
BRANCH  23  25
ATOM     24  O   UNL     1      36.642 -22.143 -16.023  0.00  0.00    -0.270 OA
ATOM     25  N   UNL     1      34.901 -23.671 -15.920  0.00  0.00    -0.300 N 
ATOM     26  C   UNL     1      36.193 -23.229 -15.665  0.00  0.00    +0.249 C 
ATOM     27  H   UNL     1      34.634 -24.561 -15.592  0.00  0.00    +0.150 HD
BRANCH  26  29
ATOM     28 CL   UNL     1      40.722 -25.685 -15.413  0.00  0.00    -0.082 Cl
ATOM     29  C   UNL     1      37.074 -24.171 -14.928  0.00  0.00    +0.088 C 
ATOM     30  C   UNL     1      36.635 -24.744 -13.752  0.00  0.00    +0.143 C 
ATOM     31  C   UNL     1      38.321 -24.443 -15.457  0.00  0.00    +0.019 C 
ATOM     32  C   UNL     1      37.476 -25.626 -13.075  0.00  0.00    +0.038 C 
ATOM     33  C   UNL     1      39.162 -25.325 -14.779  0.00  0.00    +0.058 C 
ATOM     34  C   UNL     1      38.740 -25.917 -13.589  0.00  0.00    +0.015 C 
BRANCH  30  35
ATOM     35  O   UNL     1      35.403 -24.473 -13.234  0.00  0.00    -0.471 OA
ATOM     36  C   UNL     1      35.341 -24.164 -11.843  0.00  0.00    +0.252 C 
ENDBRANCH  30  35
ENDBRANCH  26  29
ENDBRANCH  23  25
ENDBRANCH  22  23
ENDBRANCH   2  22
TORSDOF 8
ENDMDL
MODEL 6
REMARK VINA RESULT:     -10.8      3.916     11.077
REMARK  Name = 3488
REMARK  8 active torsions:
REMARK  status: ('A' for Active; 'I' for Inactive)
REMARK    1  A    between atoms: C_1  and  S_7
REMARK    2  A    between atoms: C_2  and  C_22
REMARK    3  A    between atoms: S_7  and  N_12
REMARK    4  A    between atoms: N_11  and  C_16
REMARK    5  A    between atoms: C_22  and  C_23
REMARK    6  A    between atoms: C_23  and  N_25
REMARK    7  A    between atoms: C_26  and  C_29
REMARK    8  A    between atoms: C_30  and  O_35
REMARK                            x       y       z     vdW  Elec       q    Type
REMARK                         _______ _______ _______ _____ _____    ______ ____
ROOT
ATOM      1  C   UNL     1      34.921 -17.593 -24.095  0.00  0.00    +0.125 C 
ATOM      2  C   UNL     1      35.694 -19.194 -21.973  0.00  0.00    -0.020 C 
ATOM      3  C   UNL     1      34.588 -18.936 -24.106  0.00  0.00    +0.020 C 
ATOM      4  C   UNL     1      35.631 -17.030 -23.049  0.00  0.00    +0.020 C 
ATOM      5  C   UNL     1      34.977 -19.743 -23.036  0.00  0.00    -0.003 C 
ATOM      6  C   UNL     1      36.020 -17.837 -21.979  0.00  0.00    -0.003 C 
ENDROOT
BRANCH   1   7
ATOM      7  S   UNL     1      34.428 -16.571 -25.451  0.00  0.00    +0.077 S 
ATOM      8  O   UNL     1      33.536 -17.341 -26.296  0.00  0.00    -0.150 OA
ATOM      9  O   UNL     1      35.637 -15.986 -25.997  0.00  0.00    -0.150 OA
BRANCH   7  12
ATOM     10  O   UNL     1      35.297 -14.199 -23.642  0.00  0.00    -0.251 OA
ATOM     11  N   UNL     1      33.124 -13.487 -23.300  0.00  0.00    -0.289 N 
ATOM     12  N   UNL     1      33.533 -15.360 -24.639  0.00  0.00    -0.169 N 
ATOM     13  C   UNL     1      34.090 -14.321 -23.830  0.00  0.00    +0.319 C 
ATOM     14  H   UNL     1      32.180 -13.668 -23.509  0.00  0.00    +0.151 HD
ATOM     15  H   UNL     1      32.553 -15.381 -24.739  0.00  0.00    +0.178 HD
BRANCH  11  16
ATOM     16  C   UNL     1      33.440 -12.358 -22.452  0.00  0.00    +0.073 C 
ATOM     17  C   UNL     1      33.421 -12.760 -20.973  0.00  0.00    +0.020 C 
ATOM     18  C   UNL     1      32.493 -11.185 -22.722  0.00  0.00    +0.020 C 
ATOM     19  C   UNL     1      32.006 -13.014 -20.455  0.00  0.00    +0.002 C 
ATOM     20  C   UNL     1      31.079 -11.442 -22.200  0.00  0.00    +0.002 C 
ATOM     21  C   UNL     1      31.085 -11.827 -20.724  0.00  0.00    +0.000 C 
ENDBRANCH  11  16
ENDBRANCH   7  12
ENDBRANCH   1   7
BRANCH   2  22
ATOM     22  C   UNL     1      36.111 -20.056 -20.830  0.00  0.00    +0.048 C 
BRANCH  22  23
ATOM     23  C   UNL     1      35.363 -21.394 -20.766  0.00  0.00    +0.094 C 
BRANCH  23  25
ATOM     24  O   UNL     1      34.027 -23.789 -19.919  0.00  0.00    -0.270 OA
ATOM     25  N   UNL     1      34.856 -21.674 -19.450  0.00  0.00    -0.300 N 
ATOM     26  C   UNL     1      34.220 -22.867 -19.130  0.00  0.00    +0.249 C 
ATOM     27  H   UNL     1      34.963 -20.993 -18.747  0.00  0.00    +0.150 HD
BRANCH  26  29
ATOM     28 CL   UNL     1      30.192 -23.012 -15.911  0.00  0.00    -0.082 Cl
ATOM     29  C   UNL     1      33.730 -22.992 -17.733  0.00  0.00    +0.088 C 
ATOM     30  C   UNL     1      34.631 -23.147 -16.700  0.00  0.00    +0.143 C 
ATOM     31  C   UNL     1      32.366 -22.948 -17.518  0.00  0.00    +0.019 C 
ATOM     32  C   UNL     1      34.151 -23.263 -15.396  0.00  0.00    +0.038 C 
ATOM     33  C   UNL     1      31.886 -23.064 -16.213  0.00  0.00    +0.058 C 
ATOM     34  C   UNL     1      32.778 -23.220 -15.152  0.00  0.00    +0.015 C 
BRANCH  30  35
ATOM     35  O   UNL     1      35.977 -23.191 -16.917  0.00  0.00    -0.471 OA
ATOM     36  C   UNL     1      36.818 -22.761 -15.850  0.00  0.00    +0.252 C 
ENDBRANCH  30  35
ENDBRANCH  26  29
ENDBRANCH  23  25
ENDBRANCH  22  23
ENDBRANCH   2  22
TORSDOF 8
ENDMDL
MODEL 7
REMARK VINA RESULT:     -10.7      6.268     10.176
REMARK  Name = 3488
REMARK  8 active torsions:
REMARK  status: ('A' for Active; 'I' for Inactive)
REMARK    1  A    between atoms: C_1  and  S_7
REMARK    2  A    between atoms: C_2  and  C_22
REMARK    3  A    between atoms: S_7  and  N_12
REMARK    4  A    between atoms: N_11  and  C_16
REMARK    5  A    between atoms: C_22  and  C_23
REMARK    6  A    between atoms: C_23  and  N_25
REMARK    7  A    between atoms: C_26  and  C_29
REMARK    8  A    between atoms: C_30  and  O_35
REMARK                            x       y       z     vdW  Elec       q    Type
REMARK                         _______ _______ _______ _____ _____    ______ ____
ROOT
ATOM      1  C   UNL     1      33.166 -12.898 -23.031  0.00  0.00    +0.125 C 
ATOM      2  C   UNL     1      31.939 -11.498 -20.982  0.00  0.00    -0.020 C 
ATOM      3  C   UNL     1      32.768 -11.591 -23.250  0.00  0.00    +0.020 C 
ATOM      4  C   UNL     1      32.966 -13.522 -21.812  0.00  0.00    +0.020 C 
ATOM      5  C   UNL     1      32.150 -10.885 -22.217  0.00  0.00    -0.003 C 
ATOM      6  C   UNL     1      32.349 -12.817 -20.779  0.00  0.00    -0.003 C 
ENDROOT
BRANCH   1   7
ATOM      7  S   UNL     1      33.949 -13.792 -24.340  0.00  0.00    +0.077 S 
ATOM      8  O   UNL     1      34.954 -12.932 -24.935  0.00  0.00    -0.150 OA
ATOM      9  O   UNL     1      32.892 -14.360 -25.152  0.00  0.00    -0.150 OA
BRANCH   7  12
ATOM     10  O   UNL     1      35.029 -16.575 -25.200  0.00  0.00    -0.251 OA
ATOM     11  N   UNL     1      35.755 -17.103 -23.070  0.00  0.00    -0.289 N 
ATOM     12  N   UNL     1      34.722 -15.042 -23.465  0.00  0.00    -0.169 N 
ATOM     13  C   UNL     1      35.165 -16.286 -24.015  0.00  0.00    +0.319 C 
ATOM     14  H   UNL     1      35.817 -16.781 -22.142  0.00  0.00    +0.151 HD
ATOM     15  H   UNL     1      34.875 -14.892 -22.504  0.00  0.00    +0.178 HD
BRANCH  11  16
ATOM     16  C   UNL     1      36.287 -18.411 -23.384  0.00  0.00    +0.073 C 
ATOM     17  C   UNL     1      35.214 -19.494 -23.223  0.00  0.00    +0.020 C 
ATOM     18  C   UNL     1      37.522 -18.722 -22.533  0.00  0.00    +0.020 C 
ATOM     19  C   UNL     1      34.868 -19.761 -21.759  0.00  0.00    +0.002 C 
ATOM     20  C   UNL     1      37.172 -18.991 -21.069  0.00  0.00    +0.002 C 
ATOM     21  C   UNL     1      36.112 -20.080 -20.935  0.00  0.00    +0.000 C 
ENDBRANCH  11  16
ENDBRANCH   7  12
ENDBRANCH   1   7
BRANCH   2  22
ATOM     22  C   UNL     1      31.278 -10.744 -19.878  0.00  0.00    +0.048 C 
BRANCH  22  23
ATOM     23  C   UNL     1      31.956  -9.406 -19.557  0.00  0.00    +0.094 C 
BRANCH  23  25
ATOM     24  O   UNL     1      33.838  -7.267 -19.906  0.00  0.00    -0.270 OA
ATOM     25  N   UNL     1      32.106  -8.577 -20.721  0.00  0.00    -0.300 N 
ATOM     26  C   UNL     1      33.049  -7.559 -20.802  0.00  0.00    +0.249 C 
ATOM     27  H   UNL     1      31.516  -8.735 -21.494  0.00  0.00    +0.150 HD
BRANCH  26  29
ATOM     28 CL   UNL     1      35.327  -6.593 -25.328  0.00  0.00    -0.082 Cl
ATOM     29  C   UNL     1      33.059  -6.775 -22.063  0.00  0.00    +0.088 C 
ATOM     30  C   UNL     1      32.082  -5.827 -22.289  0.00  0.00    +0.143 C 
ATOM     31  C   UNL     1      34.063  -7.028 -22.977  0.00  0.00    +0.019 C 
ATOM     32  C   UNL     1      32.108  -5.100 -23.479  0.00  0.00    +0.038 C 
ATOM     33  C   UNL     1      34.089  -6.301 -24.168  0.00  0.00    +0.058 C 
ATOM     34  C   UNL     1      33.112  -5.337 -24.419  0.00  0.00    +0.015 C 
BRANCH  30  35
ATOM     35  O   UNL     1      31.093  -5.580 -21.384  0.00  0.00    -0.471 OA
ATOM     36  C   UNL     1      30.047  -4.702 -21.793  0.00  0.00    +0.252 C 
ENDBRANCH  30  35
ENDBRANCH  26  29
ENDBRANCH  23  25
ENDBRANCH  22  23
ENDBRANCH   2  22
TORSDOF 8
ENDMDL
MODEL 8
REMARK VINA RESULT:     -10.4      2.947      4.578
REMARK  Name = 3488
REMARK  8 active torsions:
REMARK  status: ('A' for Active; 'I' for Inactive)
REMARK    1  A    between atoms: C_1  and  S_7
REMARK    2  A    between atoms: C_2  and  C_22
REMARK    3  A    between atoms: S_7  and  N_12
REMARK    4  A    between atoms: N_11  and  C_16
REMARK    5  A    between atoms: C_22  and  C_23
REMARK    6  A    between atoms: C_23  and  N_25
REMARK    7  A    between atoms: C_26  and  C_29
REMARK    8  A    between atoms: C_30  and  O_35
REMARK                            x       y       z     vdW  Elec       q    Type
REMARK                         _______ _______ _______ _____ _____    ______ ____
ROOT
ATOM      1  C   UNL     1      35.528 -22.496 -17.683  0.00  0.00    +0.125 C 
ATOM      2  C   UNL     1      35.735 -21.202 -20.122  0.00  0.00    -0.020 C 
ATOM      3  C   UNL     1      34.429 -22.457 -18.521  0.00  0.00    +0.020 C 
ATOM      4  C   UNL     1      36.730 -21.905 -18.033  0.00  0.00    +0.020 C 
ATOM      5  C   UNL     1      34.533 -21.804 -19.751  0.00  0.00    -0.003 C 
ATOM      6  C   UNL     1      36.835 -21.253 -19.263  0.00  0.00    -0.003 C 
ENDROOT
BRANCH   1   7
ATOM      7  S   UNL     1      35.396 -23.322 -16.125  0.00  0.00    +0.077 S 
ATOM      8  O   UNL     1      35.435 -22.319 -15.078  0.00  0.00    -0.150 OA
ATOM      9  O   UNL     1      36.359 -24.405 -16.142  0.00  0.00    -0.150 OA
BRANCH   7  12
ATOM     10  O   UNL     1      32.822 -22.811 -14.463  0.00  0.00    -0.251 OA
ATOM     11  N   UNL     1      31.566 -24.309 -15.697  0.00  0.00    -0.289 N 
ATOM     12  N   UNL     1      33.817 -23.969 -16.230  0.00  0.00    -0.169 N 
ATOM     13  C   UNL     1      32.723 -23.626 -15.375  0.00  0.00    +0.319 C 
ATOM     14  H   UNL     1      31.587 -24.945 -16.447  0.00  0.00    +0.151 HD
ATOM     15  H   UNL     1      33.648 -24.631 -16.940  0.00  0.00    +0.178 HD
BRANCH  11  16
ATOM     16  C   UNL     1      30.322 -24.130 -14.979  0.00  0.00    +0.073 C 
ATOM     17  C   UNL     1      29.292 -25.187 -15.391  0.00  0.00    +0.020 C 
ATOM     18  C   UNL     1      29.773 -22.713 -15.173  0.00  0.00    +0.020 C 
ATOM     19  C   UNL     1      28.748 -24.955 -16.800  0.00  0.00    +0.002 C 
ATOM     20  C   UNL     1      29.228 -22.485 -16.583  0.00  0.00    +0.002 C 
ATOM     21  C   UNL     1      28.196 -23.541 -16.966  0.00  0.00    +0.000 C 
ENDBRANCH  11  16
ENDBRANCH   7  12
ENDBRANCH   1   7
BRANCH   2  22
ATOM     22  C   UNL     1      35.847 -20.505 -21.435  0.00  0.00    +0.048 C 
BRANCH  22  23
ATOM     23  C   UNL     1      36.558 -19.148 -21.350  0.00  0.00    +0.094 C 
BRANCH  23  25
ATOM     24  O   UNL     1      35.258 -16.623 -20.934  0.00  0.00    -0.270 OA
ATOM     25  N   UNL     1      36.114 -18.234 -22.367  0.00  0.00    -0.300 N 
ATOM     26  C   UNL     1      35.490 -17.028 -22.071  0.00  0.00    +0.249 C 
ATOM     27  H   UNL     1      36.256 -18.472 -23.312  0.00  0.00    +0.150 HD
BRANCH  26  29
ATOM     28 CL   UNL     1      34.127 -12.397 -23.887  0.00  0.00    -0.082 Cl
ATOM     29  C   UNL     1      35.066 -16.208 -23.234  0.00  0.00    +0.088 C 
ATOM     30  C   UNL     1      34.920 -16.799 -24.473  0.00  0.00    +0.143 C 
ATOM     31  C   UNL     1      34.829 -14.863 -23.029  0.00  0.00    +0.019 C 
ATOM     32  C   UNL     1      34.521 -16.012 -25.553  0.00  0.00    +0.038 C 
ATOM     33  C   UNL     1      34.430 -14.077 -24.110  0.00  0.00    +0.058 C 
ATOM     34  C   UNL     1      34.275 -14.651 -25.372  0.00  0.00    +0.015 C 
BRANCH  30  35
ATOM     35  O   UNL     1      35.155 -18.127 -24.671  0.00  0.00    -0.471 OA
ATOM     36  C   UNL     1      34.058 -18.917 -25.125  0.00  0.00    +0.252 C 
ENDBRANCH  30  35
ENDBRANCH  26  29
ENDBRANCH  23  25
ENDBRANCH  22  23
ENDBRANCH   2  22
TORSDOF 8
ENDMDL
MODEL 9
REMARK VINA RESULT:     -10.4      4.199     11.848
REMARK  Name = 3488
REMARK  8 active torsions:
REMARK  status: ('A' for Active; 'I' for Inactive)
REMARK    1  A    between atoms: C_1  and  S_7
REMARK    2  A    between atoms: C_2  and  C_22
REMARK    3  A    between atoms: S_7  and  N_12
REMARK    4  A    between atoms: N_11  and  C_16
REMARK    5  A    between atoms: C_22  and  C_23
REMARK    6  A    between atoms: C_23  and  N_25
REMARK    7  A    between atoms: C_26  and  C_29
REMARK    8  A    between atoms: C_30  and  O_35
REMARK                            x       y       z     vdW  Elec       q    Type
REMARK                         _______ _______ _______ _____ _____    ______ ____
ROOT
ATOM      1  C   UNL     1      35.172 -20.392 -20.953  0.00  0.00    +0.125 C 
ATOM      2  C   UNL     1      34.279 -22.329 -19.187  0.00  0.00    -0.020 C 
ATOM      3  C   UNL     1      36.096 -21.125 -20.230  0.00  0.00    +0.020 C 
ATOM      4  C   UNL     1      33.811 -20.604 -20.815  0.00  0.00    +0.020 C 
ATOM      5  C   UNL     1      35.646 -22.101 -19.339  0.00  0.00    -0.003 C 
ATOM      6  C   UNL     1      33.360 -21.581 -19.926  0.00  0.00    -0.003 C 
ENDROOT
BRANCH   1   7
ATOM      7  S   UNL     1      35.742 -19.156 -22.080  0.00  0.00    +0.077 S 
ATOM      8  O   UNL     1      35.089 -19.374 -23.357  0.00  0.00    -0.150 OA
ATOM      9  O   UNL     1      37.188 -19.138 -21.987  0.00  0.00    -0.150 OA
BRANCH   7  12
ATOM     10  O   UNL     1      36.018 -16.149 -22.808  0.00  0.00    -0.251 OA
ATOM     11  N   UNL     1      34.701 -15.460 -21.038  0.00  0.00    -0.289 N 
ATOM     12  N   UNL     1      35.112 -17.739 -21.358  0.00  0.00    -0.169 N 
ATOM     13  C   UNL     1      35.336 -16.404 -21.821  0.00  0.00    +0.319 C 
ATOM     14  H   UNL     1      34.176 -15.765 -20.264  0.00  0.00    +0.151 HD
ATOM     15  H   UNL     1      34.549 -17.853 -20.559  0.00  0.00    +0.178 HD
BRANCH  11  16
ATOM     16  C   UNL     1      34.773 -14.040 -21.306  0.00  0.00    +0.073 C 
ATOM     17  C   UNL     1      33.671 -13.282 -20.557  0.00  0.00    +0.020 C 
ATOM     18  C   UNL     1      34.717 -13.759 -22.810  0.00  0.00    +0.020 C 
ATOM     19  C   UNL     1      32.285 -13.530 -21.150  0.00  0.00    +0.002 C 
ATOM     20  C   UNL     1      33.328 -14.007 -23.400  0.00  0.00    +0.002 C 
ATOM     21  C   UNL     1      32.251 -13.233 -22.647  0.00  0.00    +0.000 C 
ENDBRANCH  11  16
ENDBRANCH   7  12
ENDBRANCH   1   7
BRANCH   2  22
ATOM     22  C   UNL     1      33.797 -23.371 -18.235  0.00  0.00    +0.048 C 
BRANCH  22  23
ATOM     23  C   UNL     1      33.534 -22.836 -16.821  0.00  0.00    +0.094 C 
BRANCH  23  25
ATOM     24  O   UNL     1      32.988 -24.612 -14.633  0.00  0.00    -0.270 OA
ATOM     25  N   UNL     1      34.483 -23.335 -15.864  0.00  0.00    -0.300 N 
ATOM     26  C   UNL     1      34.127 -24.195 -14.833  0.00  0.00    +0.249 C 
ATOM     27  H   UNL     1      35.425 -23.056 -15.941  0.00  0.00    +0.150 HD
BRANCH  26  29
ATOM     28 CL   UNL     1      36.008 -24.206 -10.030  0.00  0.00    -0.082 Cl
ATOM     29  C   UNL     1      35.219 -24.599 -13.910  0.00  0.00    +0.088 C 
ATOM     30  C   UNL     1      36.305 -25.298 -14.396  0.00  0.00    +0.143 C 
ATOM     31  C   UNL     1      35.105 -24.253 -12.578  0.00  0.00    +0.019 C 
ATOM     32  C   UNL     1      37.320 -25.668 -13.515  0.00  0.00    +0.038 C 
ATOM     33  C   UNL     1      36.121 -24.623 -11.696  0.00  0.00    +0.058 C 
ATOM     34  C   UNL     1      37.228 -25.330 -12.164  0.00  0.00    +0.015 C 
BRANCH  30  35
ATOM     35  O   UNL     1      36.413 -25.638 -15.712  0.00  0.00    -0.471 OA
ATOM     36  C   UNL     1      36.711 -27.001 -16.006  0.00  0.00    +0.252 C 
ENDBRANCH  30  35
ENDBRANCH  26  29
ENDBRANCH  23  25
ENDBRANCH  22  23
ENDBRANCH   2  22
TORSDOF 8
ENDMDL
