MODEL 1
REMARK VINA RESULT:     -11.9      0.000      0.000
REMARK  Name = 46892373
REMARK  3 active torsions:
REMARK  status: ('A' for Active; 'I' for Inactive)
REMARK    1  A    between atoms: C_7  and  C_20
REMARK    2  A    between atoms: C_20  and  C_22
REMARK    3  A    between atoms: C_20  and  O_28
REMARK                            x       y       z     vdW  Elec       q    Type
REMARK                         _______ _______ _______ _____ _____    ______ ____
ROOT
ATOM      1  N   UNL     1      34.375 -23.811 -17.405  0.00  0.00    -0.326 NA
ATOM      2  N   UNL     1      34.923 -24.534 -15.234  0.00  0.00    -0.271 N 
ATOM      3  N   UNL     1      32.204 -22.876 -17.879  0.00  0.00    -0.345 NA
ATOM      4  N   UNL     1      38.354 -24.150 -15.596  0.00  0.00    -0.239 N 
ATOM      5  N   UNL     1      37.124 -23.883 -16.065  0.00  0.00    -0.166 NA
ATOM      6  C   UNL     1      32.724 -23.603 -15.652  0.00  0.00    +0.072 C 
ATOM      7  C   UNL     1      33.451 -23.268 -18.213  0.00  0.00    +0.146 C 
ATOM      8  C   UNL     1      33.981 -23.965 -16.127  0.00  0.00    +0.199 C 
ATOM      9  C   UNL     1      31.843 -23.045 -16.594  0.00  0.00    +0.129 C 
ATOM     10  C   UNL     1      32.335 -23.774 -14.313  0.00  0.00    +0.006 C 
ATOM     11  C   UNL     1      30.575 -22.669 -16.156  0.00  0.00    +0.086 C 
ATOM     12  C   UNL     1      36.326 -24.507 -15.194  0.00  0.00    +0.152 C 
ATOM     13  C   UNL     1      31.062 -23.391 -13.902  0.00  0.00    -0.004 C 
ATOM     14  C   UNL     1      30.182 -22.837 -14.825  0.00  0.00    -0.019 C 
ATOM     15  C   UNL     1      37.042 -25.168 -14.178  0.00  0.00    +0.048 C 
ATOM     16  C   UNL     1      38.361 -24.916 -14.468  0.00  0.00    +0.046 C 
ATOM     17  C   UNL     1      39.609 -25.320 -13.801  0.00  0.00    +0.049 C 
ATOM     18  H   UNL     1      34.515 -25.049 -14.501  0.00  0.00    +0.156 HD
ATOM     19  H   UNL     1      39.177 -23.823 -16.029  0.00  0.00    +0.174 HD
ENDROOT
BRANCH   7  20
ATOM     20  C   UNL     1      33.844 -23.077 -19.640  0.00  0.00    +0.243 C 
BRANCH  20  22
ATOM     21  F   UNL     1      37.675 -18.995 -20.424  0.00  0.00    -0.204 F 
ATOM     22  C   UNL     1      34.876 -21.976 -19.851  0.00  0.00    +0.021 C 
ATOM     23  C   UNL     1      34.636 -20.964 -20.780  0.00  0.00    +0.001 C 
ATOM     24  C   UNL     1      36.062 -21.982 -19.117  0.00  0.00    +0.001 C 
ATOM     25  C   UNL     1      35.581 -19.956 -20.973  0.00  0.00    +0.029 C 
ATOM     26  C   UNL     1      37.009 -20.975 -19.311  0.00  0.00    +0.029 C 
ATOM     27  C   UNL     1      36.767 -19.962 -20.239  0.00  0.00    +0.140 C 
ENDBRANCH  20  22
BRANCH  20  28
ATOM     28  O   UNL     1      34.319 -24.295 -20.241  0.00  0.00    -0.366 OA
ATOM     29  H   UNL     1      35.041 -24.093 -20.857  0.00  0.00    +0.212 HD
ENDBRANCH  20  28
ENDBRANCH   7  20
TORSDOF 3
ENDMDL
MODEL 2
REMARK VINA RESULT:     -11.6      1.729      5.360
REMARK  Name = 46892373
REMARK  3 active torsions:
REMARK  status: ('A' for Active; 'I' for Inactive)
REMARK    1  A    between atoms: C_7  and  C_20
REMARK    2  A    between atoms: C_20  and  C_22
REMARK    3  A    between atoms: C_20  and  O_28
REMARK                            x       y       z     vdW  Elec       q    Type
REMARK                         _______ _______ _______ _____ _____    ______ ____
ROOT
ATOM      1  N   UNL     1      32.339 -22.903 -17.595  0.00  0.00    -0.326 NA
ATOM      2  N   UNL     1      30.989 -22.691 -15.679  0.00  0.00    -0.271 N 
ATOM      3  N   UNL     1      34.584 -23.764 -17.428  0.00  0.00    -0.345 NA
ATOM      4  N   UNL     1      27.961 -22.878 -17.367  0.00  0.00    -0.239 N 
ATOM      5  N   UNL     1      29.291 -23.065 -17.393  0.00  0.00    -0.166 NA
ATOM      6  C   UNL     1      33.240 -23.564 -15.451  0.00  0.00    +0.072 C 
ATOM      7  C   UNL     1      33.527 -23.269 -18.102  0.00  0.00    +0.146 C 
ATOM      8  C   UNL     1      32.226 -23.063 -16.263  0.00  0.00    +0.199 C 
ATOM      9  C   UNL     1      34.437 -23.911 -16.099  0.00  0.00    +0.129 C 
ATOM     10  C   UNL     1      33.098 -23.721 -14.062  0.00  0.00    +0.006 C 
ATOM     11  C   UNL     1      35.475 -24.416 -15.320  0.00  0.00    +0.086 C 
ATOM     12  C   UNL     1      29.673 -22.686 -16.170  0.00  0.00    +0.152 C 
ATOM     13  C   UNL     1      34.151 -24.228 -13.307  0.00  0.00    -0.004 C 
ATOM     14  C   UNL     1      35.340 -24.576 -13.937  0.00  0.00    -0.019 C 
ATOM     15  C   UNL     1      28.596 -22.260 -15.371  0.00  0.00    +0.048 C 
ATOM     16  C   UNL     1      27.494 -22.397 -16.180  0.00  0.00    +0.046 C 
ATOM     17  C   UNL     1      26.066 -22.124 -15.950  0.00  0.00    +0.049 C 
ATOM     18  H   UNL     1      31.067 -22.375 -14.751  0.00  0.00    +0.156 HD
ATOM     19  H   UNL     1      27.376 -23.071 -18.136  0.00  0.00    +0.174 HD
ENDROOT
BRANCH   7  20
ATOM     20  C   UNL     1      33.698 -23.108 -19.576  0.00  0.00    +0.243 C 
BRANCH  20  22
ATOM     21  F   UNL     1      37.046 -18.790 -21.027  0.00  0.00    -0.204 F 
ATOM     22  C   UNL     1      34.600 -21.944 -19.967  0.00  0.00    +0.021 C 
ATOM     23  C   UNL     1      34.079 -20.869 -20.687  0.00  0.00    +0.001 C 
ATOM     24  C   UNL     1      35.948 -21.954 -19.607  0.00  0.00    +0.001 C 
ATOM     25  C   UNL     1      34.905 -19.803 -21.044  0.00  0.00    +0.029 C 
ATOM     26  C   UNL     1      36.774 -20.888 -19.965  0.00  0.00    +0.029 C 
ATOM     27  C   UNL     1      36.252 -19.813 -20.683  0.00  0.00    +0.140 C 
ENDBRANCH  20  22
BRANCH  20  28
ATOM     28  O   UNL     1      34.178 -24.312 -20.203  0.00  0.00    -0.366 OA
ATOM     29  H   UNL     1      35.138 -24.378 -20.083  0.00  0.00    +0.212 HD
ENDBRANCH  20  28
ENDBRANCH   7  20
TORSDOF 3
ENDMDL
MODEL 3
REMARK VINA RESULT:     -11.1      2.947      7.091
REMARK  Name = 46892373
REMARK  3 active torsions:
REMARK  status: ('A' for Active; 'I' for Inactive)
REMARK    1  A    between atoms: C_7  and  C_20
REMARK    2  A    between atoms: C_20  and  C_22
REMARK    3  A    between atoms: C_20  and  O_28
REMARK                            x       y       z     vdW  Elec       q    Type
REMARK                         _______ _______ _______ _____ _____    ______ ____
ROOT
ATOM      1  N   UNL     1      33.117 -23.678 -15.979  0.00  0.00    -0.326 NA
ATOM      2  N   UNL     1      31.417 -22.918 -17.417  0.00  0.00    -0.271 N 
ATOM      3  N   UNL     1      35.439 -23.346 -16.535  0.00  0.00    -0.345 NA
ATOM      4  N   UNL     1      28.985 -22.627 -14.957  0.00  0.00    -0.239 N 
ATOM      5  N   UNL     1      30.286 -22.768 -15.259  0.00  0.00    -0.166 NA
ATOM      6  C   UNL     1      33.736 -22.556 -18.028  0.00  0.00    +0.072 C 
ATOM      7  C   UNL     1      34.435 -23.785 -15.748  0.00  0.00    +0.146 C 
ATOM      8  C   UNL     1      32.799 -23.056 -17.129  0.00  0.00    +0.199 C 
ATOM      9  C   UNL     1      35.085 -22.730 -17.677  0.00  0.00    +0.129 C 
ATOM     10  C   UNL     1      33.378 -21.911 -19.224  0.00  0.00    +0.006 C 
ATOM     11  C   UNL     1      36.053 -22.242 -18.552  0.00  0.00    +0.086 C 
ATOM     12  C   UNL     1      30.286 -22.789 -16.595  0.00  0.00    +0.152 C 
ATOM     13  C   UNL     1      34.365 -21.433 -20.080  0.00  0.00    -0.004 C 
ATOM     14  C   UNL     1      35.704 -21.599 -19.743  0.00  0.00    -0.019 C 
ATOM     15  C   UNL     1      28.996 -22.663 -17.141  0.00  0.00    +0.048 C 
ATOM     16  C   UNL     1      28.170 -22.560 -16.048  0.00  0.00    +0.046 C 
ATOM     17  C   UNL     1      26.711 -22.407 -15.929  0.00  0.00    +0.049 C 
ATOM     18  H   UNL     1      31.211 -22.911 -18.379  0.00  0.00    +0.156 HD
ATOM     19  H   UNL     1      28.651 -22.578 -14.032  0.00  0.00    +0.174 HD
ENDROOT
BRANCH   7  20
ATOM     20  C   UNL     1      34.836 -24.468 -14.483  0.00  0.00    +0.243 C 
BRANCH  20  22
ATOM     21  F   UNL     1      40.094 -26.544 -14.579  0.00  0.00    -0.204 F 
ATOM     22  C   UNL     1      36.254 -25.028 -14.509  0.00  0.00    +0.021 C 
ATOM     23  C   UNL     1      36.535 -26.181 -15.241  0.00  0.00    +0.001 C 
ATOM     24  C   UNL     1      37.270 -24.387 -13.801  0.00  0.00    +0.001 C 
ATOM     25  C   UNL     1      37.832 -26.694 -15.265  0.00  0.00    +0.029 C 
ATOM     26  C   UNL     1      38.568 -24.899 -13.823  0.00  0.00    +0.029 C 
ATOM     27  C   UNL     1      38.848 -26.053 -14.557  0.00  0.00    +0.140 C 
ENDBRANCH  20  22
BRANCH  20  28
ATOM     28  O   UNL     1      34.683 -23.617 -13.333  0.00  0.00    -0.366 OA
ATOM     29  H   UNL     1      34.546 -24.162 -12.542  0.00  0.00    +0.212 HD
ENDBRANCH  20  28
ENDBRANCH   7  20
TORSDOF 3
ENDMDL
MODEL 4
REMARK VINA RESULT:     -10.8      2.974      5.677
REMARK  Name = 46892373
REMARK  3 active torsions:
REMARK  status: ('A' for Active; 'I' for Inactive)
REMARK    1  A    between atoms: C_7  and  C_20
REMARK    2  A    between atoms: C_20  and  C_22
REMARK    3  A    between atoms: C_20  and  O_28
REMARK                            x       y       z     vdW  Elec       q    Type
REMARK                         _______ _______ _______ _____ _____    ______ ____
ROOT
ATOM      1  N   UNL     1      34.840 -23.938 -15.490  0.00  0.00    -0.326 NA
ATOM      2  N   UNL     1      37.090 -23.617 -16.097  0.00  0.00    -0.271 N 
ATOM      3  N   UNL     1      33.059 -23.139 -16.904  0.00  0.00    -0.345 NA
ATOM      4  N   UNL     1      38.326 -26.305 -14.281  0.00  0.00    -0.239 N 
ATOM      5  N   UNL     1      37.259 -25.682 -14.806  0.00  0.00    -0.166 NA
ATOM      6  C   UNL     1      35.341 -22.790 -17.558  0.00  0.00    +0.072 C 
ATOM      7  C   UNL     1      33.549 -23.753 -15.808  0.00  0.00    +0.146 C 
ATOM      8  C   UNL     1      35.714 -23.445 -16.387  0.00  0.00    +0.199 C 
ATOM      9  C   UNL     1      33.960 -22.657 -17.779  0.00  0.00    +0.129 C 
ATOM     10  C   UNL     1      36.272 -22.283 -18.479  0.00  0.00    +0.006 C 
ATOM     11  C   UNL     1      33.547 -22.007 -18.940  0.00  0.00    +0.086 C 
ATOM     12  C   UNL     1      37.794 -24.608 -15.392  0.00  0.00    +0.152 C 
ATOM     13  C   UNL     1      35.833 -21.638 -19.631  0.00  0.00    -0.004 C 
ATOM     14  C   UNL     1      34.469 -21.501 -19.861  0.00  0.00    -0.019 C 
ATOM     15  C   UNL     1      39.191 -24.546 -15.243  0.00  0.00    +0.048 C 
ATOM     16  C   UNL     1      39.508 -25.666 -14.514  0.00  0.00    +0.046 C 
ATOM     17  C   UNL     1      40.793 -26.187 -14.020  0.00  0.00    +0.049 C 
ATOM     18  H   UNL     1      37.665 -22.903 -16.457  0.00  0.00    +0.156 HD
ATOM     19  H   UNL     1      38.261 -27.147 -13.773  0.00  0.00    +0.174 HD
ENDROOT
BRANCH   7  20
ATOM     20  C   UNL     1      32.543 -24.284 -14.842  0.00  0.00    +0.243 C 
BRANCH  20  22
ATOM     21  F   UNL     1      27.194 -23.123 -16.255  0.00  0.00    -0.204 F 
ATOM     22  C   UNL     1      31.100 -23.971 -15.223  0.00  0.00    +0.021 C 
ATOM     23  C   UNL     1      30.312 -24.948 -15.831  0.00  0.00    +0.001 C 
ATOM     24  C   UNL     1      30.569 -22.708 -14.964  0.00  0.00    +0.001 C 
ATOM     25  C   UNL     1      28.992 -24.662 -16.179  0.00  0.00    +0.029 C 
ATOM     26  C   UNL     1      29.249 -22.421 -15.313  0.00  0.00    +0.029 C 
ATOM     27  C   UNL     1      28.461 -23.399 -15.921  0.00  0.00    +0.140 C 
ENDBRANCH  20  22
BRANCH  20  28
ATOM     28  O   UNL     1      32.683 -25.701 -14.634  0.00  0.00    -0.366 OA
ATOM     29  H   UNL     1      32.558 -26.166 -15.477  0.00  0.00    +0.212 HD
ENDBRANCH  20  28
ENDBRANCH   7  20
TORSDOF 3
ENDMDL
MODEL 5
REMARK VINA RESULT:     -10.7      3.129      6.788
REMARK  Name = 46892373
REMARK  3 active torsions:
REMARK  status: ('A' for Active; 'I' for Inactive)
REMARK    1  A    between atoms: C_7  and  C_20
REMARK    2  A    between atoms: C_20  and  C_22
REMARK    3  A    between atoms: C_20  and  O_28
REMARK                            x       y       z     vdW  Elec       q    Type
REMARK                         _______ _______ _______ _____ _____    ______ ____
ROOT
ATOM      1  N   UNL     1      35.560 -23.551 -16.242  0.00  0.00    -0.326 NA
ATOM      2  N   UNL     1      33.350 -23.563 -17.051  0.00  0.00    -0.271 N 
ATOM      3  N   UNL     1      37.291 -22.351 -17.412  0.00  0.00    -0.345 NA
ATOM      4  N   UNL     1      31.859 -24.179 -13.976  0.00  0.00    -0.239 N 
ATOM      5  N   UNL     1      32.958 -23.806 -14.654  0.00  0.00    -0.166 NA
ATOM      6  C   UNL     1      35.051 -22.338 -18.270  0.00  0.00    +0.072 C 
ATOM      7  C   UNL     1      36.821 -23.126 -16.413  0.00  0.00    +0.146 C 
ATOM      8  C   UNL     1      34.696 -23.139 -17.188  0.00  0.00    +0.199 C 
ATOM      9  C   UNL     1      36.401 -21.958 -18.341  0.00  0.00    +0.129 C 
ATOM     10  C   UNL     1      34.131 -21.921 -19.246  0.00  0.00    +0.006 C 
ATOM     11  C   UNL     1      36.796 -21.154 -19.409  0.00  0.00    +0.086 C 
ATOM     12  C   UNL     1      32.562 -23.865 -15.928  0.00  0.00    +0.152 C 
ATOM     13  C   UNL     1      34.551 -21.120 -20.302  0.00  0.00    -0.004 C 
ATOM     14  C   UNL     1      35.885 -20.736 -20.383  0.00  0.00    -0.019 C 
ATOM     15  C   UNL     1      31.222 -24.272 -16.064  0.00  0.00    +0.048 C 
ATOM     16  C   UNL     1      30.792 -24.469 -14.774  0.00  0.00    +0.046 C 
ATOM     17  C   UNL     1      29.496 -24.898 -14.225  0.00  0.00    +0.049 C 
ATOM     18  H   UNL     1      32.877 -23.667 -17.907  0.00  0.00    +0.156 HD
ATOM     19  H   UNL     1      31.828 -24.237 -12.994  0.00  0.00    +0.174 HD
ENDROOT
BRANCH   7  20
ATOM     20  C   UNL     1      37.815 -23.558 -15.387  0.00  0.00    +0.243 C 
BRANCH  20  22
ATOM     21  F   UNL     1      35.580 -24.410 -10.265  0.00  0.00    -0.204 F 
ATOM     22  C   UNL     1      37.212 -23.787 -14.006  0.00  0.00    +0.021 C 
ATOM     23  C   UNL     1      37.564 -22.954 -12.945  0.00  0.00    +0.001 C 
ATOM     24  C   UNL     1      36.309 -24.831 -13.804  0.00  0.00    +0.001 C 
ATOM     25  C   UNL     1      37.012 -23.164 -11.681  0.00  0.00    +0.029 C 
ATOM     26  C   UNL     1      35.758 -25.042 -12.540  0.00  0.00    +0.029 C 
ATOM     27  C   UNL     1      36.110 -24.207 -11.478  0.00  0.00    +0.140 C 
ENDBRANCH  20  22
BRANCH  20  28
ATOM     28  O   UNL     1      38.538 -24.735 -15.791  0.00  0.00    -0.366 OA
ATOM     29  H   UNL     1      39.101 -24.524 -16.552  0.00  0.00    +0.212 HD
ENDBRANCH  20  28
ENDBRANCH   7  20
TORSDOF 3
ENDMDL
MODEL 6
REMARK VINA RESULT:     -10.6      2.923      5.822
REMARK  Name = 46892373
REMARK  3 active torsions:
REMARK  status: ('A' for Active; 'I' for Inactive)
REMARK    1  A    between atoms: C_7  and  C_20
REMARK    2  A    between atoms: C_20  and  C_22
REMARK    3  A    between atoms: C_20  and  O_28
REMARK                            x       y       z     vdW  Elec       q    Type
REMARK                         _______ _______ _______ _____ _____    ______ ____
ROOT
ATOM      1  N   UNL     1      33.665 -23.136 -16.913  0.00  0.00    -0.326 NA
ATOM      2  N   UNL     1      35.971 -23.129 -16.448  0.00  0.00    -0.271 N 
ATOM      3  N   UNL     1      32.811 -22.106 -18.918  0.00  0.00    -0.345 NA
ATOM      4  N   UNL     1      35.927 -25.954 -14.430  0.00  0.00    -0.239 N 
ATOM      5  N   UNL     1      35.290 -25.192 -15.335  0.00  0.00    -0.166 NA
ATOM      6  C   UNL     1      35.170 -22.077 -18.480  0.00  0.00    +0.072 C 
ATOM      7  C   UNL     1      32.683 -22.777 -17.755  0.00  0.00    +0.146 C 
ATOM      8  C   UNL     1      34.900 -22.772 -17.305  0.00  0.00    +0.199 C 
ATOM      9  C   UNL     1      34.059 -21.756 -19.278  0.00  0.00    +0.129 C 
ATOM     10  C   UNL     1      36.468 -21.706 -18.867  0.00  0.00    +0.006 C 
ATOM     11  C   UNL     1      34.288 -21.062 -20.464  0.00  0.00    +0.086 C 
ATOM     12  C   UNL     1      36.159 -24.204 -15.564  0.00  0.00    +0.152 C 
ATOM     13  C   UNL     1      36.670 -21.012 -20.056  0.00  0.00    -0.004 C 
ATOM     14  C   UNL     1      35.578 -20.690 -20.855  0.00  0.00    -0.019 C 
ATOM     15  C   UNL     1      37.341 -24.334 -14.812  0.00  0.00    +0.048 C 
ATOM     16  C   UNL     1      37.159 -25.484 -14.083  0.00  0.00    +0.046 C 
ATOM     17  C   UNL     1      38.015 -26.174 -13.105  0.00  0.00    +0.049 C 
ATOM     18  H   UNL     1      36.730 -22.503 -16.478  0.00  0.00    +0.156 HD
ATOM     19  H   UNL     1      35.539 -26.777 -14.052  0.00  0.00    +0.174 HD
ENDROOT
BRANCH   7  20
ATOM     20  C   UNL     1      31.295 -23.161 -17.362  0.00  0.00    +0.243 C 
BRANCH  20  22
ATOM     21  F   UNL     1      30.922 -25.352 -12.164  0.00  0.00    -0.204 F 
ATOM     22  C   UNL     1      31.195 -23.752 -15.961  0.00  0.00    +0.021 C 
ATOM     23  C   UNL     1      30.630 -25.014 -15.775  0.00  0.00    +0.001 C 
ATOM     24  C   UNL     1      31.667 -23.031 -14.864  0.00  0.00    +0.001 C 
ATOM     25  C   UNL     1      30.538 -25.555 -14.492  0.00  0.00    +0.029 C 
ATOM     26  C   UNL     1      31.575 -23.572 -13.581  0.00  0.00    +0.029 C 
ATOM     27  C   UNL     1      31.010 -24.834 -13.395  0.00  0.00    +0.140 C 
ENDBRANCH  20  22
BRANCH  20  28
ATOM     28  O   UNL     1      30.372 -22.064 -17.481  0.00  0.00    -0.366 OA
ATOM     29  H   UNL     1      30.414 -21.516 -16.682  0.00  0.00    +0.212 HD
ENDBRANCH  20  28
ENDBRANCH   7  20
TORSDOF 3
ENDMDL
MODEL 7
REMARK VINA RESULT:     -10.4      2.658      5.434
REMARK  Name = 46892373
REMARK  3 active torsions:
REMARK  status: ('A' for Active; 'I' for Inactive)
REMARK    1  A    between atoms: C_7  and  C_20
REMARK    2  A    between atoms: C_20  and  C_22
REMARK    3  A    between atoms: C_20  and  O_28
REMARK                            x       y       z     vdW  Elec       q    Type
REMARK                         _______ _______ _______ _____ _____    ______ ____
ROOT
ATOM      1  N   UNL     1      33.604 -23.641 -15.288  0.00  0.00    -0.326 NA
ATOM      2  N   UNL     1      32.633 -22.751 -17.237  0.00  0.00    -0.271 N 
ATOM      3  N   UNL     1      32.316 -25.029 -13.796  0.00  0.00    -0.345 NA
ATOM      4  N   UNL     1      35.614 -22.409 -18.984  0.00  0.00    -0.239 N 
ATOM      5  N   UNL     1      34.963 -22.945 -17.939  0.00  0.00    -0.166 NA
ATOM      6  C   UNL     1      31.289 -24.140 -15.774  0.00  0.00    +0.072 C 
ATOM      7  C   UNL     1      33.438 -24.392 -14.188  0.00  0.00    +0.146 C 
ATOM      8  C   UNL     1      32.508 -23.534 -16.063  0.00  0.00    +0.199 C 
ATOM      9  C   UNL     1      31.240 -24.900 -14.593  0.00  0.00    +0.129 C 
ATOM     10  C   UNL     1      30.158 -24.013 -16.598  0.00  0.00    +0.006 C 
ATOM     11  C   UNL     1      30.037 -25.523 -14.270  0.00  0.00    +0.086 C 
ATOM     12  C   UNL     1      33.720 -22.478 -18.084  0.00  0.00    +0.152 C 
ATOM     13  C   UNL     1      28.969 -24.645 -16.252  0.00  0.00    -0.004 C 
ATOM     14  C   UNL     1      28.908 -25.401 -15.086  0.00  0.00    -0.019 C 
ATOM     15  C   UNL     1      33.578 -21.649 -19.212  0.00  0.00    +0.048 C 
ATOM     16  C   UNL     1      34.830 -21.624 -19.778  0.00  0.00    +0.046 C 
ATOM     17  C   UNL     1      35.355 -20.944 -20.972  0.00  0.00    +0.049 C 
ATOM     18  H   UNL     1      31.796 -22.312 -17.513  0.00  0.00    +0.156 HD
ATOM     19  H   UNL     1      36.570 -22.567 -19.161  0.00  0.00    +0.174 HD
ENDROOT
BRANCH   7  20
ATOM     20  C   UNL     1      34.627 -24.539 -13.298  0.00  0.00    +0.243 C 
BRANCH  20  22
ATOM     21  F   UNL     1      39.569 -24.135 -16.013  0.00  0.00    -0.204 F 
ATOM     22  C   UNL     1      35.960 -24.430 -14.029  0.00  0.00    +0.021 C 
ATOM     23  C   UNL     1      36.446 -23.179 -14.409  0.00  0.00    +0.001 C 
ATOM     24  C   UNL     1      36.693 -25.581 -14.320  0.00  0.00    +0.001 C 
ATOM     25  C   UNL     1      37.666 -23.079 -15.079  0.00  0.00    +0.029 C 
ATOM     26  C   UNL     1      37.912 -25.481 -14.991  0.00  0.00    +0.029 C 
ATOM     27  C   UNL     1      38.399 -24.230 -15.370  0.00  0.00    +0.140 C 
ENDBRANCH  20  22
BRANCH  20  28
ATOM     28  O   UNL     1      34.608 -23.604 -12.204  0.00  0.00    -0.366 OA
ATOM     29  H   UNL     1      33.821 -23.042 -12.272  0.00  0.00    +0.212 HD
ENDBRANCH  20  28
ENDBRANCH   7  20
TORSDOF 3
ENDMDL
MODEL 8
REMARK VINA RESULT:     -10.2      3.188      6.680
REMARK  Name = 46892373
REMARK  3 active torsions:
REMARK  status: ('A' for Active; 'I' for Inactive)
REMARK    1  A    between atoms: C_7  and  C_20
REMARK    2  A    between atoms: C_20  and  C_22
REMARK    3  A    between atoms: C_20  and  O_28
REMARK                            x       y       z     vdW  Elec       q    Type
REMARK                         _______ _______ _______ _____ _____    ______ ____
ROOT
ATOM      1  N   UNL     1      32.653 -24.161 -15.630  0.00  0.00    -0.326 NA
ATOM      2  N   UNL     1      34.458 -23.294 -16.864  0.00  0.00    -0.271 N 
ATOM      3  N   UNL     1      32.922 -24.759 -13.311  0.00  0.00    -0.345 NA
ATOM      4  N   UNL     1      32.510 -21.596 -19.182  0.00  0.00    -0.239 N 
ATOM      5  N   UNL     1      32.579 -22.226 -17.998  0.00  0.00    -0.166 NA
ATOM      6  C   UNL     1      34.789 -23.878 -14.534  0.00  0.00    +0.072 C 
ATOM      7  C   UNL     1      32.213 -24.627 -14.450  0.00  0.00    +0.146 C 
ATOM      8  C   UNL     1      33.947 -23.794 -15.640  0.00  0.00    +0.199 C 
ATOM      9  C   UNL     1      34.213 -24.383 -13.356  0.00  0.00    +0.129 C 
ATOM     10  C   UNL     1      36.138 -23.488 -14.569  0.00  0.00    +0.006 C 
ATOM     11  C   UNL     1      35.023 -24.483 -12.227  0.00  0.00    +0.086 C 
ATOM     12  C   UNL     1      33.861 -22.594 -17.925  0.00  0.00    +0.152 C 
ATOM     13  C   UNL     1      36.925 -23.599 -13.428  0.00  0.00    -0.004 C 
ATOM     14  C   UNL     1      36.366 -24.096 -12.255  0.00  0.00    -0.019 C 
ATOM     15  C   UNL     1      34.604 -22.203 -19.053  0.00  0.00    +0.048 C 
ATOM     16  C   UNL     1      33.696 -21.555 -19.854  0.00  0.00    +0.046 C 
ATOM     17  C   UNL     1      33.829 -20.911 -21.171  0.00  0.00    +0.049 C 
ATOM     18  H   UNL     1      35.417 -23.472 -16.997  0.00  0.00    +0.156 HD
ATOM     19  H   UNL     1      31.679 -21.201 -19.533  0.00  0.00    +0.174 HD
ENDROOT
BRANCH   7  20
ATOM     20  C   UNL     1      30.782 -25.048 -14.392  0.00  0.00    +0.243 C 
BRANCH  20  22
ATOM     21  F   UNL     1      27.387 -22.060 -17.784  0.00  0.00    -0.204 F 
ATOM     22  C   UNL     1      29.868 -24.242 -15.306  0.00  0.00    +0.021 C 
ATOM     23  C   UNL     1      29.679 -22.879 -15.079  0.00  0.00    +0.001 C 
ATOM     24  C   UNL     1      29.218 -24.868 -16.370  0.00  0.00    +0.001 C 
ATOM     25  C   UNL     1      28.841 -22.141 -15.916  0.00  0.00    +0.029 C 
ATOM     26  C   UNL     1      28.379 -24.131 -17.207  0.00  0.00    +0.029 C 
ATOM     27  C   UNL     1      28.192 -22.767 -16.980  0.00  0.00    +0.140 C 
ENDBRANCH  20  22
BRANCH  20  28
ATOM     28  O   UNL     1      30.615 -26.450 -14.668  0.00  0.00    -0.366 OA
ATOM     29  H   UNL     1      31.036 -26.971 -13.967  0.00  0.00    +0.212 HD
ENDBRANCH  20  28
ENDBRANCH   7  20
TORSDOF 3
ENDMDL
MODEL 9
REMARK VINA RESULT:     -10.1      3.096      6.262
REMARK  Name = 46892373
REMARK  3 active torsions:
REMARK  status: ('A' for Active; 'I' for Inactive)
REMARK    1  A    between atoms: C_7  and  C_20
REMARK    2  A    between atoms: C_20  and  C_22
REMARK    3  A    between atoms: C_20  and  O_28
REMARK                            x       y       z     vdW  Elec       q    Type
REMARK                         _______ _______ _______ _____ _____    ______ ____
ROOT
ATOM      1  N   UNL     1      34.165 -23.605 -16.533  0.00  0.00    -0.326 NA
ATOM      2  N   UNL     1      32.821 -22.250 -17.910  0.00  0.00    -0.271 N 
ATOM      3  N   UNL     1      33.167 -25.097 -14.925  0.00  0.00    -0.345 NA
ATOM      4  N   UNL     1      35.155 -21.921 -20.459  0.00  0.00    -0.239 N 
ATOM      5  N   UNL     1      34.766 -22.571 -19.349  0.00  0.00    -0.166 NA
ATOM      6  C   UNL     1      31.761 -23.732 -16.310  0.00  0.00    +0.072 C 
ATOM      7  C   UNL     1      34.212 -24.530 -15.562  0.00  0.00    +0.146 C 
ATOM      8  C   UNL     1      32.923 -23.226 -16.886  0.00  0.00    +0.199 C 
ATOM      9  C   UNL     1      31.940 -24.695 -15.303  0.00  0.00    +0.129 C 
ATOM     10  C   UNL     1      30.475 -23.321 -16.696  0.00  0.00    +0.006 C 
ATOM     11  C   UNL     1      30.801 -25.227 -14.702  0.00  0.00    +0.086 C 
ATOM     12  C   UNL     1      33.634 -21.946 -19.013  0.00  0.00    +0.152 C 
ATOM     13  C   UNL     1      29.354 -23.867 -16.079  0.00  0.00    -0.004 C 
ATOM     14  C   UNL     1      29.518 -24.822 -15.081  0.00  0.00    -0.019 C 
ATOM     15  C   UNL     1      33.304 -20.905 -19.900  0.00  0.00    +0.048 C 
ATOM     16  C   UNL     1      34.315 -20.914 -20.831  0.00  0.00    +0.046 C 
ATOM     17  C   UNL     1      34.566 -20.081 -22.018  0.00  0.00    +0.049 C 
ATOM     18  H   UNL     1      32.027 -21.674 -17.832  0.00  0.00    +0.156 HD
ATOM     19  H   UNL     1      35.973 -22.151 -20.957  0.00  0.00    +0.174 HD
ENDROOT
BRANCH   7  20
ATOM     20  C   UNL     1      35.570 -24.980 -15.137  0.00  0.00    +0.243 C 
BRANCH  20  22
ATOM     21  F   UNL     1      37.143 -23.020 -10.073  0.00  0.00    -0.204 F 
ATOM     22  C   UNL     1      35.994 -24.451 -13.772  0.00  0.00    +0.021 C 
ATOM     23  C   UNL     1      37.021 -23.513 -13.676  0.00  0.00    +0.001 C 
ATOM     24  C   UNL     1      35.356 -24.907 -12.618  0.00  0.00    +0.001 C 
ATOM     25  C   UNL     1      37.409 -23.028 -12.427  0.00  0.00    +0.029 C 
ATOM     26  C   UNL     1      35.744 -24.424 -11.368  0.00  0.00    +0.029 C 
ATOM     27  C   UNL     1      36.771 -23.484 -11.273  0.00  0.00    +0.140 C 
ENDBRANCH  20  22
BRANCH  20  28
ATOM     28  O   UNL     1      35.697 -26.414 -15.151  0.00  0.00    -0.366 OA
ATOM     29  H   UNL     1      34.926 -26.803 -15.592  0.00  0.00    +0.212 HD
ENDBRANCH  20  28
ENDBRANCH   7  20
TORSDOF 3
ENDMDL
