MODEL 1
REMARK VINA RESULT:     -12.7      0.000      0.000
REMARK  Name = 5291
REMARK  6 active torsions:
REMARK  status: ('A' for Active; 'I' for Inactive)
REMARK    1  A    between atoms: C_1  and  N_23
REMARK    2  A    between atoms: C_2  and  N_8
REMARK    3  A    between atoms: C_12  and  C_17
REMARK    4  A    between atoms: C_24  and  C_31
REMARK    5  A    between atoms: C_26  and  C_32
REMARK    6  A    between atoms: C_32  and  N_33
REMARK                            x       y       z     vdW  Elec       q    Type
REMARK                         _______ _______ _______ _____ _____    ______ ____
ROOT
ATOM      1  C   UNL     1      32.961 -23.104 -16.540  0.00  0.00    +0.052 C 
ATOM      2  C   UNL     1      32.931 -23.907 -14.282  0.00  0.00    +0.055 C 
ATOM      3  C   UNL     1      33.544 -23.158 -15.285  0.00  0.00    +0.030 C 
ATOM      4  C   UNL     1      31.744 -24.591 -14.547  0.00  0.00    -0.008 C 
ATOM      5  C   UNL     1      31.784 -23.777 -16.821  0.00  0.00    +0.014 C 
ATOM      6  C   UNL     1      31.172 -24.527 -15.817  0.00  0.00    -0.002 C 
ATOM      7  C   UNL     1      31.067 -25.402 -13.491  0.00  0.00    +0.032 C 
ENDROOT
BRANCH   2   8
ATOM      8  N   UNL     1      33.524 -23.962 -13.000  0.00  0.00    -0.248 N 
ATOM      9  N   UNL     1      35.791 -24.240 -13.539  0.00  0.00    -0.337 NA
ATOM     10  N   UNL     1      35.070 -24.125 -11.243  0.00  0.00    -0.170 NA
ATOM     11  C   UNL     1      34.856 -24.116 -12.574  0.00  0.00    +0.149 C 
ATOM     12  C   UNL     1      37.057 -24.387 -13.096  0.00  0.00    +0.147 C 
ATOM     13  C   UNL     1      37.403 -24.411 -11.760  0.00  0.00    +0.055 C 
ATOM     14  C   UNL     1      36.358 -24.275 -10.870  0.00  0.00    +0.114 C 
ATOM     15  H   UNL     1      32.879 -23.874 -12.262  0.00  0.00    +0.165 HD
BRANCH  12  17
ATOM     16  N   UNL     1      39.014 -23.699 -16.193  0.00  0.00    -0.242 NA
ATOM     17  C   UNL     1      38.056 -24.518 -14.129  0.00  0.00    +0.050 C 
ATOM     18  C   UNL     1      39.002 -25.537 -14.087  0.00  0.00    +0.006 C 
ATOM     19  C   UNL     1      38.105 -23.633 -15.194  0.00  0.00    +0.101 C 
ATOM     20  C   UNL     1      39.953 -25.638 -15.096  0.00  0.00    +0.021 C 
ATOM     21  C   UNL     1      39.916 -24.703 -16.117  0.00  0.00    +0.099 C 
ENDBRANCH  12  17
ENDBRANCH   2   8
BRANCH   1  23
ATOM     22  O   UNL     1      33.965 -23.935 -19.241  0.00  0.00    -0.270 OA
ATOM     23  N   UNL     1      33.582 -22.343 -17.559  0.00  0.00    -0.280 N 
ATOM     24  C   UNL     1      34.039 -22.771 -18.814  0.00  0.00    +0.249 C 
ATOM     25  H   UNL     1      33.710 -21.387 -17.362  0.00  0.00    +0.155 HD
BRANCH  24  31
ATOM     26  C   UNL     1      35.863 -19.809 -21.221  0.00  0.00    -0.043 C 
ATOM     27  C   UNL     1      36.657 -20.648 -20.452  0.00  0.00    -0.006 C 
ATOM     28  C   UNL     1      34.480 -19.928 -21.214  0.00  0.00    -0.006 C 
ATOM     29  C   UNL     1      36.055 -21.625 -19.659  0.00  0.00    +0.004 C 
ATOM     30  C   UNL     1      33.878 -20.905 -20.420  0.00  0.00    +0.004 C 
ATOM     31  C   UNL     1      34.666 -21.754 -19.643  0.00  0.00    +0.054 C 
BRANCH  26  32
ATOM     32  C   UNL     1      36.511 -18.755 -22.079  0.00  0.00    -0.050 C 
BRANCH  32  33
ATOM     33  N   UNL     1      35.534 -18.050 -22.908  0.00  0.00    +0.387 N 
ATOM     34  N   UNL     1      34.776 -16.402 -25.158  0.00  0.00    +0.383 N 
ATOM     35  C   UNL     1      35.529 -18.584 -24.275  0.00  0.00    -0.100 C 
ATOM     36  C   UNL     1      35.805 -16.608 -22.921  0.00  0.00    -0.100 C 
ATOM     37  C   UNL     1      34.506 -17.845 -25.145  0.00  0.00    -0.101 C 
ATOM     38  C   UNL     1      34.784 -15.868 -23.790  0.00  0.00    -0.101 C 
ATOM     39  C   UNL     1      33.798 -15.699 -25.985  0.00  0.00    -0.101 C 
ATOM     40  H   UNL     1      34.611 -18.201 -22.500  0.00  0.00    -0.079 HD
ATOM     41  H   UNL     1      35.699 -16.252 -25.566  0.00  0.00    -0.080 HD
ENDBRANCH  32  33
ENDBRANCH  26  32
ENDBRANCH  24  31
ENDBRANCH   1  23
TORSDOF 6
ENDMDL
MODEL 2
REMARK VINA RESULT:     -10.8      2.986      5.895
REMARK  Name = 5291
REMARK  6 active torsions:
REMARK  status: ('A' for Active; 'I' for Inactive)
REMARK    1  A    between atoms: C_1  and  N_23
REMARK    2  A    between atoms: C_2  and  N_8
REMARK    3  A    between atoms: C_12  and  C_17
REMARK    4  A    between atoms: C_24  and  C_31
REMARK    5  A    between atoms: C_26  and  C_32
REMARK    6  A    between atoms: C_32  and  N_33
REMARK                            x       y       z     vdW  Elec       q    Type
REMARK                         _______ _______ _______ _____ _____    ______ ____
ROOT
ATOM      1  C   UNL     1      34.493 -20.331 -20.640  0.00  0.00    +0.052 C 
ATOM      2  C   UNL     1      33.314 -21.889 -19.253  0.00  0.00    +0.055 C 
ATOM      3  C   UNL     1      33.346 -20.683 -19.950  0.00  0.00    +0.030 C 
ATOM      4  C   UNL     1      34.430 -22.727 -19.256  0.00  0.00    -0.008 C 
ATOM      5  C   UNL     1      35.609 -21.149 -20.653  0.00  0.00    +0.014 C 
ATOM      6  C   UNL     1      35.577 -22.356 -19.955  0.00  0.00    -0.002 C 
ATOM      7  C   UNL     1      34.423 -24.025 -18.516  0.00  0.00    +0.032 C 
ENDROOT
BRANCH   2   8
ATOM      8  N   UNL     1      32.143 -22.251 -18.549  0.00  0.00    -0.248 N 
ATOM      9  N   UNL     1      33.028 -22.990 -16.505  0.00  0.00    -0.337 NA
ATOM     10  N   UNL     1      30.652 -23.006 -16.902  0.00  0.00    -0.170 NA
ATOM     11  C   UNL     1      31.931 -22.773 -17.260  0.00  0.00    +0.149 C 
ATOM     12  C   UNL     1      32.790 -23.492 -15.276  0.00  0.00    +0.147 C 
ATOM     13  C   UNL     1      31.527 -23.772 -14.795  0.00  0.00    +0.055 C 
ATOM     14  C   UNL     1      30.485 -23.507 -15.660  0.00  0.00    +0.114 C 
ATOM     15  H   UNL     1      31.314 -22.108 -19.060  0.00  0.00    +0.165 HD
BRANCH  12  17
ATOM     16  N   UNL     1      34.924 -24.543 -12.407  0.00  0.00    -0.242 NA
ATOM     17  C   UNL     1      33.964 -23.723 -14.470  0.00  0.00    +0.050 C 
ATOM     18  C   UNL     1      35.230 -23.376 -14.929  0.00  0.00    +0.006 C 
ATOM     19  C   UNL     1      33.866 -24.299 -13.213  0.00  0.00    +0.101 C 
ATOM     20  C   UNL     1      36.342 -23.611 -14.129  0.00  0.00    +0.021 C 
ATOM     21  C   UNL     1      36.138 -24.192 -12.888  0.00  0.00    +0.099 C 
ENDBRANCH  12  17
ENDBRANCH   2   8
BRANCH   1  23
ATOM     22  O   UNL     1      36.725 -18.361 -21.005  0.00  0.00    -0.270 OA
ATOM     23  N   UNL     1      34.526 -19.105 -21.349  0.00  0.00    -0.280 N 
ATOM     24  C   UNL     1      35.595 -18.209 -21.497  0.00  0.00    +0.249 C 
ATOM     25  H   UNL     1      33.688 -18.849 -21.798  0.00  0.00    +0.155 HD
BRANCH  24  31
ATOM     26  C   UNL     1      34.777 -14.717 -23.739  0.00  0.00    -0.043 C 
ATOM     27  C   UNL     1      34.714 -14.669 -22.354  0.00  0.00    -0.006 C 
ATOM     28  C   UNL     1      35.104 -15.893 -24.400  0.00  0.00    -0.006 C 
ATOM     29  C   UNL     1      34.985 -15.821 -21.615  0.00  0.00    +0.004 C 
ATOM     30  C   UNL     1      35.374 -17.045 -23.661  0.00  0.00    +0.004 C 
ATOM     31  C   UNL     1      35.315 -17.008 -22.268  0.00  0.00    +0.054 C 
BRANCH  26  32
ATOM     32  C   UNL     1      34.486 -13.475 -24.539  0.00  0.00    -0.050 C 
BRANCH  32  33
ATOM     33  N   UNL     1      34.074 -12.362 -23.684  0.00  0.00    +0.387 N 
ATOM     34  N   UNL     1      32.337 -10.160 -22.981  0.00  0.00    +0.383 N 
ATOM     35  C   UNL     1      32.732 -12.595 -23.137  0.00  0.00    -0.100 C 
ATOM     36  C   UNL     1      34.113 -11.095 -24.424  0.00  0.00    -0.100 C 
ATOM     37  C   UNL     1      32.299 -11.428 -22.242  0.00  0.00    -0.101 C 
ATOM     38  C   UNL     1      33.679  -9.927 -23.532  0.00  0.00    -0.101 C 
ATOM     39  C   UNL     1      31.927  -9.049 -22.126  0.00  0.00    -0.101 C 
ATOM     40  H   UNL     1      34.732 -12.302 -22.908  0.00  0.00    -0.079 HD
ATOM     41  H   UNL     1      31.679 -10.220 -23.757  0.00  0.00    -0.080 HD
ENDBRANCH  32  33
ENDBRANCH  26  32
ENDBRANCH  24  31
ENDBRANCH   1  23
TORSDOF 6
ENDMDL
