MODEL 1
REMARK VINA RESULT:     -12.2      0.000      0.000
REMARK  Name = 3815
REMARK  0 active torsions:
REMARK  status: ('A' for Active; 'I' for Inactive)
REMARK                            x       y       z     vdW  Elec       q    Type
REMARK                         _______ _______ _______ _____ _____    ______ ____
ROOT
ATOM      1  O   UNL     1      37.718 -22.657 -16.842  0.00  0.00    -0.270 OA
ATOM      2  N   UNL     1      31.209 -23.148 -17.467  0.00  0.00    -0.352 N 
ATOM      3  N   UNL     1      32.874 -21.837 -19.278  0.00  0.00    -0.352 N 
ATOM      4  N   UNL     1      36.701 -23.844 -15.091  0.00  0.00    -0.297 N 
ATOM      5  C   UNL     1      34.546 -23.688 -15.829  0.00  0.00    +0.003 A 
ATOM      6  C   UNL     1      33.186 -23.686 -16.136  0.00  0.00    +0.016 A 
ATOM      7  C   UNL     1      34.781 -22.433 -17.865  0.00  0.00    +0.022 A 
ATOM      8  C   UNL     1      32.546 -23.089 -17.269  0.00  0.00    +0.072 A 
ATOM      9  C   UNL     1      35.367 -23.027 -16.748  0.00  0.00    +0.053 A 
ATOM     10  C   UNL     1      33.381 -22.432 -18.176  0.00  0.00    +0.073 A 
ATOM     11  C   UNL     1      35.361 -24.250 -14.713  0.00  0.00    +0.117 C 
ATOM     12  C   UNL     1      31.949 -24.205 -15.544  0.00  0.00    +0.017 A 
ATOM     13  C   UNL     1      35.176 -21.663 -19.056  0.00  0.00    +0.017 A 
ATOM     14  C   UNL     1      30.811 -23.871 -16.351  0.00  0.00    +0.057 A 
ATOM     15  C   UNL     1      34.030 -21.334 -19.857  0.00  0.00    +0.057 A 
ATOM     16  C   UNL     1      36.745 -23.123 -16.282  0.00  0.00    +0.246 C 
ATOM     17  C   UNL     1      31.720 -24.947 -14.360  0.00  0.00    +0.001 C 
ATOM     18  C   UNL     1      36.436 -21.216 -19.521  0.00  0.00    +0.001 C 
ATOM     19  C   UNL     1      29.515 -24.262 -15.988  0.00  0.00    +0.017 C 
ATOM     20  C   UNL     1      34.147 -20.601 -21.048  0.00  0.00    +0.017 C 
ATOM     21  C   UNL     1      30.422 -25.331 -14.008  0.00  0.00    +0.000 C 
ATOM     22  C   UNL     1      36.541 -20.485 -20.709  0.00  0.00    +0.000 C 
ATOM     23  C   UNL     1      29.339 -24.993 -14.811  0.00  0.00    +0.001 C 
ATOM     24  C   UNL     1      35.412 -20.183 -21.460  0.00  0.00    +0.001 C 
ATOM     25  H   UNL     1      30.666 -22.779 -18.201  0.00  0.00    +0.166 HD
ATOM     26  H   UNL     1      31.942 -21.777 -19.587  0.00  0.00    +0.166 HD
ATOM     27  H   UNL     1      37.502 -24.057 -14.559  0.00  0.00    +0.150 HD
ENDROOT
TORSDOF 0
ENDMDL
MODEL 2
REMARK VINA RESULT:     -12.1      2.176      4.713
REMARK  Name = 3815
REMARK  0 active torsions:
REMARK  status: ('A' for Active; 'I' for Inactive)
REMARK                            x       y       z     vdW  Elec       q    Type
REMARK                         _______ _______ _______ _____ _____    ______ ____
ROOT
ATOM      1  O   UNL     1      31.394 -22.758 -17.518  0.00  0.00    -0.270 OA
ATOM      2  N   UNL     1      37.728 -23.513 -15.997  0.00  0.00    -0.352 N 
ATOM      3  N   UNL     1      36.796 -22.151 -18.244  0.00  0.00    -0.352 N 
ATOM      4  N   UNL     1      31.738 -23.973 -15.539  0.00  0.00    -0.297 N 
ATOM      5  C   UNL     1      34.021 -23.907 -15.535  0.00  0.00    +0.003 A 
ATOM      6  C   UNL     1      35.406 -23.960 -15.383  0.00  0.00    +0.016 A 
ATOM      7  C   UNL     1      34.511 -22.659 -17.530  0.00  0.00    +0.022 A 
ATOM      8  C   UNL     1      36.403 -23.399 -16.243  0.00  0.00    +0.072 A 
ATOM      9  C   UNL     1      33.571 -23.220 -16.666  0.00  0.00    +0.053 A 
ATOM     10  C   UNL     1      35.935 -22.717 -17.369  0.00  0.00    +0.073 A 
ATOM     11  C   UNL     1      32.866 -24.429 -14.748  0.00  0.00    +0.117 C 
ATOM     12  C   UNL     1      36.362 -24.525 -14.424  0.00  0.00    +0.017 A 
ATOM     13  C   UNL     1      34.556 -21.886 -18.781  0.00  0.00    +0.017 A 
ATOM     14  C   UNL     1      37.712 -24.244 -14.816  0.00  0.00    +0.057 A 
ATOM     15  C   UNL     1      35.912 -21.609 -19.165  0.00  0.00    +0.057 A 
ATOM     16  C   UNL     1      32.113 -23.259 -16.675  0.00  0.00    +0.246 C 
ATOM     17  C   UNL     1      36.163 -25.267 -13.235  0.00  0.00    +0.001 C 
ATOM     18  C   UNL     1      33.534 -21.392 -19.628  0.00  0.00    +0.001 C 
ATOM     19  C   UNL     1      38.804 -24.683 -14.054  0.00  0.00    +0.017 C 
ATOM     20  C   UNL     1      36.218 -20.884 -20.326  0.00  0.00    +0.017 C 
ATOM     21  C   UNL     1      37.260 -25.700 -12.483  0.00  0.00    +0.000 C 
ATOM     22  C   UNL     1      33.850 -20.671 -20.784  0.00  0.00    +0.000 C 
ATOM     23  C   UNL     1      38.558 -25.411 -12.888  0.00  0.00    +0.001 C 
ATOM     24  C   UNL     1      35.173 -20.421 -21.126  0.00  0.00    +0.001 C 
ATOM     25  H   UNL     1      38.495 -23.172 -16.512  0.00  0.00    +0.166 HD
ATOM     26  H   UNL     1      37.780 -22.129 -18.231  0.00  0.00    +0.166 HD
ATOM     27  H   UNL     1      30.801 -24.150 -15.297  0.00  0.00    +0.150 HD
ENDROOT
TORSDOF 0
ENDMDL
MODEL 3
REMARK VINA RESULT:     -12.0      0.913      5.955
REMARK  Name = 3815
REMARK  0 active torsions:
REMARK  status: ('A' for Active; 'I' for Inactive)
REMARK                            x       y       z     vdW  Elec       q    Type
REMARK                         _______ _______ _______ _____ _____    ______ ____
ROOT
ATOM      1  O   UNL     1      35.267 -24.722 -13.925  0.00  0.00    -0.270 OA
ATOM      2  N   UNL     1      32.866 -21.780 -19.272  0.00  0.00    -0.352 N 
ATOM      3  N   UNL     1      31.318 -23.104 -17.369  0.00  0.00    -0.352 N 
ATOM      4  N   UNL     1      36.919 -23.728 -15.263  0.00  0.00    -0.297 N 
ATOM      5  C   UNL     1      35.543 -22.907 -16.889  0.00  0.00    +0.003 A 
ATOM      6  C   UNL     1      34.848 -22.343 -17.958  0.00  0.00    +0.016 A 
ATOM      7  C   UNL     1      33.370 -23.609 -16.137  0.00  0.00    +0.022 A 
ATOM      8  C   UNL     1      33.436 -22.364 -18.193  0.00  0.00    +0.072 A 
ATOM      9  C   UNL     1      34.751 -23.566 -15.944  0.00  0.00    +0.053 A 
ATOM     10  C   UNL     1      32.660 -23.028 -17.239  0.00  0.00    +0.073 A 
ATOM     11  C   UNL     1      36.982 -22.975 -16.502  0.00  0.00    +0.117 C 
ATOM     12  C   UNL     1      35.171 -21.579 -19.167  0.00  0.00    +0.017 A 
ATOM     13  C   UNL     1      32.167 -24.145 -15.479  0.00  0.00    +0.017 A 
ATOM     14  C   UNL     1      33.986 -21.267 -19.913  0.00  0.00    +0.057 A 
ATOM     15  C   UNL     1      30.986 -23.827 -16.233  0.00  0.00    +0.057 A 
ATOM     16  C   UNL     1      35.624 -24.093 -14.902  0.00  0.00    +0.246 C 
ATOM     17  C   UNL     1      36.410 -21.127 -19.683  0.00  0.00    +0.001 C 
ATOM     18  C   UNL     1      31.989 -24.884 -14.285  0.00  0.00    +0.001 C 
ATOM     19  C   UNL     1      34.043 -20.540 -21.110  0.00  0.00    +0.017 C 
ATOM     20  C   UNL     1      29.710 -24.230 -15.811  0.00  0.00    +0.017 C 
ATOM     21  C   UNL     1      36.454 -20.402 -20.878  0.00  0.00    +0.000 C 
ATOM     22  C   UNL     1      30.712 -25.281 -13.874  0.00  0.00    +0.000 C 
ATOM     23  C   UNL     1      35.288 -20.116 -21.578  0.00  0.00    +0.001 C 
ATOM     24  C   UNL     1      29.591 -24.957 -14.627  0.00  0.00    +0.001 C 
ATOM     25  H   UNL     1      31.918 -21.733 -19.534  0.00  0.00    +0.166 HD
ATOM     26  H   UNL     1      30.734 -22.745 -18.076  0.00  0.00    +0.166 HD
ATOM     27  H   UNL     1      37.714 -23.958 -14.729  0.00  0.00    +0.150 HD
ENDROOT
TORSDOF 0
ENDMDL
MODEL 4
REMARK VINA RESULT:     -11.8      2.174      6.443
REMARK  Name = 3815
REMARK  0 active torsions:
REMARK  status: ('A' for Active; 'I' for Inactive)
REMARK                            x       y       z     vdW  Elec       q    Type
REMARK                         _______ _______ _______ _____ _____    ______ ____
ROOT
ATOM      1  O   UNL     1      32.835 -24.980 -13.655  0.00  0.00    -0.270 OA
ATOM      2  N   UNL     1      36.738 -22.214 -18.141  0.00  0.00    -0.352 N 
ATOM      3  N   UNL     1      37.644 -23.530 -15.856  0.00  0.00    -0.352 N 
ATOM      4  N   UNL     1      31.659 -23.976 -15.421  0.00  0.00    -0.297 N 
ATOM      5  C   UNL     1      33.464 -23.225 -16.601  0.00  0.00    +0.003 A 
ATOM      6  C   UNL     1      34.449 -22.702 -17.437  0.00  0.00    +0.016 A 
ATOM      7  C   UNL     1      35.312 -23.961 -15.251  0.00  0.00    +0.022 A 
ATOM      8  C   UNL     1      35.869 -22.761 -17.259  0.00  0.00    +0.072 A 
ATOM      9  C   UNL     1      33.935 -23.882 -15.460  0.00  0.00    +0.053 A 
ATOM     10  C   UNL     1      36.322 -23.420 -16.114  0.00  0.00    +0.073 A 
ATOM     11  C   UNL     1      31.973 -23.250 -16.637  0.00  0.00    +0.117 C 
ATOM     12  C   UNL     1      34.505 -21.957 -18.699  0.00  0.00    +0.017 A 
ATOM     13  C   UNL     1      36.263 -24.507 -14.270  0.00  0.00    +0.017 A 
ATOM     14  C   UNL     1      35.861 -21.689 -19.080  0.00  0.00    +0.057 A 
ATOM     15  C   UNL     1      37.618 -24.233 -14.661  0.00  0.00    +0.057 A 
ATOM     16  C   UNL     1      32.787 -24.364 -14.702  0.00  0.00    +0.246 C 
ATOM     17  C   UNL     1      33.477 -21.487 -19.551  0.00  0.00    +0.001 C 
ATOM     18  C   UNL     1      36.074 -25.223 -13.063  0.00  0.00    +0.001 C 
ATOM     19  C   UNL     1      36.168 -20.987 -20.255  0.00  0.00    +0.017 C 
ATOM     20  C   UNL     1      38.710 -24.653 -13.886  0.00  0.00    +0.017 C 
ATOM     21  C   UNL     1      33.795 -20.789 -20.720  0.00  0.00    +0.000 C 
ATOM     22  C   UNL     1      37.169 -25.636 -12.297  0.00  0.00    +0.000 C 
ATOM     23  C   UNL     1      35.119 -20.544 -21.064  0.00  0.00    +0.001 C 
ATOM     24  C   UNL     1      38.467 -25.354 -12.705  0.00  0.00    +0.001 C 
ATOM     25  H   UNL     1      37.722 -22.194 -18.122  0.00  0.00    +0.166 HD
ATOM     26  H   UNL     1      38.414 -23.202 -16.373  0.00  0.00    +0.166 HD
ATOM     27  H   UNL     1      30.739 -24.176 -15.132  0.00  0.00    +0.150 HD
ENDROOT
TORSDOF 0
ENDMDL
MODEL 5
REMARK VINA RESULT:     -10.7      2.210      6.010
REMARK  Name = 3815
REMARK  0 active torsions:
REMARK  status: ('A' for Active; 'I' for Inactive)
REMARK                            x       y       z     vdW  Elec       q    Type
REMARK                         _______ _______ _______ _____ _____    ______ ____
ROOT
ATOM      1  O   UNL     1      32.750 -21.963 -19.095  0.00  0.00    -0.270 OA
ATOM      2  N   UNL     1      34.742 -25.021 -13.646  0.00  0.00    -0.352 N 
ATOM      3  N   UNL     1      32.073 -24.637 -14.355  0.00  0.00    -0.352 N 
ATOM      4  N   UNL     1      35.086 -22.066 -18.885  0.00  0.00    -0.297 N 
ATOM      5  C   UNL     1      35.164 -23.186 -16.898  0.00  0.00    +0.003 A 
ATOM      6  C   UNL     1      35.388 -23.861 -15.698  0.00  0.00    +0.016 A 
ATOM      7  C   UNL     1      32.837 -23.493 -16.379  0.00  0.00    +0.022 A 
ATOM      8  C   UNL     1      34.409 -24.379 -14.790  0.00  0.00    +0.072 A 
ATOM      9  C   UNL     1      33.821 -23.003 -17.238  0.00  0.00    +0.053 A 
ATOM     10  C   UNL     1      33.072 -24.186 -15.146  0.00  0.00    +0.073 A 
ATOM     11  C   UNL     1      36.052 -22.593 -17.940  0.00  0.00    +0.117 C 
ATOM     12  C   UNL     1      36.544 -24.298 -14.909  0.00  0.00    +0.017 A 
ATOM     13  C   UNL     1      31.370 -23.555 -16.281  0.00  0.00    +0.017 A 
ATOM     14  C   UNL     1      36.128 -24.973 -13.715  0.00  0.00    +0.057 A 
ATOM     15  C   UNL     1      30.964 -24.233 -15.082  0.00  0.00    +0.057 A 
ATOM     16  C   UNL     1      33.763 -22.287 -18.507  0.00  0.00    +0.246 C 
ATOM     17  C   UNL     1      37.935 -24.161 -15.137  0.00  0.00    +0.001 C 
ATOM     18  C   UNL     1      30.343 -23.081 -17.133  0.00  0.00    +0.001 C 
ATOM     19  C   UNL     1      37.059 -25.484 -12.799  0.00  0.00    +0.017 C 
ATOM     20  C   UNL     1      29.611 -24.420 -14.761  0.00  0.00    +0.017 C 
ATOM     21  C   UNL     1      38.854 -24.674 -14.216  0.00  0.00    +0.000 C 
ATOM     22  C   UNL     1      28.997 -23.272 -16.803  0.00  0.00    +0.000 C 
ATOM     23  C   UNL     1      38.420 -25.324 -13.067  0.00  0.00    +0.001 C 
ATOM     24  C   UNL     1      28.638 -23.932 -15.635  0.00  0.00    +0.001 C 
ATOM     25  H   UNL     1      34.162 -25.414 -12.955  0.00  0.00    +0.166 HD
ATOM     26  H   UNL     1      32.120 -25.120 -13.499  0.00  0.00    +0.166 HD
ATOM     27  H   UNL     1      35.339 -21.598 -19.714  0.00  0.00    +0.150 HD
ENDROOT
TORSDOF 0
ENDMDL
MODEL 6
REMARK VINA RESULT:     -10.4      1.851      4.720
REMARK  Name = 3815
REMARK  0 active torsions:
REMARK  status: ('A' for Active; 'I' for Inactive)
REMARK                            x       y       z     vdW  Elec       q    Type
REMARK                         _______ _______ _______ _____ _____    ______ ____
ROOT
ATOM      1  O   UNL     1      37.030 -22.428 -18.098  0.00  0.00    -0.270 OA
ATOM      2  N   UNL     1      31.997 -24.586 -14.489  0.00  0.00    -0.352 N 
ATOM      3  N   UNL     1      34.682 -24.955 -13.834  0.00  0.00    -0.352 N 
ATOM      4  N   UNL     1      34.934 -21.904 -19.015  0.00  0.00    -0.297 N 
ATOM      5  C   UNL     1      33.643 -22.865 -17.395  0.00  0.00    +0.003 A 
ATOM      6  C   UNL     1      32.716 -23.397 -16.499  0.00  0.00    +0.016 A 
ATOM      7  C   UNL     1      35.284 -23.748 -15.876  0.00  0.00    +0.022 A 
ATOM      8  C   UNL     1      32.982 -24.110 -15.286  0.00  0.00    +0.072 A 
ATOM      9  C   UNL     1      34.984 -23.058 -17.051  0.00  0.00    +0.053 A 
ATOM     10  C   UNL     1      34.327 -24.294 -14.959  0.00  0.00    +0.073 A 
ATOM     11  C   UNL     1      33.538 -22.111 -18.678  0.00  0.00    +0.117 C 
ATOM     12  C   UNL     1      31.256 -23.476 -16.383  0.00  0.00    +0.017 A 
ATOM     13  C   UNL     1      36.460 -24.192 -15.111  0.00  0.00    +0.017 A 
ATOM     14  C   UNL     1      30.872 -24.179 -15.194  0.00  0.00    +0.057 A 
ATOM     15  C   UNL     1      36.064 -24.895 -13.923  0.00  0.00    +0.057 A 
ATOM     16  C   UNL     1      35.814 -22.447 -18.082  0.00  0.00    +0.246 C 
ATOM     17  C   UNL     1      30.225 -22.990 -17.222  0.00  0.00    +0.001 C 
ATOM     18  C   UNL     1      37.850 -24.048 -15.341  0.00  0.00    +0.001 C 
ATOM     19  C   UNL     1      29.524 -24.382 -14.865  0.00  0.00    +0.017 C 
ATOM     20  C   UNL     1      37.007 -25.418 -13.025  0.00  0.00    +0.017 C 
ATOM     21  C   UNL     1      28.884 -23.198 -16.883  0.00  0.00    +0.000 C 
ATOM     22  C   UNL     1      38.782 -24.575 -14.440  0.00  0.00    +0.000 C 
ATOM     23  C   UNL     1      28.542 -23.883 -15.724  0.00  0.00    +0.001 C 
ATOM     24  C   UNL     1      38.364 -25.249 -13.300  0.00  0.00    +0.001 C 
ATOM     25  H   UNL     1      32.060 -25.084 -13.642  0.00  0.00    +0.166 HD
ATOM     26  H   UNL     1      34.115 -25.365 -13.142  0.00  0.00    +0.166 HD
ATOM     27  H   UNL     1      35.230 -21.426 -19.823  0.00  0.00    +0.150 HD
ENDROOT
TORSDOF 0
ENDMDL
MODEL 7
REMARK VINA RESULT:     -10.4      7.821     11.131
REMARK  Name = 3815
REMARK  0 active torsions:
REMARK  status: ('A' for Active; 'I' for Inactive)
REMARK                            x       y       z     vdW  Elec       q    Type
REMARK                         _______ _______ _______ _____ _____    ______ ____
ROOT
ATOM      1  O   UNL     1      34.963 -16.203 -26.390  0.00  0.00    -0.270 OA
ATOM      2  N   UNL     1      33.464 -13.843 -20.458  0.00  0.00    -0.352 N 
ATOM      3  N   UNL     1      34.956 -16.155 -20.906  0.00  0.00    -0.352 N 
ATOM      4  N   UNL     1      33.688 -14.234 -26.466  0.00  0.00    -0.297 N 
ATOM      5  C   UNL     1      33.491 -13.912 -24.214  0.00  0.00    +0.003 A 
ATOM      6  C   UNL     1      33.278 -13.571 -22.879  0.00  0.00    +0.016 A 
ATOM      7  C   UNL     1      34.704 -15.781 -23.311  0.00  0.00    +0.022 A 
ATOM      8  C   UNL     1      33.733 -14.268 -21.714  0.00  0.00    +0.072 A 
ATOM      9  C   UNL     1      34.242 -15.073 -24.421  0.00  0.00    +0.053 A 
ATOM     10  C   UNL     1      34.481 -15.426 -21.940  0.00  0.00    +0.073 A 
ATOM     11  C   UNL     1      33.094 -13.309 -25.519  0.00  0.00    +0.117 C 
ATOM     12  C   UNL     1      32.592 -12.507 -22.137  0.00  0.00    +0.017 A 
ATOM     13  C   UNL     1      35.485 -16.989 -23.004  0.00  0.00    +0.017 A 
ATOM     14  C   UNL     1      32.723 -12.699 -20.722  0.00  0.00    +0.057 A 
ATOM     15  C   UNL     1      35.610 -17.173 -21.585  0.00  0.00    +0.057 A 
ATOM     16  C   UNL     1      34.371 -15.285 -25.857  0.00  0.00    +0.246 C 
ATOM     17  C   UNL     1      31.861 -11.380 -22.583  0.00  0.00    +0.001 C 
ATOM     18  C   UNL     1      36.105 -17.954 -23.835  0.00  0.00    +0.001 C 
ATOM     19  C   UNL     1      32.150 -11.807 -19.805  0.00  0.00    +0.017 C 
ATOM     20  C   UNL     1      36.312 -18.258 -21.039  0.00  0.00    +0.017 C 
ATOM     21  C   UNL     1      31.294 -10.497 -21.658  0.00  0.00    +0.000 C 
ATOM     22  C   UNL     1      36.802 -19.033 -23.280  0.00  0.00    +0.000 C 
ATOM     23  C   UNL     1      31.438 -10.709 -20.293  0.00  0.00    +0.001 C 
ATOM     24  C   UNL     1      36.903 -19.180 -21.902  0.00  0.00    +0.001 C 
ATOM     25  H   UNL     1      33.722 -14.237 -19.593  0.00  0.00    +0.166 HD
ATOM     26  H   UNL     1      34.865 -16.006 -19.938  0.00  0.00    +0.166 HD
ATOM     27  H   UNL     1      33.617 -14.130 -27.442  0.00  0.00    +0.150 HD
ENDROOT
TORSDOF 0
ENDMDL
MODEL 8
REMARK VINA RESULT:      -9.5     11.202     14.592
REMARK  Name = 3815
REMARK  0 active torsions:
REMARK  status: ('A' for Active; 'I' for Inactive)
REMARK                            x       y       z     vdW  Elec       q    Type
REMARK                         _______ _______ _______ _____ _____    ______ ____
ROOT
ATOM      1  O   UNL     1      32.189 -13.090 -19.529  0.00  0.00    -0.270 OA
ATOM      2  N   UNL     1      32.844  -8.500 -24.166  0.00  0.00    -0.352 N 
ATOM      3  N   UNL     1      33.650 -11.153 -24.447  0.00  0.00    -0.352 N 
ATOM      4  N   UNL     1      31.380 -10.986 -18.877  0.00  0.00    -0.297 N 
ATOM      5  C   UNL     1      31.858  -9.864 -20.807  0.00  0.00    +0.003 A 
ATOM      6  C   UNL     1      32.081  -9.037 -21.908  0.00  0.00    +0.016 A 
ATOM      7  C   UNL     1      32.851 -11.575 -22.173  0.00  0.00    +0.022 A 
ATOM      8  C   UNL     1      32.675  -9.390 -23.161  0.00  0.00    +0.072 A 
ATOM      9  C   UNL     1      32.267 -11.191 -20.966  0.00  0.00    +0.053 A 
ATOM     10  C   UNL     1      33.079 -10.720 -23.302  0.00  0.00    +0.073 A 
ATOM     11  C   UNL     1      31.264  -9.660 -19.454  0.00  0.00    +0.117 C 
ATOM     12  C   UNL     1      31.855  -7.631 -22.260  0.00  0.00    +0.017 A 
ATOM     13  C   UNL     1      33.419 -12.776 -22.806  0.00  0.00    +0.017 A 
ATOM     14  C   UNL     1      32.314  -7.353 -23.589  0.00  0.00    +0.057 A 
ATOM     15  C   UNL     1      33.876 -12.486 -24.137  0.00  0.00    +0.057 A 
ATOM     16  C   UNL     1      31.965 -11.913 -19.736  0.00  0.00    +0.246 C 
ATOM     17  C   UNL     1      31.284  -6.565 -21.525  0.00  0.00    +0.001 C 
ATOM     18  C   UNL     1      33.582 -14.104 -22.345  0.00  0.00    +0.001 C 
ATOM     19  C   UNL     1      32.204  -6.073 -24.150  0.00  0.00    +0.017 C 
ATOM     20  C   UNL     1      34.459 -13.471 -24.949  0.00  0.00    +0.017 C 
ATOM     21  C   UNL     1      31.179  -5.292 -22.095  0.00  0.00    +0.000 C 
ATOM     22  C   UNL     1      34.166 -15.078 -23.162  0.00  0.00    +0.000 C 
ATOM     23  C   UNL     1      31.633  -5.053 -23.386  0.00  0.00    +0.001 C 
ATOM     24  C   UNL     1      34.597 -14.764 -24.444  0.00  0.00    +0.001 C 
ATOM     25  H   UNL     1      33.235  -8.628 -25.060  0.00  0.00    +0.166 HD
ATOM     26  H   UNL     1      33.851 -10.660 -25.274  0.00  0.00    +0.166 HD
ATOM     27  H   UNL     1      31.075 -11.209 -17.968  0.00  0.00    +0.150 HD
ENDROOT
TORSDOF 0
ENDMDL
