MODEL 1
REMARK VINA RESULT:     -10.9      0.000      0.000
REMARK  Name = 2448
REMARK  7 active torsions:
REMARK  status: ('A' for Active; 'I' for Inactive)
REMARK    1  A    between atoms: N_1  and  C_17
REMARK    2  A    between atoms: C_2  and  C_9
REMARK    3  A    between atoms: C_2  and  O_15
REMARK    4  A    between atoms: C_17  and  C_18
REMARK    5  A    between atoms: C_18  and  C_19
REMARK    6  A    between atoms: C_19  and  C_21
REMARK    7  A    between atoms: C_21  and  C_23
REMARK                            x       y       z     vdW  Elec       q    Type
REMARK                         _______ _______ _______ _____ _____    ______ ____
ROOT
ATOM      1  N   UNL     1      35.594 -20.284 -20.490  0.00  0.00    +0.387 N 
ATOM      2  C   UNL     1      34.221 -22.446 -18.986  0.00  0.00    +0.103 C 
ATOM      3  C   UNL     1      33.483 -21.287 -19.692  0.00  0.00    +0.008 C 
ATOM      4  C   UNL     1      35.676 -22.006 -18.705  0.00  0.00    +0.008 C 
ATOM      5  C   UNL     1      34.255 -20.728 -20.893  0.00  0.00    -0.075 C 
ATOM      6  C   UNL     1      36.371 -21.394 -19.928  0.00  0.00    -0.075 C 
ATOM      7  H   UNL     1      35.488 -19.576 -19.764  0.00  0.00    -0.080 HD
ENDROOT
BRANCH   2   9
ATOM      8 BR   UNL     1      31.517 -24.488 -13.784  0.00  0.00    -0.049 Br
ATOM      9  C   UNL     1      33.554 -22.947 -17.703  0.00  0.00    +0.002 C 
ATOM     10  C   UNL     1      34.327 -23.525 -16.697  0.00  0.00    -0.002 C 
ATOM     11  C   UNL     1      32.174 -22.827 -17.543  0.00  0.00    -0.002 C 
ATOM     12  C   UNL     1      33.721 -23.983 -15.528  0.00  0.00    +0.006 C 
ATOM     13  C   UNL     1      31.566 -23.286 -16.374  0.00  0.00    +0.006 C 
ATOM     14  C   UNL     1      32.340 -23.864 -15.367  0.00  0.00    +0.035 C 
ENDBRANCH   2   9
BRANCH   2  15
ATOM     15  O   UNL     1      34.226 -23.571 -19.877  0.00  0.00    -0.383 OA
ATOM     16  H   UNL     1      35.136 -23.890 -19.989  0.00  0.00    +0.211 HD
ENDBRANCH   2  15
BRANCH   1  17
ATOM     17  C   UNL     1      36.299 -19.688 -21.624  0.00  0.00    -0.077 C 
BRANCH  17  18
ATOM     18  C   UNL     1      35.298 -19.149 -22.647  0.00  0.00    -0.015 C 
BRANCH  18  19
ATOM     19  C   UNL     1      35.850 -17.952 -23.427  0.00  0.00    +0.067 C 
BRANCH  19  21
ATOM     20  O   UNL     1      34.407 -18.234 -25.341  0.00  0.00    -0.291 OA
ATOM     21  C   UNL     1      34.917 -17.467 -24.528  0.00  0.00    +0.173 C 
BRANCH  21  23
ATOM     22  F   UNL     1      33.726 -12.020 -24.814  0.00  0.00    -0.204 F 
ATOM     23  C   UNL     1      34.600 -16.013 -24.605  0.00  0.00    +0.035 C 
ATOM     24  C   UNL     1      34.985 -15.196 -23.565  0.00  0.00    +0.005 C 
ATOM     25  C   UNL     1      33.931 -15.539 -25.712  0.00  0.00    +0.005 C 
ATOM     26  C   UNL     1      34.688 -13.836 -23.637  0.00  0.00    +0.030 C 
ATOM     27  C   UNL     1      33.634 -14.179 -25.784  0.00  0.00    +0.030 C 
ATOM     28  C   UNL     1      34.012 -13.326 -24.746  0.00  0.00    +0.140 C 
ENDBRANCH  21  23
ENDBRANCH  19  21
ENDBRANCH  18  19
ENDBRANCH  17  18
ENDBRANCH   1  17
TORSDOF 7
ENDMDL
MODEL 2
REMARK VINA RESULT:     -10.9      1.041      1.697
REMARK  Name = 2448
REMARK  7 active torsions:
REMARK  status: ('A' for Active; 'I' for Inactive)
REMARK    1  A    between atoms: N_1  and  C_17
REMARK    2  A    between atoms: C_2  and  C_9
REMARK    3  A    between atoms: C_2  and  O_15
REMARK    4  A    between atoms: C_17  and  C_18
REMARK    5  A    between atoms: C_18  and  C_19
REMARK    6  A    between atoms: C_19  and  C_21
REMARK    7  A    between atoms: C_21  and  C_23
REMARK                            x       y       z     vdW  Elec       q    Type
REMARK                         _______ _______ _______ _____ _____    ______ ____
ROOT
ATOM      1  N   UNL     1      35.601 -20.297 -20.442  0.00  0.00    +0.387 N 
ATOM      2  C   UNL     1      34.211 -22.459 -18.952  0.00  0.00    +0.103 C 
ATOM      3  C   UNL     1      33.482 -21.298 -19.663  0.00  0.00    +0.008 C 
ATOM      4  C   UNL     1      35.665 -22.022 -18.658  0.00  0.00    +0.008 C 
ATOM      5  C   UNL     1      34.264 -20.738 -20.856  0.00  0.00    -0.075 C 
ATOM      6  C   UNL     1      36.370 -21.410 -19.875  0.00  0.00    -0.075 C 
ATOM      7  H   UNL     1      35.489 -19.590 -19.716  0.00  0.00    -0.080 HD
ENDROOT
BRANCH   2   9
ATOM      8 BR   UNL     1      31.464 -24.490 -13.768  0.00  0.00    -0.049 Br
ATOM      9  C   UNL     1      33.534 -22.961 -17.675  0.00  0.00    +0.002 C 
ATOM     10  C   UNL     1      32.157 -22.819 -17.515  0.00  0.00    -0.002 C 
ATOM     11  C   UNL     1      34.296 -23.559 -16.672  0.00  0.00    -0.002 C 
ATOM     12  C   UNL     1      31.539 -23.275 -16.352  0.00  0.00    +0.006 C 
ATOM     13  C   UNL     1      33.679 -24.015 -15.507  0.00  0.00    +0.006 C 
ATOM     14  C   UNL     1      32.300 -23.873 -15.347  0.00  0.00    +0.035 C 
ENDBRANCH   2   9
BRANCH   2  15
ATOM     15  O   UNL     1      34.221 -23.582 -19.844  0.00  0.00    -0.383 OA
ATOM     16  H   UNL     1      34.553 -24.365 -19.376  0.00  0.00    +0.211 HD
ENDBRANCH   2  15
BRANCH   1  17
ATOM     17  C   UNL     1      36.316 -19.700 -21.569  0.00  0.00    -0.077 C 
BRANCH  17  18
ATOM     18  C   UNL     1      35.324 -19.128 -22.583  0.00  0.00    -0.015 C 
BRANCH  18  19
ATOM     19  C   UNL     1      35.910 -17.955 -23.373  0.00  0.00    +0.067 C 
BRANCH  19  21
ATOM     20  O   UNL     1      35.359 -16.206 -21.804  0.00  0.00    -0.291 OA
ATOM     21  C   UNL     1      35.335 -16.605 -22.966  0.00  0.00    +0.173 C 
BRANCH  21  23
ATOM     22  F   UNL     1      33.123 -13.342 -26.918  0.00  0.00    -0.204 F 
ATOM     23  C   UNL     1      34.744 -15.734 -24.021  0.00  0.00    +0.035 C 
ATOM     24  C   UNL     1      34.515 -16.269 -25.268  0.00  0.00    +0.005 C 
ATOM     25  C   UNL     1      34.451 -14.425 -23.709  0.00  0.00    +0.005 C 
ATOM     26  C   UNL     1      33.962 -15.454 -26.255  0.00  0.00    +0.030 C 
ATOM     27  C   UNL     1      33.898 -13.610 -24.696  0.00  0.00    +0.030 C 
ATOM     28  C   UNL     1      33.653 -14.124 -25.969  0.00  0.00    +0.140 C 
ENDBRANCH  21  23
ENDBRANCH  19  21
ENDBRANCH  18  19
ENDBRANCH  17  18
ENDBRANCH   1  17
TORSDOF 7
ENDMDL
MODEL 3
REMARK VINA RESULT:     -10.8      1.801      2.282
REMARK  Name = 2448
REMARK  7 active torsions:
REMARK  status: ('A' for Active; 'I' for Inactive)
REMARK    1  A    between atoms: N_1  and  C_17
REMARK    2  A    between atoms: C_2  and  C_9
REMARK    3  A    between atoms: C_2  and  O_15
REMARK    4  A    between atoms: C_17  and  C_18
REMARK    5  A    between atoms: C_18  and  C_19
REMARK    6  A    between atoms: C_19  and  C_21
REMARK    7  A    between atoms: C_21  and  C_23
REMARK                            x       y       z     vdW  Elec       q    Type
REMARK                         _______ _______ _______ _____ _____    ______ ____
ROOT
ATOM      1  N   UNL     1      35.518 -20.121 -20.548  0.00  0.00    +0.387 N 
ATOM      2  C   UNL     1      34.259 -22.357 -19.052  0.00  0.00    +0.103 C 
ATOM      3  C   UNL     1      33.465 -21.211 -19.715  0.00  0.00    +0.008 C 
ATOM      4  C   UNL     1      35.706 -21.874 -18.801  0.00  0.00    +0.008 C 
ATOM      5  C   UNL     1      34.184 -20.602 -20.924  0.00  0.00    -0.075 C 
ATOM      6  C   UNL     1      36.346 -21.215 -20.029  0.00  0.00    -0.075 C 
ATOM      7  H   UNL     1      35.408 -19.431 -19.805  0.00  0.00    -0.080 HD
ENDROOT
BRANCH   2   9
ATOM      8 BR   UNL     1      31.770 -24.578 -13.816  0.00  0.00    -0.049 Br
ATOM      9  C   UNL     1      33.646 -22.906 -17.762  0.00  0.00    +0.002 C 
ATOM     10  C   UNL     1      32.264 -22.880 -17.583  0.00  0.00    -0.002 C 
ATOM     11  C   UNL     1      34.471 -23.431 -16.768  0.00  0.00    -0.002 C 
ATOM     12  C   UNL     1      31.704 -23.379 -16.407  0.00  0.00    +0.006 C 
ATOM     13  C   UNL     1      33.912 -23.930 -15.591  0.00  0.00    +0.006 C 
ATOM     14  C   UNL     1      32.528 -23.904 -15.411  0.00  0.00    +0.035 C 
ENDBRANCH   2   9
BRANCH   2  15
ATOM     15  O   UNL     1      34.278 -23.464 -19.966  0.00  0.00    -0.383 OA
ATOM     16  H   UNL     1      33.869 -23.197 -20.805  0.00  0.00    +0.211 HD
ENDBRANCH   2  15
BRANCH   1  17
ATOM     17  C   UNL     1      36.172 -19.479 -21.687  0.00  0.00    -0.077 C 
BRANCH  17  18
ATOM     18  C   UNL     1      35.272 -18.385 -22.267  0.00  0.00    -0.015 C 
BRANCH  18  19
ATOM     19  C   UNL     1      35.563 -17.010 -21.658  0.00  0.00    +0.067 C 
BRANCH  19  21
ATOM     20  O   UNL     1      35.706 -15.710 -23.686  0.00  0.00    -0.291 OA
ATOM     21  C   UNL     1      35.196 -15.853 -22.577  0.00  0.00    +0.173 C 
BRANCH  21  23
ATOM     22  F   UNL     1      31.342 -12.197 -20.863  0.00  0.00    -0.204 F 
ATOM     23  C   UNL     1      34.167 -14.877 -22.120  0.00  0.00    +0.035 C 
ATOM     24  C   UNL     1      33.770 -14.904 -20.801  0.00  0.00    +0.005 C 
ATOM     25  C   UNL     1      33.651 -13.984 -23.032  0.00  0.00    +0.005 C 
ATOM     26  C   UNL     1      32.808 -13.990 -20.373  0.00  0.00    +0.030 C 
ATOM     27  C   UNL     1      32.689 -13.071 -22.604  0.00  0.00    +0.030 C 
ATOM     28  C   UNL     1      32.266 -13.073 -21.275  0.00  0.00    +0.140 C 
ENDBRANCH  21  23
ENDBRANCH  19  21
ENDBRANCH  18  19
ENDBRANCH  17  18
ENDBRANCH   1  17
TORSDOF 7
ENDMDL
MODEL 4
REMARK VINA RESULT:     -10.7      2.901      4.904
REMARK  Name = 2448
REMARK  7 active torsions:
REMARK  status: ('A' for Active; 'I' for Inactive)
REMARK    1  A    between atoms: N_1  and  C_17
REMARK    2  A    between atoms: C_2  and  C_9
REMARK    3  A    between atoms: C_2  and  O_15
REMARK    4  A    between atoms: C_17  and  C_18
REMARK    5  A    between atoms: C_18  and  C_19
REMARK    6  A    between atoms: C_19  and  C_21
REMARK    7  A    between atoms: C_21  and  C_23
REMARK                            x       y       z     vdW  Elec       q    Type
REMARK                         _______ _______ _______ _____ _____    ______ ____
ROOT
ATOM      1  N   UNL     1      35.025 -16.758 -23.778  0.00  0.00    +0.387 N 
ATOM      2  C   UNL     1      35.598 -19.100 -22.043  0.00  0.00    +0.103 C 
ATOM      3  C   UNL     1      34.973 -19.206 -23.452  0.00  0.00    +0.008 C 
ATOM      4  C   UNL     1      35.342 -17.677 -21.495  0.00  0.00    +0.008 C 
ATOM      5  C   UNL     1      35.377 -18.051 -24.376  0.00  0.00    -0.075 C 
ATOM      6  C   UNL     1      35.704 -16.570 -22.492  0.00  0.00    -0.075 C 
ATOM      7  H   UNL     1      34.020 -16.752 -23.607  0.00  0.00    -0.080 HD
ENDROOT
BRANCH   2   9
ATOM      8 BR   UNL     1      33.653 -23.375 -17.983  0.00  0.00    -0.049 Br
ATOM      9  C   UNL     1      35.119 -20.155 -21.044  0.00  0.00    +0.002 C 
ATOM     10  C   UNL     1      33.755 -20.343 -20.831  0.00  0.00    -0.002 C 
ATOM     11  C   UNL     1      36.049 -20.926 -20.347  0.00  0.00    -0.002 C 
ATOM     12  C   UNL     1      33.317 -21.303 -19.919  0.00  0.00    +0.006 C 
ATOM     13  C   UNL     1      35.612 -21.887 -19.434  0.00  0.00    +0.006 C 
ATOM     14  C   UNL     1      34.246 -22.075 -19.221  0.00  0.00    +0.035 C 
ENDBRANCH   2   9
BRANCH   2  15
ATOM     15  O   UNL     1      37.012 -19.314 -22.174  0.00  0.00    -0.383 OA
ATOM     16  H   UNL     1      37.196 -20.266 -22.172  0.00  0.00    +0.211 HD
ENDBRANCH   2  15
BRANCH   1  17
ATOM     17  C   UNL     1      35.348 -15.665 -24.694  0.00  0.00    -0.077 C 
BRANCH  17  18
ATOM     18  C   UNL     1      34.187 -15.422 -25.660  0.00  0.00    -0.015 C 
BRANCH  18  19
ATOM     19  C   UNL     1      33.135 -14.473 -25.077  0.00  0.00    +0.067 C 
BRANCH  19  21
ATOM     20  O   UNL     1      34.617 -12.613 -24.664  0.00  0.00    -0.291 OA
ATOM     21  C   UNL     1      33.732 -13.352 -24.238  0.00  0.00    +0.173 C 
BRANCH  21  23
ATOM     22  F   UNL     1      31.761 -12.533 -19.079  0.00  0.00    -0.204 F 
ATOM     23  C   UNL     1      33.205 -13.133 -22.861  0.00  0.00    +0.035 C 
ATOM     24  C   UNL     1      32.524 -11.968 -22.590  0.00  0.00    +0.005 C 
ATOM     25  C   UNL     1      33.420 -14.105 -21.909  0.00  0.00    +0.005 C 
ATOM     26  C   UNL     1      32.032 -11.764 -21.302  0.00  0.00    +0.030 C 
ATOM     27  C   UNL     1      32.928 -13.901 -20.621  0.00  0.00    +0.030 C 
ATOM     28  C   UNL     1      32.233 -12.730 -20.317  0.00  0.00    +0.140 C 
ENDBRANCH  21  23
ENDBRANCH  19  21
ENDBRANCH  18  19
ENDBRANCH  17  18
ENDBRANCH   1  17
TORSDOF 7
ENDMDL
MODEL 5
REMARK VINA RESULT:     -10.6      5.417     10.536
REMARK  Name = 2448
REMARK  7 active torsions:
REMARK  status: ('A' for Active; 'I' for Inactive)
REMARK    1  A    between atoms: N_1  and  C_17
REMARK    2  A    between atoms: C_2  and  C_9
REMARK    3  A    between atoms: C_2  and  O_15
REMARK    4  A    between atoms: C_17  and  C_18
REMARK    5  A    between atoms: C_18  and  C_19
REMARK    6  A    between atoms: C_19  and  C_21
REMARK    7  A    between atoms: C_21  and  C_23
REMARK                            x       y       z     vdW  Elec       q    Type
REMARK                         _______ _______ _______ _____ _____    ______ ____
ROOT
ATOM      1  N   UNL     1      34.982 -15.190 -24.010  0.00  0.00    +0.387 N 
ATOM      2  C   UNL     1      33.247 -12.892 -23.280  0.00  0.00    +0.103 C 
ATOM      3  C   UNL     1      33.519 -13.337 -24.734  0.00  0.00    +0.008 C 
ATOM      4  C   UNL     1      34.395 -13.411 -22.383  0.00  0.00    +0.008 C 
ATOM      5  C   UNL     1      33.837 -14.832 -24.855  0.00  0.00    -0.075 C 
ATOM      6  C   UNL     1      34.709 -14.896 -22.599  0.00  0.00    -0.075 C 
ATOM      7  H   UNL     1      35.779 -14.624 -24.301  0.00  0.00    -0.080 HD
ENDROOT
BRANCH   2   9
ATOM      8 BR   UNL     1      32.483  -6.780 -22.508  0.00  0.00    -0.049 Br
ATOM      9  C   UNL     1      33.058 -11.386 -23.091  0.00  0.00    +0.002 C 
ATOM     10  C   UNL     1      33.776 -10.489 -23.879  0.00  0.00    -0.002 C 
ATOM     11  C   UNL     1      32.167 -10.913 -22.128  0.00  0.00    -0.002 C 
ATOM     12  C   UNL     1      33.605  -9.116 -23.707  0.00  0.00    +0.006 C 
ATOM     13  C   UNL     1      31.995  -9.539 -21.954  0.00  0.00    +0.006 C 
ATOM     14  C   UNL     1      32.714  -8.641 -22.744  0.00  0.00    +0.035 C 
ENDBRANCH   2   9
BRANCH   2  15
ATOM     15  O   UNL     1      32.010 -13.487 -22.863  0.00  0.00    -0.383 OA
ATOM     16  H   UNL     1      31.903 -13.373 -21.905  0.00  0.00    +0.211 HD
ENDBRANCH   2  15
BRANCH   1  17
ATOM     17  C   UNL     1      35.325 -16.601 -24.183  0.00  0.00    -0.077 C 
BRANCH  17  18
ATOM     18  C   UNL     1      35.748 -17.212 -22.846  0.00  0.00    -0.015 C 
BRANCH  18  19
ATOM     19  C   UNL     1      35.978 -18.722 -22.943  0.00  0.00    +0.067 C 
BRANCH  19  21
ATOM     20  O   UNL     1      37.633 -19.087 -21.225  0.00  0.00    -0.291 OA
ATOM     21  C   UNL     1      36.510 -19.337 -21.656  0.00  0.00    +0.173 C 
BRANCH  21  23
ATOM     22  F   UNL     1      33.193 -22.777 -18.769  0.00  0.00    -0.204 F 
ATOM     23  C   UNL     1      35.624 -20.255 -20.885  0.00  0.00    +0.035 C 
ATOM     24  C   UNL     1      36.203 -21.202 -20.070  0.00  0.00    +0.005 C 
ATOM     25  C   UNL     1      34.260 -20.124 -21.017  0.00  0.00    +0.005 C 
ATOM     26  C   UNL     1      35.375 -22.061 -19.349  0.00  0.00    +0.030 C 
ATOM     27  C   UNL     1      33.432 -20.982 -20.296  0.00  0.00    +0.030 C 
ATOM     28  C   UNL     1      33.988 -21.951 -19.461  0.00  0.00    +0.140 C 
ENDBRANCH  21  23
ENDBRANCH  19  21
ENDBRANCH  18  19
ENDBRANCH  17  18
ENDBRANCH   1  17
TORSDOF 7
ENDMDL
MODEL 6
REMARK VINA RESULT:     -10.5      5.642     10.732
REMARK  Name = 2448
REMARK  7 active torsions:
REMARK  status: ('A' for Active; 'I' for Inactive)
REMARK    1  A    between atoms: N_1  and  C_17
REMARK    2  A    between atoms: C_2  and  C_9
REMARK    3  A    between atoms: C_2  and  O_15
REMARK    4  A    between atoms: C_17  and  C_18
REMARK    5  A    between atoms: C_18  and  C_19
REMARK    6  A    between atoms: C_19  and  C_21
REMARK    7  A    between atoms: C_21  and  C_23
REMARK                            x       y       z     vdW  Elec       q    Type
REMARK                         _______ _______ _______ _____ _____    ______ ____
ROOT
ATOM      1  N   UNL     1      33.186 -23.422 -15.588  0.00  0.00    +0.387 N 
ATOM      2  C   UNL     1      33.988 -22.824 -18.385  0.00  0.00    +0.103 C 
ATOM      3  C   UNL     1      34.985 -22.946 -17.212  0.00  0.00    +0.008 C 
ATOM      4  C   UNL     1      32.589 -22.496 -17.811  0.00  0.00    +0.008 C 
ATOM      5  C   UNL     1      34.488 -23.871 -16.095  0.00  0.00    -0.075 C 
ATOM      6  C   UNL     1      32.179 -23.414 -16.654  0.00  0.00    -0.075 C 
ATOM      7  H   UNL     1      33.292 -22.466 -15.249  0.00  0.00    -0.080 HD
ENDROOT
BRANCH   2   9
ATOM      8 BR   UNL     1      35.572 -18.698 -22.745  0.00  0.00    -0.049 Br
ATOM      9  C   UNL     1      34.378 -21.808 -19.461  0.00  0.00    +0.002 C 
ATOM     10  C   UNL     1      35.722 -21.568 -19.736  0.00  0.00    -0.002 C 
ATOM     11  C   UNL     1      33.387 -21.124 -20.163  0.00  0.00    -0.002 C 
ATOM     12  C   UNL     1      36.079 -20.642 -20.715  0.00  0.00    +0.006 C 
ATOM     13  C   UNL     1      33.742 -20.196 -21.143  0.00  0.00    +0.006 C 
ATOM     14  C   UNL     1      35.089 -19.956 -21.419  0.00  0.00    +0.035 C 
ENDBRANCH   2   9
BRANCH   2  15
ATOM     15  O   UNL     1      33.942 -24.091 -19.056  0.00  0.00    -0.383 OA
ATOM     16  H   UNL     1      34.842 -24.360 -19.301  0.00  0.00    +0.211 HD
ENDBRANCH   2  15
BRANCH   1  17
ATOM     17  C   UNL     1      32.751 -24.266 -14.476  0.00  0.00    -0.077 C 
BRANCH  17  18
ATOM     18  C   UNL     1      33.941 -25.028 -13.891  0.00  0.00    -0.015 C 
BRANCH  18  19
ATOM     19  C   UNL     1      34.643 -24.245 -12.778  0.00  0.00    +0.067 C 
BRANCH  19  21
ATOM     20  O   UNL     1      36.001 -25.393 -11.147  0.00  0.00    -0.291 OA
ATOM     21  C   UNL     1      35.914 -24.916 -12.276  0.00  0.00    +0.173 C 
BRANCH  21  23
ATOM     22  F   UNL     1      40.287 -25.282 -15.727  0.00  0.00    -0.204 F 
ATOM     23  C   UNL     1      37.082 -25.013 -13.197  0.00  0.00    +0.035 C 
ATOM     24  C   UNL     1      37.262 -24.029 -14.143  0.00  0.00    +0.005 C 
ATOM     25  C   UNL     1      37.937 -26.085 -13.069  0.00  0.00    +0.005 C 
ATOM     26  C   UNL     1      38.354 -24.120 -15.004  0.00  0.00    +0.030 C 
ATOM     27  C   UNL     1      39.029 -26.177 -13.931  0.00  0.00    +0.030 C 
ATOM     28  C   UNL     1      39.238 -25.194 -14.899  0.00  0.00    +0.140 C 
ENDBRANCH  21  23
ENDBRANCH  19  21
ENDBRANCH  18  19
ENDBRANCH  17  18
ENDBRANCH   1  17
TORSDOF 7
ENDMDL
MODEL 7
REMARK VINA RESULT:     -10.5      2.961      4.931
REMARK  Name = 2448
REMARK  7 active torsions:
REMARK  status: ('A' for Active; 'I' for Inactive)
REMARK    1  A    between atoms: N_1  and  C_17
REMARK    2  A    between atoms: C_2  and  C_9
REMARK    3  A    between atoms: C_2  and  O_15
REMARK    4  A    between atoms: C_17  and  C_18
REMARK    5  A    between atoms: C_18  and  C_19
REMARK    6  A    between atoms: C_19  and  C_21
REMARK    7  A    between atoms: C_21  and  C_23
REMARK                            x       y       z     vdW  Elec       q    Type
REMARK                         _______ _______ _______ _____ _____    ______ ____
ROOT
ATOM      1  N   UNL     1      34.871 -16.910 -23.965  0.00  0.00    +0.387 N 
ATOM      2  C   UNL     1      35.545 -19.154 -22.140  0.00  0.00    +0.103 C 
ATOM      3  C   UNL     1      34.886 -19.339 -23.525  0.00  0.00    +0.008 C 
ATOM      4  C   UNL     1      35.270 -17.713 -21.651  0.00  0.00    +0.008 C 
ATOM      5  C   UNL     1      35.238 -18.221 -24.512  0.00  0.00    -0.075 C 
ATOM      6  C   UNL     1      35.579 -16.646 -22.708  0.00  0.00    -0.075 C 
ATOM      7  H   UNL     1      33.871 -16.918 -23.767  0.00  0.00    -0.080 HD
ENDROOT
BRANCH   2   9
ATOM      8 BR   UNL     1      33.810 -23.288 -17.846  0.00  0.00    -0.049 Br
ATOM      9  C   UNL     1      35.118 -20.172 -21.081  0.00  0.00    +0.002 C 
ATOM     10  C   UNL     1      36.081 -20.892 -20.379  0.00  0.00    -0.002 C 
ATOM     11  C   UNL     1      33.763 -20.377 -20.821  0.00  0.00    -0.002 C 
ATOM     12  C   UNL     1      35.693 -21.821 -19.414  0.00  0.00    +0.006 C 
ATOM     13  C   UNL     1      33.373 -21.306 -19.856  0.00  0.00    +0.006 C 
ATOM     14  C   UNL     1      34.338 -22.028 -19.152  0.00  0.00    +0.035 C 
ENDBRANCH   2   9
BRANCH   2  15
ATOM     15  O   UNL     1      36.959 -19.342 -22.299  0.00  0.00    -0.383 OA
ATOM     16  H   UNL     1      37.129 -19.854 -23.106  0.00  0.00    +0.211 HD
ENDBRANCH   2  15
BRANCH   1  17
ATOM     17  C   UNL     1      35.144 -15.854 -24.939  0.00  0.00    -0.077 C 
BRANCH  17  18
ATOM     18  C   UNL     1      33.970 -14.875 -25.003  0.00  0.00    -0.015 C 
BRANCH  18  19
ATOM     19  C   UNL     1      34.297 -13.531 -24.345  0.00  0.00    +0.067 C 
BRANCH  19  21
ATOM     20  O   UNL     1      33.233 -14.105 -22.256  0.00  0.00    -0.291 OA
ATOM     21  C   UNL     1      33.461 -13.246 -23.105  0.00  0.00    +0.173 C 
BRANCH  21  23
ATOM     22  F   UNL     1      31.438  -8.095 -22.370  0.00  0.00    -0.204 F 
ATOM     23  C   UNL     1      32.921 -11.871 -22.908  0.00  0.00    +0.035 C 
ATOM     24  C   UNL     1      31.965 -11.668 -21.939  0.00  0.00    +0.005 C 
ATOM     25  C   UNL     1      33.398 -10.854 -23.705  0.00  0.00    +0.005 C 
ATOM     26  C   UNL     1      31.460 -10.381 -21.755  0.00  0.00    +0.030 C 
ATOM     27  C   UNL     1      32.894  -9.567 -23.521  0.00  0.00    +0.030 C 
ATOM     28  C   UNL     1      31.924  -9.330 -22.546  0.00  0.00    +0.140 C 
ENDBRANCH  21  23
ENDBRANCH  19  21
ENDBRANCH  18  19
ENDBRANCH  17  18
ENDBRANCH   1  17
TORSDOF 7
ENDMDL
MODEL 8
REMARK VINA RESULT:     -10.3      4.781     10.009
REMARK  Name = 2448
REMARK  7 active torsions:
REMARK  status: ('A' for Active; 'I' for Inactive)
REMARK    1  A    between atoms: N_1  and  C_17
REMARK    2  A    between atoms: C_2  and  C_9
REMARK    3  A    between atoms: C_2  and  O_15
REMARK    4  A    between atoms: C_17  and  C_18
REMARK    5  A    between atoms: C_18  and  C_19
REMARK    6  A    between atoms: C_19  and  C_21
REMARK    7  A    between atoms: C_21  and  C_23
REMARK                            x       y       z     vdW  Elec       q    Type
REMARK                         _______ _______ _______ _____ _____    ______ ____
ROOT
ATOM      1  N   UNL     1      36.117 -19.987 -20.368  0.00  0.00    +0.387 N 
ATOM      2  C   UNL     1      35.644 -18.721 -23.013  0.00  0.00    +0.103 C 
ATOM      3  C   UNL     1      36.870 -18.422 -22.123  0.00  0.00    +0.008 C 
ATOM      4  C   UNL     1      34.510 -19.276 -22.120  0.00  0.00    +0.008 C 
ATOM      5  C   UNL     1      37.251 -19.594 -21.211  0.00  0.00    -0.075 C 
ATOM      6  C   UNL     1      34.971 -20.401 -21.184  0.00  0.00    -0.075 C 
ATOM      7  H   UNL     1      35.835 -19.176 -19.818  0.00  0.00    -0.080 HD
ENDROOT
BRANCH   2   9
ATOM      8 BR   UNL     1      33.620 -13.915 -26.380  0.00  0.00    -0.049 Br
ATOM      9  C   UNL     1      35.144 -17.537 -23.842  0.00  0.00    +0.002 C 
ATOM     10  C   UNL     1      34.569 -17.756 -25.092  0.00  0.00    -0.002 C 
ATOM     11  C   UNL     1      35.265 -16.240 -23.345  0.00  0.00    -0.002 C 
ATOM     12  C   UNL     1      34.113 -16.677 -25.849  0.00  0.00    +0.006 C 
ATOM     13  C   UNL     1      34.811 -15.159 -24.102  0.00  0.00    +0.006 C 
ATOM     14  C   UNL     1      34.234 -15.378 -25.354  0.00  0.00    +0.035 C 
ENDBRANCH   2   9
BRANCH   2  15
ATOM     15  O   UNL     1      36.030 -19.720 -23.969  0.00  0.00    -0.383 OA
ATOM     16  H   UNL     1      35.271 -20.294 -24.161  0.00  0.00    +0.211 HD
ENDBRANCH   2  15
BRANCH   1  17
ATOM     17  C   UNL     1      36.507 -21.058 -19.451  0.00  0.00    -0.077 C 
BRANCH  17  18
ATOM     18  C   UNL     1      35.513 -22.218 -19.537  0.00  0.00    -0.015 C 
BRANCH  18  19
ATOM     19  C   UNL     1      34.946 -22.600 -18.167  0.00  0.00    +0.067 C 
BRANCH  19  21
ATOM     20  O   UNL     1      32.741 -22.445 -19.135  0.00  0.00    -0.291 OA
ATOM     21  C   UNL     1      33.425 -22.665 -18.138  0.00  0.00    +0.173 C 
BRANCH  21  23
ATOM     22  F   UNL     1      30.897 -24.033 -13.352  0.00  0.00    -0.204 F 
ATOM     23  C   UNL     1      32.750 -23.030 -16.860  0.00  0.00    +0.035 C 
ATOM     24  C   UNL     1      33.528 -23.359 -15.772  0.00  0.00    +0.005 C 
ATOM     25  C   UNL     1      31.374 -23.026 -16.815  0.00  0.00    +0.005 C 
ATOM     26  C   UNL     1      32.896 -23.700 -14.577  0.00  0.00    +0.030 C 
ATOM     27  C   UNL     1      30.742 -23.367 -15.620  0.00  0.00    +0.030 C 
ATOM     28  C   UNL     1      31.503 -23.704 -14.500  0.00  0.00    +0.140 C 
ENDBRANCH  21  23
ENDBRANCH  19  21
ENDBRANCH  18  19
ENDBRANCH  17  18
ENDBRANCH   1  17
TORSDOF 7
ENDMDL
MODEL 9
REMARK VINA RESULT:     -10.0      2.857      5.011
REMARK  Name = 2448
REMARK  7 active torsions:
REMARK  status: ('A' for Active; 'I' for Inactive)
REMARK    1  A    between atoms: N_1  and  C_17
REMARK    2  A    between atoms: C_2  and  C_9
REMARK    3  A    between atoms: C_2  and  O_15
REMARK    4  A    between atoms: C_17  and  C_18
REMARK    5  A    between atoms: C_18  and  C_19
REMARK    6  A    between atoms: C_19  and  C_21
REMARK    7  A    between atoms: C_21  and  C_23
REMARK                            x       y       z     vdW  Elec       q    Type
REMARK                         _______ _______ _______ _____ _____    ______ ____
ROOT
ATOM      1  N   UNL     1      34.962 -16.816 -23.853  0.00  0.00    +0.387 N 
ATOM      2  C   UNL     1      35.556 -19.116 -22.071  0.00  0.00    +0.103 C 
ATOM      3  C   UNL     1      34.946 -19.257 -23.483  0.00  0.00    +0.008 C 
ATOM      4  C   UNL     1      35.272 -17.688 -21.551  0.00  0.00    +0.008 C 
ATOM      5  C   UNL     1      35.340 -18.113 -24.424  0.00  0.00    -0.075 C 
ATOM      6  C   UNL     1      35.625 -16.593 -22.565  0.00  0.00    -0.075 C 
ATOM      7  H   UNL     1      33.955 -16.823 -23.692  0.00  0.00    -0.080 HD
ENDROOT
BRANCH   2   9
ATOM      8 BR   UNL     1      33.643 -23.348 -17.952  0.00  0.00    -0.049 Br
ATOM      9  C   UNL     1      35.085 -20.161 -21.057  0.00  0.00    +0.002 C 
ATOM     10  C   UNL     1      33.725 -20.307 -20.790  0.00  0.00    -0.002 C 
ATOM     11  C   UNL     1      36.017 -20.963 -20.401  0.00  0.00    -0.002 C 
ATOM     12  C   UNL     1      33.294 -21.257 -19.865  0.00  0.00    +0.006 C 
ATOM     13  C   UNL     1      35.587 -21.914 -19.475  0.00  0.00    +0.006 C 
ATOM     14  C   UNL     1      34.225 -22.061 -19.208  0.00  0.00    +0.035 C 
ENDBRANCH   2   9
BRANCH   2  15
ATOM     15  O   UNL     1      36.974 -19.309 -22.185  0.00  0.00    -0.383 OA
ATOM     16  H   UNL     1      37.179 -20.254 -22.102  0.00  0.00    +0.211 HD
ENDBRANCH   2  15
BRANCH   1  17
ATOM     17  C   UNL     1      35.276 -15.734 -24.786  0.00  0.00    -0.077 C 
BRANCH  17  18
ATOM     18  C   UNL     1      33.989 -15.129 -25.349  0.00  0.00    -0.015 C 
BRANCH  18  19
ATOM     19  C   UNL     1      33.659 -13.773 -24.718  0.00  0.00    +0.067 C 
BRANCH  19  21
ATOM     20  O   UNL     1      34.008 -12.694 -26.848  0.00  0.00    -0.291 OA
ATOM     21  C   UNL     1      33.977 -12.591 -25.624  0.00  0.00    +0.173 C 
BRANCH  21  23
ATOM     22  F   UNL     1      34.952  -7.617 -23.283  0.00  0.00    -0.204 F 
ATOM     23  C   UNL     1      34.237 -11.263 -24.999  0.00  0.00    +0.035 C 
ATOM     24  C   UNL     1      35.316 -10.528 -25.435  0.00  0.00    +0.005 C 
ATOM     25  C   UNL     1      33.389 -10.821 -24.008  0.00  0.00    +0.005 C 
ATOM     26  C   UNL     1      35.559  -9.285 -24.851  0.00  0.00    +0.030 C 
ATOM     27  C   UNL     1      33.632  -9.579 -23.424  0.00  0.00    +0.030 C 
ATOM     28  C   UNL     1      34.718  -8.810 -23.845  0.00  0.00    +0.140 C 
ENDBRANCH  21  23
ENDBRANCH  19  21
ENDBRANCH  18  19
ENDBRANCH  17  18
ENDBRANCH   1  17
TORSDOF 7
ENDMDL
