MODEL 1
REMARK VINA RESULT:     -11.7      0.000      0.000
REMARK  Name = 21302490
REMARK  5 active torsions:
REMARK  status: ('A' for Active; 'I' for Inactive)
REMARK    1  A    between atoms: N_2  and  C_19
REMARK    2  A    between atoms: C_19  and  C_20
REMARK    3  A    between atoms: C_20  and  C_21
REMARK    4  A    between atoms: C_21  and  C_23
REMARK    5  A    between atoms: C_23  and  C_25
REMARK                            x       y       z     vdW  Elec       q    Type
REMARK                         _______ _______ _______ _____ _____    ______ ____
ROOT
ATOM      1  N   UNL     1      32.829 -11.317 -22.672  0.00  0.00    -0.307 N 
ATOM      2  N   UNL     1      34.050 -14.906 -22.175  0.00  0.00    +0.387 N 
ATOM      3  N   UNL     1      32.680  -8.642 -21.671  0.00  0.00    -0.303 N 
ATOM      4  C   UNL     1      32.302 -12.665 -22.920  0.00  0.00    +0.073 C 
ATOM      5  C   UNL     1      32.225 -13.347 -21.515  0.00  0.00    +0.021 C 
ATOM      6  C   UNL     1      33.127 -13.456 -23.930  0.00  0.00    -0.003 C 
ATOM      7  C   UNL     1      33.517 -14.067 -21.097  0.00  0.00    -0.071 C 
ATOM      8  C   UNL     1      32.008 -12.138 -20.650  0.00  0.00    -0.008 C 
ATOM      9  C   UNL     1      32.389 -11.002 -21.370  0.00  0.00    +0.057 C 
ATOM     10  C   UNL     1      34.390 -14.073 -23.337  0.00  0.00    -0.076 C 
ATOM     11  C   UNL     1      32.762 -10.210 -23.604  0.00  0.00    +0.112 C 
ATOM     12  C   UNL     1      32.324  -9.709 -20.856  0.00  0.00    +0.061 C 
ATOM     13  C   UNL     1      33.350  -8.952 -22.944  0.00  0.00    +0.112 C 
ATOM     14  C   UNL     1      31.554 -12.029 -19.353  0.00  0.00    -0.003 C 
ATOM     15  C   UNL     1      31.853  -9.607 -19.540  0.00  0.00    +0.016 C 
ATOM     16  C   UNL     1      31.478 -10.749 -18.800  0.00  0.00    +0.001 C 
ATOM     17  C   UNL     1      32.757  -7.289 -21.151  0.00  0.00    +0.112 C 
ATOM     18  H   UNL     1      33.338 -15.582 -22.450  0.00  0.00    -0.080 HD
ENDROOT
BRANCH   2  19
ATOM     19  C   UNL     1      35.231 -15.637 -21.713  0.00  0.00    -0.077 C 
BRANCH  19  20
ATOM     20  C   UNL     1      35.565 -16.770 -22.685  0.00  0.00    -0.015 C 
BRANCH  20  21
ATOM     21  C   UNL     1      36.033 -18.037 -21.962  0.00  0.00    +0.067 C 
BRANCH  21  23
ATOM     22  O   UNL     1      34.554 -19.422 -23.274  0.00  0.00    -0.291 OA
ATOM     23  C   UNL     1      35.130 -19.238 -22.205  0.00  0.00    +0.173 C 
BRANCH  23  25
ATOM     24  F   UNL     1      34.495 -23.004 -18.082  0.00  0.00    -0.204 F 
ATOM     25  C   UNL     1      34.962 -20.237 -21.109  0.00  0.00    +0.035 C 
ATOM     26  C   UNL     1      33.683 -20.621 -20.707  0.00  0.00    +0.005 C 
ATOM     27  C   UNL     1      36.083 -20.788 -20.490  0.00  0.00    +0.005 C 
ATOM     28  C   UNL     1      33.525 -21.556 -19.684  0.00  0.00    +0.030 C 
ATOM     29  C   UNL     1      35.926 -21.723 -19.466  0.00  0.00    +0.030 C 
ATOM     30  C   UNL     1      34.647 -22.107 -19.064  0.00  0.00    +0.140 C 
ENDBRANCH  23  25
ENDBRANCH  21  23
ENDBRANCH  20  21
ENDBRANCH  19  20
ENDBRANCH   2  19
TORSDOF 5
ENDMDL
MODEL 2
REMARK VINA RESULT:     -10.6      3.495      6.244
REMARK  Name = 21302490
REMARK  5 active torsions:
REMARK  status: ('A' for Active; 'I' for Inactive)
REMARK    1  A    between atoms: N_2  and  C_19
REMARK    2  A    between atoms: C_19  and  C_20
REMARK    3  A    between atoms: C_20  and  C_21
REMARK    4  A    between atoms: C_21  and  C_23
REMARK    5  A    between atoms: C_23  and  C_25
REMARK                            x       y       z     vdW  Elec       q    Type
REMARK                         _______ _______ _______ _____ _____    ______ ____
ROOT
ATOM      1  N   UNL     1      32.389  -6.223 -22.510  0.00  0.00    -0.307 N 
ATOM      2  N   UNL     1      33.274  -9.940 -22.624  0.00  0.00    +0.387 N 
ATOM      3  N   UNL     1      31.561  -3.880 -23.924  0.00  0.00    -0.303 N 
ATOM      4  C   UNL     1      33.380  -7.101 -21.876  0.00  0.00    +0.073 C 
ATOM      5  C   UNL     1      34.233  -7.684 -23.051  0.00  0.00    +0.021 C 
ATOM      6  C   UNL     1      32.754  -8.176 -20.995  0.00  0.00    -0.003 C 
ATOM      7  C   UNL     1      33.663  -8.976 -23.657  0.00  0.00    -0.071 C 
ATOM      8  C   UNL     1      34.116  -6.558 -24.039  0.00  0.00    -0.008 C 
ATOM      9  C   UNL     1      33.025  -5.761 -23.679  0.00  0.00    +0.057 C 
ATOM     10  C   UNL     1      32.217  -9.371 -21.778  0.00  0.00    -0.076 C 
ATOM     11  C   UNL     1      31.607  -5.215 -21.824  0.00  0.00    +0.112 C 
ATOM     12  C   UNL     1      32.630  -4.633 -24.395  0.00  0.00    +0.061 C 
ATOM     13  C   UNL     1      30.744  -4.457 -22.846  0.00  0.00    +0.112 C 
ATOM     14  C   UNL     1      34.861  -6.265 -25.162  0.00  0.00    -0.003 C 
ATOM     15  C   UNL     1      33.398  -4.337 -25.529  0.00  0.00    +0.016 C 
ATOM     16  C   UNL     1      34.494  -5.143 -25.908  0.00  0.00    +0.001 C 
ATOM     17  C   UNL     1      31.023  -2.773 -24.695  0.00  0.00    +0.112 C 
ATOM     18  H   UNL     1      34.087 -10.147 -22.042  0.00  0.00    -0.080 HD
ENDROOT
BRANCH   2  19
ATOM     19  C   UNL     1      32.815 -11.187 -23.239  0.00  0.00    -0.077 C 
BRANCH  19  20
ATOM     20  C   UNL     1      33.910 -11.769 -24.135  0.00  0.00    -0.015 C 
BRANCH  20  21
ATOM     21  C   UNL     1      34.289 -13.198 -23.737  0.00  0.00    +0.067 C 
BRANCH  21  23
ATOM     22  O   UNL     1      33.832 -13.859 -26.012  0.00  0.00    -0.291 OA
ATOM     23  C   UNL     1      34.184 -14.193 -24.884  0.00  0.00    +0.173 C 
BRANCH  23  25
ATOM     24  F   UNL     1      35.547 -19.560 -23.922  0.00  0.00    -0.204 F 
ATOM     25  C   UNL     1      34.544 -15.618 -24.628  0.00  0.00    +0.035 C 
ATOM     26  C   UNL     1      34.164 -16.607 -25.535  0.00  0.00    +0.005 C 
ATOM     27  C   UNL     1      35.264 -15.960 -23.483  0.00  0.00    +0.005 C 
ATOM     28  C   UNL     1      34.503 -17.939 -25.296  0.00  0.00    +0.030 C 
ATOM     29  C   UNL     1      35.602 -17.292 -23.244  0.00  0.00    +0.030 C 
ATOM     30  C   UNL     1      35.222 -18.281 -24.151  0.00  0.00    +0.140 C 
ENDBRANCH  23  25
ENDBRANCH  21  23
ENDBRANCH  20  21
ENDBRANCH  19  20
ENDBRANCH   2  19
TORSDOF 5
ENDMDL
MODEL 3
REMARK VINA RESULT:     -10.4      1.464      1.994
REMARK  Name = 21302490
REMARK  5 active torsions:
REMARK  status: ('A' for Active; 'I' for Inactive)
REMARK    1  A    between atoms: N_2  and  C_19
REMARK    2  A    between atoms: C_19  and  C_20
REMARK    3  A    between atoms: C_20  and  C_21
REMARK    4  A    between atoms: C_21  and  C_23
REMARK    5  A    between atoms: C_23  and  C_25
REMARK                            x       y       z     vdW  Elec       q    Type
REMARK                         _______ _______ _______ _____ _____    ______ ____
ROOT
ATOM      1  N   UNL     1      33.939 -12.154 -24.146  0.00  0.00    -0.307 N 
ATOM      2  N   UNL     1      34.405 -15.654 -22.681  0.00  0.00    +0.387 N 
ATOM      3  N   UNL     1      33.901  -9.327 -23.717  0.00  0.00    -0.303 N 
ATOM      4  C   UNL     1      33.315 -13.472 -24.318  0.00  0.00    +0.073 C 
ATOM      5  C   UNL     1      32.721 -13.836 -22.917  0.00  0.00    +0.021 C 
ATOM      6  C   UNL     1      34.274 -14.526 -24.859  0.00  0.00    -0.003 C 
ATOM      7  C   UNL     1      33.707 -14.565 -21.991  0.00  0.00    -0.071 C 
ATOM      8  C   UNL     1      32.440 -12.459 -22.388  0.00  0.00    -0.008 C 
ATOM      9  C   UNL     1      33.184 -11.537 -23.129  0.00  0.00    +0.057 C 
ATOM     10  C   UNL     1      35.196 -15.116 -23.796  0.00  0.00    -0.076 C 
ATOM     11  C   UNL     1      34.320 -11.264 -25.224  0.00  0.00    +0.112 C 
ATOM     12  C   UNL     1      33.163 -10.164 -22.890  0.00  0.00    +0.061 C 
ATOM     13  C   UNL     1      34.866  -9.954 -24.634  0.00  0.00    +0.112 C 
ATOM     14  C   UNL     1      31.642 -12.042 -21.344  0.00  0.00    -0.003 C 
ATOM     15  C   UNL     1      32.342  -9.749 -21.833  0.00  0.00    +0.016 C 
ATOM     16  C   UNL     1      31.597 -10.673 -21.070  0.00  0.00    +0.001 C 
ATOM     17  C   UNL     1      34.022  -7.908 -23.438  0.00  0.00    +0.112 C 
ATOM     18  H   UNL     1      33.714 -16.308 -23.051  0.00  0.00    -0.080 HD
ENDROOT
BRANCH   2  19
ATOM     19  C   UNL     1      35.271 -16.375 -21.747  0.00  0.00    -0.077 C 
BRANCH  19  20
ATOM     20  C   UNL     1      36.261 -17.254 -22.513  0.00  0.00    -0.015 C 
BRANCH  20  21
ATOM     21  C   UNL     1      35.851 -18.729 -22.514  0.00  0.00    +0.067 C 
BRANCH  21  23
ATOM     22  O   UNL     1      37.617 -19.402 -21.013  0.00  0.00    -0.291 OA
ATOM     23  C   UNL     1      36.444 -19.521 -21.357  0.00  0.00    +0.173 C 
BRANCH  23  25
ATOM     24  F   UNL     1      33.105 -23.038 -18.516  0.00  0.00    -0.204 F 
ATOM     25  C   UNL     1      35.558 -20.455 -20.604  0.00  0.00    +0.035 C 
ATOM     26  C   UNL     1      36.112 -21.385 -19.725  0.00  0.00    +0.005 C 
ATOM     27  C   UNL     1      34.175 -20.397 -20.777  0.00  0.00    +0.005 C 
ATOM     28  C   UNL     1      35.284 -22.258 -19.019  0.00  0.00    +0.030 C 
ATOM     29  C   UNL     1      33.346 -21.270 -20.072  0.00  0.00    +0.030 C 
ATOM     30  C   UNL     1      33.901 -22.199 -19.193  0.00  0.00    +0.140 C 
ENDBRANCH  23  25
ENDBRANCH  21  23
ENDBRANCH  20  21
ENDBRANCH  19  20
ENDBRANCH   2  19
TORSDOF 5
ENDMDL
MODEL 4
REMARK VINA RESULT:     -10.3      4.187      7.614
REMARK  Name = 21302490
REMARK  5 active torsions:
REMARK  status: ('A' for Active; 'I' for Inactive)
REMARK    1  A    between atoms: N_2  and  C_19
REMARK    2  A    between atoms: C_19  and  C_20
REMARK    3  A    between atoms: C_20  and  C_21
REMARK    4  A    between atoms: C_21  and  C_23
REMARK    5  A    between atoms: C_23  and  C_25
REMARK                            x       y       z     vdW  Elec       q    Type
REMARK                         _______ _______ _______ _____ _____    ______ ____
ROOT
ATOM      1  N   UNL     1      32.371  -4.855 -23.593  0.00  0.00    -0.307 N 
ATOM      2  N   UNL     1      32.875  -8.485 -22.503  0.00  0.00    +0.387 N 
ATOM      3  N   UNL     1      31.960  -2.996 -25.726  0.00  0.00    -0.303 N 
ATOM      4  C   UNL     1      33.187  -5.565 -22.600  0.00  0.00    +0.073 C 
ATOM      5  C   UNL     1      34.105  -6.527 -23.424  0.00  0.00    +0.021 C 
ATOM      6  C   UNL     1      32.355  -6.284 -21.543  0.00  0.00    -0.003 C 
ATOM      7  C   UNL     1      33.478  -7.901 -23.705  0.00  0.00    -0.071 C 
ATOM      8  C   UNL     1      34.220  -5.744 -24.701  0.00  0.00    -0.008 C 
ATOM      9  C   UNL     1      33.183  -4.808 -24.744  0.00  0.00    +0.057 C 
ATOM     10  C   UNL     1      31.791  -7.621 -22.015  0.00  0.00    -0.076 C 
ATOM     11  C   UNL     1      31.623  -3.640 -23.345  0.00  0.00    +0.112 C 
ATOM     12  C   UNL     1      32.992  -3.922 -25.803  0.00  0.00    +0.061 C 
ATOM     13  C   UNL     1      30.968  -3.169 -24.653  0.00  0.00    +0.112 C 
ATOM     14  C   UNL     1      35.116  -5.850 -25.744  0.00  0.00    -0.003 C 
ATOM     15  C   UNL     1      33.913  -4.031 -26.854  0.00  0.00    +0.016 C 
ATOM     16  C   UNL     1      34.955  -4.982 -26.826  0.00  0.00    +0.001 C 
ATOM     17  C   UNL     1      31.631  -2.139 -26.851  0.00  0.00    +0.112 C 
ATOM     18  H   UNL     1      33.589  -8.560 -21.778  0.00  0.00    -0.080 HD
ENDROOT
BRANCH   2  19
ATOM     19  C   UNL     1      32.364  -9.826 -22.790  0.00  0.00    -0.077 C 
BRANCH  19  20
ATOM     20  C   UNL     1      31.566 -10.356 -21.597  0.00  0.00    -0.015 C 
BRANCH  20  21
ATOM     21  C   UNL     1      31.248 -11.848 -21.727  0.00  0.00    +0.067 C 
BRANCH  21  23
ATOM     22  O   UNL     1      32.100 -12.761 -19.662  0.00  0.00    -0.291 OA
ATOM     23  C   UNL     1      32.157 -12.735 -20.889  0.00  0.00    +0.173 C 
BRANCH  23  25
ATOM     24  F   UNL     1      35.845 -16.058 -23.525  0.00  0.00    -0.204 F 
ATOM     25  C   UNL     1      33.135 -13.618 -21.589  0.00  0.00    +0.035 C 
ATOM     26  C   UNL     1      33.290 -13.527 -22.972  0.00  0.00    +0.005 C 
ATOM     27  C   UNL     1      33.896 -14.531 -20.860  0.00  0.00    +0.005 C 
ATOM     28  C   UNL     1      34.206 -14.352 -23.626  0.00  0.00    +0.030 C 
ATOM     29  C   UNL     1      34.811 -15.356 -21.513  0.00  0.00    +0.030 C 
ATOM     30  C   UNL     1      34.966 -15.266 -22.896  0.00  0.00    +0.140 C 
ENDBRANCH  23  25
ENDBRANCH  21  23
ENDBRANCH  20  21
ENDBRANCH  19  20
ENDBRANCH   2  19
TORSDOF 5
ENDMDL
MODEL 5
REMARK VINA RESULT:     -10.2      5.524     10.870
REMARK  Name = 21302490
REMARK  5 active torsions:
REMARK  status: ('A' for Active; 'I' for Inactive)
REMARK    1  A    between atoms: N_2  and  C_19
REMARK    2  A    between atoms: C_19  and  C_20
REMARK    3  A    between atoms: C_20  and  C_21
REMARK    4  A    between atoms: C_21  and  C_23
REMARK    5  A    between atoms: C_23  and  C_25
REMARK                            x       y       z     vdW  Elec       q    Type
REMARK                         _______ _______ _______ _____ _____    ______ ____
ROOT
ATOM      1  N   UNL     1      32.575 -12.762 -21.170  0.00  0.00    -0.307 N 
ATOM      2  N   UNL     1      32.040  -9.003 -20.727  0.00  0.00    +0.387 N 
ATOM      3  N   UNL     1      34.295 -14.888 -22.005  0.00  0.00    -0.303 N 
ATOM      4  C   UNL     1      31.465 -11.817 -21.343  0.00  0.00    +0.073 C 
ATOM      5  C   UNL     1      31.944 -10.808 -22.438  0.00  0.00    +0.021 C 
ATOM      6  C   UNL     1      31.043 -11.141 -20.043  0.00  0.00    -0.003 C 
ATOM      7  C   UNL     1      32.717  -9.602 -21.881  0.00  0.00    -0.071 C 
ATOM      8  C   UNL     1      32.870 -11.694 -23.221  0.00  0.00    -0.008 C 
ATOM      9  C   UNL     1      33.208 -12.795 -22.428  0.00  0.00    +0.057 C 
ATOM     10  C   UNL     1      31.949  -9.982 -19.636  0.00  0.00    -0.076 C 
ATOM     11  C   UNL     1      32.478 -14.054 -20.521  0.00  0.00    +0.112 C 
ATOM     12  C   UNL     1      34.063 -13.811 -22.851  0.00  0.00    +0.061 C 
ATOM     13  C   UNL     1      33.834 -14.773 -20.612  0.00  0.00    +0.112 C 
ATOM     14  C   UNL     1      33.397 -11.551 -24.487  0.00  0.00    -0.003 C 
ATOM     15  C   UNL     1      34.586 -13.661 -24.142  0.00  0.00    +0.016 C 
ATOM     16  C   UNL     1      34.261 -12.547 -24.945  0.00  0.00    +0.001 C 
ATOM     17  C   UNL     1      35.274 -15.908 -22.335  0.00  0.00    +0.112 C 
ATOM     18  H   UNL     1      31.098  -8.726 -21.003  0.00  0.00    -0.080 HD
ENDROOT
BRANCH   2  19
ATOM     19  C   UNL     1      32.761  -7.810 -20.278  0.00  0.00    -0.077 C 
BRANCH  19  20
ATOM     20  C   UNL     1      33.500  -7.165 -21.453  0.00  0.00    -0.015 C 
BRANCH  20  21
ATOM     21  C   UNL     1      32.780  -5.921 -21.980  0.00  0.00    +0.067 C 
BRANCH  21  23
ATOM     22  O   UNL     1      31.274  -6.635 -23.726  0.00  0.00    -0.291 OA
ATOM     23  C   UNL     1      32.316  -6.059 -23.423  0.00  0.00    +0.173 C 
BRANCH  23  25
ATOM     24  F   UNL     1      35.455  -3.766 -27.482  0.00  0.00    -0.204 F 
ATOM     25  C   UNL     1      33.148  -5.451 -24.502  0.00  0.00    +0.035 C 
ATOM     26  C   UNL     1      32.680  -4.338 -25.200  0.00  0.00    +0.005 C 
ATOM     27  C   UNL     1      34.395  -5.994 -24.809  0.00  0.00    +0.005 C 
ATOM     28  C   UNL     1      33.460  -3.769 -26.207  0.00  0.00    +0.030 C 
ATOM     29  C   UNL     1      35.175  -5.426 -25.817  0.00  0.00    +0.030 C 
ATOM     30  C   UNL     1      34.707  -4.313 -26.515  0.00  0.00    +0.140 C 
ENDBRANCH  23  25
ENDBRANCH  21  23
ENDBRANCH  20  21
ENDBRANCH  19  20
ENDBRANCH   2  19
TORSDOF 5
ENDMDL
MODEL 6
REMARK VINA RESULT:      -9.9      4.590      9.987
REMARK  Name = 21302490
REMARK  5 active torsions:
REMARK  status: ('A' for Active; 'I' for Inactive)
REMARK    1  A    between atoms: N_2  and  C_19
REMARK    2  A    between atoms: C_19  and  C_20
REMARK    3  A    between atoms: C_20  and  C_21
REMARK    4  A    between atoms: C_21  and  C_23
REMARK    5  A    between atoms: C_23  and  C_25
REMARK                            x       y       z     vdW  Elec       q    Type
REMARK                         _______ _______ _______ _____ _____    ______ ____
ROOT
ATOM      1  N   UNL     1      34.466 -15.692 -24.251  0.00  0.00    -0.307 N 
ATOM      2  N   UNL     1      33.185 -13.168 -21.682  0.00  0.00    +0.387 N 
ATOM      3  N   UNL     1      34.652 -18.419 -25.093  0.00  0.00    -0.303 N 
ATOM      4  C   UNL     1      34.973 -14.470 -23.616  0.00  0.00    +0.073 C 
ATOM      5  C   UNL     1      35.030 -14.788 -22.085  0.00  0.00    +0.021 C 
ATOM      6  C   UNL     1      34.143 -13.234 -23.943  0.00  0.00    -0.003 C 
ATOM      7  C   UNL     1      33.724 -14.486 -21.334  0.00  0.00    -0.071 C 
ATOM      8  C   UNL     1      35.261 -16.272 -22.138  0.00  0.00    -0.008 C 
ATOM      9  C   UNL     1      34.902 -16.733 -23.408  0.00  0.00    +0.057 C 
ATOM     10  C   UNL     1      32.866 -13.119 -23.116  0.00  0.00    -0.076 C 
ATOM     11  C   UNL     1      34.557 -15.997 -25.664  0.00  0.00    +0.112 C 
ATOM     12  C   UNL     1      34.985 -18.071 -23.790  0.00  0.00    +0.061 C 
ATOM     13  C   UNL     1      33.985 -17.401 -25.920  0.00  0.00    +0.112 C 
ATOM     14  C   UNL     1      35.707 -17.148 -21.172  0.00  0.00    -0.003 C 
ATOM     15  C   UNL     1      35.449 -18.952 -22.804  0.00  0.00    +0.016 C 
ATOM     16  C   UNL     1      35.801 -18.498 -21.515  0.00  0.00    +0.001 C 
ATOM     17  C   UNL     1      34.593 -19.808 -25.510  0.00  0.00    +0.112 C 
ATOM     18  H   UNL     1      33.888 -12.457 -21.476  0.00  0.00    -0.080 HD
ENDROOT
BRANCH   2  19
ATOM     19  C   UNL     1      31.990 -12.882 -20.887  0.00  0.00    -0.077 C 
BRANCH  19  20
ATOM     20  C   UNL     1      32.105 -11.503 -20.234  0.00  0.00    -0.015 C 
BRANCH  20  21
ATOM     21  C   UNL     1      31.600 -10.382 -21.148  0.00  0.00    +0.067 C 
BRANCH  21  23
ATOM     22  O   UNL     1      32.861  -8.745 -19.901  0.00  0.00    -0.291 OA
ATOM     23  C   UNL     1      32.356  -9.073 -20.972  0.00  0.00    +0.173 C 
BRANCH  23  25
ATOM     24  F   UNL     1      32.916  -5.678 -25.415  0.00  0.00    -0.204 F 
ATOM     25  C   UNL     1      32.504  -8.171 -22.150  0.00  0.00    +0.035 C 
ATOM     26  C   UNL     1      33.642  -7.376 -22.281  0.00  0.00    +0.005 C 
ATOM     27  C   UNL     1      31.505  -8.125 -23.123  0.00  0.00    +0.005 C 
ATOM     28  C   UNL     1      33.781  -6.533 -23.384  0.00  0.00    +0.030 C 
ATOM     29  C   UNL     1      31.644  -7.283 -24.226  0.00  0.00    +0.030 C 
ATOM     30  C   UNL     1      32.782  -6.487 -24.356  0.00  0.00    +0.140 C 
ENDBRANCH  23  25
ENDBRANCH  21  23
ENDBRANCH  20  21
ENDBRANCH  19  20
ENDBRANCH   2  19
TORSDOF 5
ENDMDL
MODEL 7
REMARK VINA RESULT:      -9.9      7.533     12.623
REMARK  Name = 21302490
REMARK  5 active torsions:
REMARK  status: ('A' for Active; 'I' for Inactive)
REMARK    1  A    between atoms: N_2  and  C_19
REMARK    2  A    between atoms: C_19  and  C_20
REMARK    3  A    between atoms: C_20  and  C_21
REMARK    4  A    between atoms: C_21  and  C_23
REMARK    5  A    between atoms: C_23  and  C_25
REMARK                            x       y       z     vdW  Elec       q    Type
REMARK                         _______ _______ _______ _____ _____    ______ ____
ROOT
ATOM      1  N   UNL     1      38.205 -23.790 -15.542  0.00  0.00    -0.307 N 
ATOM      2  N   UNL     1      34.641 -22.953 -16.641  0.00  0.00    +0.387 N 
ATOM      3  N   UNL     1      40.043 -25.737 -14.538  0.00  0.00    -0.303 N 
ATOM      4  C   UNL     1      37.292 -22.647 -15.414  0.00  0.00    +0.073 C 
ATOM      5  C   UNL     1      36.062 -23.185 -14.611  0.00  0.00    +0.021 C 
ATOM      6  C   UNL     1      36.913 -22.027 -16.754  0.00  0.00    -0.003 C 
ATOM      7  C   UNL     1      34.963 -23.802 -15.491  0.00  0.00    -0.071 C 
ATOM      8  C   UNL     1      36.731 -24.256 -13.798  0.00  0.00    -0.008 C 
ATOM      9  C   UNL     1      37.955 -24.570 -14.395  0.00  0.00    +0.057 C 
ATOM     10  C   UNL     1      35.825 -22.797 -17.497  0.00  0.00    -0.076 C 
ATOM     11  C   UNL     1      39.605 -23.703 -15.905  0.00  0.00    +0.112 C 
ATOM     12  C   UNL     1      38.827 -25.536 -13.898  0.00  0.00    +0.061 C 
ATOM     13  C   UNL     1      40.233 -25.105 -15.853  0.00  0.00    +0.112 C 
ATOM     14  C   UNL     1      36.310 -24.921 -12.665  0.00  0.00    -0.003 C 
ATOM     15  C   UNL     1      38.395 -26.200 -12.742  0.00  0.00    +0.016 C 
ATOM     16  C   UNL     1      37.155 -25.899 -12.138  0.00  0.00    +0.001 C 
ATOM     17  C   UNL     1      40.932 -26.816 -14.145  0.00  0.00    +0.112 C 
ATOM     18  H   UNL     1      34.353 -22.034 -16.304  0.00  0.00    -0.080 HD
ENDROOT
BRANCH   2  19
ATOM     19  C   UNL     1      33.536 -23.532 -17.406  0.00  0.00    -0.077 C 
BRANCH  19  20
ATOM     20  C   UNL     1      32.946 -22.489 -18.357  0.00  0.00    -0.015 C 
BRANCH  20  21
ATOM     21  C   UNL     1      33.784 -22.320 -19.628  0.00  0.00    +0.067 C 
BRANCH  21  23
ATOM     22  O   UNL     1      32.510 -20.395 -20.331  0.00  0.00    -0.291 OA
ATOM     23  C   UNL     1      33.596 -20.968 -20.300  0.00  0.00    +0.173 C 
BRANCH  23  25
ATOM     24  F   UNL     1      38.062 -18.483 -22.638  0.00  0.00    -0.204 F 
ATOM     25  C   UNL     1      34.781 -20.309 -20.922  0.00  0.00    +0.035 C 
ATOM     26  C   UNL     1      34.627 -19.542 -22.076  0.00  0.00    +0.005 C 
ATOM     27  C   UNL     1      36.043 -20.458 -20.347  0.00  0.00    +0.005 C 
ATOM     28  C   UNL     1      35.735 -18.925 -22.656  0.00  0.00    +0.030 C 
ATOM     29  C   UNL     1      37.152 -19.842 -20.926  0.00  0.00    +0.030 C 
ATOM     30  C   UNL     1      36.997 -19.075 -22.081  0.00  0.00    +0.140 C 
ENDBRANCH  23  25
ENDBRANCH  21  23
ENDBRANCH  20  21
ENDBRANCH  19  20
ENDBRANCH   2  19
TORSDOF 5
ENDMDL
MODEL 8
REMARK VINA RESULT:      -9.8      5.004      7.355
REMARK  Name = 21302490
REMARK  5 active torsions:
REMARK  status: ('A' for Active; 'I' for Inactive)
REMARK    1  A    between atoms: N_2  and  C_19
REMARK    2  A    between atoms: C_19  and  C_20
REMARK    3  A    between atoms: C_20  and  C_21
REMARK    4  A    between atoms: C_21  and  C_23
REMARK    5  A    between atoms: C_23  and  C_25
REMARK                            x       y       z     vdW  Elec       q    Type
REMARK                         _______ _______ _______ _____ _____    ______ ____
ROOT
ATOM      1  N   UNL     1      32.111  -6.177 -22.009  0.00  0.00    -0.307 N 
ATOM      2  N   UNL     1      32.671  -9.943 -21.666  0.00  0.00    +0.387 N 
ATOM      3  N   UNL     1      31.513  -3.956 -23.707  0.00  0.00    -0.303 N 
ATOM      4  C   UNL     1      33.012  -7.055 -21.252  0.00  0.00    +0.073 C 
ATOM      5  C   UNL     1      33.829  -7.842 -22.329  0.00  0.00    +0.021 C 
ATOM      6  C   UNL     1      32.282  -7.962 -20.268  0.00  0.00    -0.003 C 
ATOM      7  C   UNL     1      33.158  -9.144 -22.795  0.00  0.00    -0.071 C 
ATOM      8  C   UNL     1      33.826  -6.835 -23.444  0.00  0.00    -0.008 C 
ATOM      9  C   UNL     1      32.803  -5.913 -23.208  0.00  0.00    +0.057 C 
ATOM     10  C   UNL     1      31.654  -9.190 -20.920  0.00  0.00    -0.076 C 
ATOM     11  C   UNL     1      31.409  -5.033 -21.464  0.00  0.00    +0.112 C 
ATOM     12  C   UNL     1      32.519  -4.847 -24.059  0.00  0.00    +0.061 C 
ATOM     13  C   UNL     1      30.632  -4.330 -22.589  0.00  0.00    +0.112 C 
ATOM     14  C   UNL     1      34.610  -6.742 -24.574  0.00  0.00    -0.003 C 
ATOM     15  C   UNL     1      33.327  -4.754 -25.200  0.00  0.00    +0.016 C 
ATOM     16  C   UNL     1      34.354  -5.688 -25.454  0.00  0.00    +0.001 C 
ATOM     17  C   UNL     1      31.085  -2.906 -24.614  0.00  0.00    +0.112 C 
ATOM     18  H   UNL     1      33.454 -10.148 -21.044  0.00  0.00    -0.080 HD
ENDROOT
BRANCH   2  19
ATOM     19  C   UNL     1      32.115 -11.210 -22.144  0.00  0.00    -0.077 C 
BRANCH  19  20
ATOM     20  C   UNL     1      32.354 -12.316 -21.113  0.00  0.00    -0.015 C 
BRANCH  20  21
ATOM     21  C   UNL     1      32.544 -13.688 -21.766  0.00  0.00    +0.067 C 
BRANCH  21  23
ATOM     22  O   UNL     1      34.920 -14.075 -21.943  0.00  0.00    -0.291 OA
ATOM     23  C   UNL     1      33.862 -13.822 -22.515  0.00  0.00    +0.173 C 
BRANCH  23  25
ATOM     24  F   UNL     1      33.857 -13.224 -28.103  0.00  0.00    -0.204 F 
ATOM     25  C   UNL     1      33.860 -13.663 -23.998  0.00  0.00    +0.035 C 
ATOM     26  C   UNL     1      34.104 -12.413 -24.565  0.00  0.00    +0.005 C 
ATOM     27  C   UNL     1      33.615 -14.765 -24.817  0.00  0.00    +0.005 C 
ATOM     28  C   UNL     1      34.103 -12.264 -25.952  0.00  0.00    +0.030 C 
ATOM     29  C   UNL     1      33.614 -14.617 -26.204  0.00  0.00    +0.030 C 
ATOM     30  C   UNL     1      33.858 -13.367 -26.771  0.00  0.00    +0.140 C 
ENDBRANCH  23  25
ENDBRANCH  21  23
ENDBRANCH  20  21
ENDBRANCH  19  20
ENDBRANCH   2  19
TORSDOF 5
ENDMDL
MODEL 9
REMARK VINA RESULT:      -9.7      1.438      2.058
REMARK  Name = 21302490
REMARK  5 active torsions:
REMARK  status: ('A' for Active; 'I' for Inactive)
REMARK    1  A    between atoms: N_2  and  C_19
REMARK    2  A    between atoms: C_19  and  C_20
REMARK    3  A    between atoms: C_20  and  C_21
REMARK    4  A    between atoms: C_21  and  C_23
REMARK    5  A    between atoms: C_23  and  C_25
REMARK                            x       y       z     vdW  Elec       q    Type
REMARK                         _______ _______ _______ _____ _____    ______ ____
ROOT
ATOM      1  N   UNL     1      33.000 -10.056 -22.904  0.00  0.00    -0.307 N 
ATOM      2  N   UNL     1      34.098 -13.687 -23.382  0.00  0.00    +0.387 N 
ATOM      3  N   UNL     1      32.786  -7.792 -21.171  0.00  0.00    -0.303 N 
ATOM      4  C   UNL     1      32.482 -11.243 -23.595  0.00  0.00    +0.073 C 
ATOM      5  C   UNL     1      32.238 -12.305 -22.473  0.00  0.00    +0.021 C 
ATOM      6  C   UNL     1      33.399 -11.740 -24.707  0.00  0.00    -0.003 C 
ATOM      7  C   UNL     1      33.464 -13.178 -22.162  0.00  0.00    -0.071 C 
ATOM      8  C   UNL     1      31.947 -11.396 -21.314  0.00  0.00    -0.008 C 
ATOM      9  C   UNL     1      32.425 -10.118 -21.619  0.00  0.00    +0.057 C 
ATOM     10  C   UNL     1      34.578 -12.566 -24.202  0.00  0.00    -0.076 C 
ATOM     11  C   UNL     1      33.055  -8.722 -23.465  0.00  0.00    +0.112 C 
ATOM     12  C   UNL     1      32.325  -9.033 -20.751  0.00  0.00    +0.061 C 
ATOM     13  C   UNL     1      33.588  -7.745 -22.403  0.00  0.00    +0.112 C 
ATOM     14  C   UNL     1      31.355 -11.652 -20.095  0.00  0.00    -0.003 C 
ATOM     15  C   UNL     1      31.713  -9.301 -19.519  0.00  0.00    +0.016 C 
ATOM     16  C   UNL     1      31.239 -10.591 -19.196  0.00  0.00    +0.001 C 
ATOM     17  C   UNL     1      32.829  -6.658 -20.265  0.00  0.00    +0.112 C 
ATOM     18  H   UNL     1      33.410 -14.216 -23.917  0.00  0.00    -0.080 HD
ENDROOT
BRANCH   2  19
ATOM     19  C   UNL     1      35.208 -14.579 -23.044  0.00  0.00    -0.077 C 
BRANCH  19  20
ATOM     20  C   UNL     1      34.729 -16.031 -23.011  0.00  0.00    -0.015 C 
BRANCH  20  21
ATOM     21  C   UNL     1      35.123 -16.803 -24.274  0.00  0.00    +0.067 C 
BRANCH  21  23
ATOM     22  O   UNL     1      34.523 -19.024 -25.001  0.00  0.00    -0.291 OA
ATOM     23  C   UNL     1      35.002 -18.312 -24.122  0.00  0.00    +0.173 C 
BRANCH  23  25
ATOM     24  F   UNL     1      36.899 -20.695 -19.399  0.00  0.00    -0.204 F 
ATOM     25  C   UNL     1      35.506 -18.946 -22.869  0.00  0.00    +0.035 C 
ATOM     26  C   UNL     1      36.816 -18.715 -22.450  0.00  0.00    +0.005 C 
ATOM     27  C   UNL     1      34.666 -19.766 -22.116  0.00  0.00    +0.005 C 
ATOM     28  C   UNL     1      37.287 -19.307 -21.278  0.00  0.00    +0.030 C 
ATOM     29  C   UNL     1      35.137 -20.357 -20.944  0.00  0.00    +0.030 C 
ATOM     30  C   UNL     1      36.447 -20.127 -20.525  0.00  0.00    +0.140 C 
ENDBRANCH  23  25
ENDBRANCH  21  23
ENDBRANCH  20  21
ENDBRANCH  19  20
ENDBRANCH   2  19
TORSDOF 5
ENDMDL
