MODEL 1
REMARK VINA RESULT:     -11.7      0.000      0.000
REMARK  Name = 24180720
REMARK  6 active torsions:
REMARK  status: ('A' for Active; 'I' for Inactive)
REMARK    1  A    between atoms: C_2  and  C_6
REMARK    2  A    between atoms: C_2  and  C_21
REMARK    3  A    between atoms: C_10  and  C_14
REMARK    4  A    between atoms: C_22  and  N_27
REMARK    5  A    between atoms: N_27  and  S_29
REMARK    6  A    between atoms: S_29  and  C_32
REMARK                            x       y       z     vdW  Elec       q    Type
REMARK                         _______ _______ _______ _____ _____    ______ ____
ROOT
ATOM      1  O   UNL     1      36.898 -19.248 -21.037  0.00  0.00    -0.286 OA
ATOM      2  C   UNL     1      35.732 -19.182 -21.467  0.00  0.00    +0.201 C 
ENDROOT
BRANCH   2   6
ATOM      3  N   UNL     1      32.668 -20.994 -20.882  0.00  0.00    -0.297 N 
ATOM      4  N   UNL     1      33.000 -22.479 -19.015  0.00  0.00    -0.229 NA
ATOM      5  C   UNL     1      34.690 -20.961 -19.934  0.00  0.00    +0.036 C 
ATOM      6  C   UNL     1      34.671 -20.032 -21.009  0.00  0.00    +0.056 C 
ATOM      7  C   UNL     1      33.427 -21.542 -19.882  0.00  0.00    +0.132 C 
ATOM      8  C   UNL     1      35.637 -21.384 -18.988  0.00  0.00    +0.005 C 
ATOM      9  C   UNL     1      33.413 -20.074 -21.573  0.00  0.00    +0.066 C 
ATOM     10  C   UNL     1      35.246 -22.353 -18.066  0.00  0.00    +0.021 C 
ATOM     11  C   UNL     1      33.951 -22.849 -18.127  0.00  0.00    +0.100 C 
ATOM     12  H   UNL     1      31.731 -21.224 -21.074  0.00  0.00    +0.154 HD
BRANCH  10  14
ATOM     13  N   UNL     1      38.414 -22.833 -16.159  0.00  0.00    -0.242 NA
ATOM     14  C   UNL     1      36.173 -22.831 -17.065  0.00  0.00    +0.021 C 
ATOM     15  C   UNL     1      35.763 -23.719 -16.075  0.00  0.00    +0.003 C 
ATOM     16  C   UNL     1      37.497 -22.424 -17.063  0.00  0.00    +0.099 C 
ATOM     17  C   UNL     1      36.679 -24.163 -15.128  0.00  0.00    +0.021 C 
ATOM     18  C   UNL     1      37.979 -23.695 -15.212  0.00  0.00    +0.099 C 
ENDBRANCH  10  14
ENDBRANCH   2   6
BRANCH   2  21
ATOM     19  F   UNL     1      35.370 -16.450 -20.882  0.00  0.00    -0.203 F 
ATOM     20  F   UNL     1      35.605 -19.815 -24.221  0.00  0.00    -0.204 F 
ATOM     21  C   UNL     1      35.493 -18.153 -22.526  0.00  0.00    +0.095 C 
ATOM     22  C   UNL     1      35.098 -15.856 -23.160  0.00  0.00    +0.092 C 
ATOM     23  C   UNL     1      35.321 -16.815 -22.172  0.00  0.00    +0.160 C 
ATOM     24  C   UNL     1      35.442 -18.533 -23.868  0.00  0.00    +0.145 C 
ATOM     25  C   UNL     1      35.047 -16.235 -24.502  0.00  0.00    +0.020 C 
ATOM     26  C   UNL     1      35.219 -17.573 -24.855  0.00  0.00    +0.031 C 
BRANCH  22  27
ATOM     27  N   UNL     1      34.921 -14.486 -22.801  0.00  0.00    -0.217 N 
ATOM     28  H   UNL     1      35.401 -14.098 -22.032  0.00  0.00    +0.173 HD
BRANCH  27  29
ATOM     29  S   UNL     1      33.848 -13.529 -23.747  0.00  0.00    +0.054 S 
ATOM     30  O   UNL     1      34.573 -12.368 -24.231  0.00  0.00    -0.154 OA
ATOM     31  O   UNL     1      33.086 -14.356 -24.662  0.00  0.00    -0.154 OA
BRANCH  29  32
ATOM     32  C   UNL     1      32.740 -12.953 -22.480  0.00  0.00    +0.172 C 
ATOM     33  C   UNL     1      32.731 -13.882 -21.287  0.00  0.00    +0.029 C 
ENDBRANCH  29  32
ENDBRANCH  27  29
ENDBRANCH  22  27
ENDBRANCH   2  21
TORSDOF 6
ENDMDL
MODEL 2
REMARK VINA RESULT:     -11.7      3.174      5.298
REMARK  Name = 24180720
REMARK  6 active torsions:
REMARK  status: ('A' for Active; 'I' for Inactive)
REMARK    1  A    between atoms: C_2  and  C_6
REMARK    2  A    between atoms: C_2  and  C_21
REMARK    3  A    between atoms: C_10  and  C_14
REMARK    4  A    between atoms: C_22  and  N_27
REMARK    5  A    between atoms: N_27  and  S_29
REMARK    6  A    between atoms: S_29  and  C_32
REMARK                            x       y       z     vdW  Elec       q    Type
REMARK                         _______ _______ _______ _____ _____    ______ ____
ROOT
ATOM      1  O   UNL     1      33.833 -24.326 -19.517  0.00  0.00    -0.286 OA
ATOM      2  C   UNL     1      33.929 -23.344 -18.757  0.00  0.00    +0.201 C 
ENDROOT
BRANCH   2   6
ATOM      3  N   UNL     1      31.612 -22.774 -16.053  0.00  0.00    -0.297 N 
ATOM      4  N   UNL     1      32.629 -23.520 -14.000  0.00  0.00    -0.229 NA
ATOM      5  C   UNL     1      33.671 -23.624 -16.217  0.00  0.00    +0.036 C 
ATOM      6  C   UNL     1      33.228 -23.237 -17.510  0.00  0.00    +0.056 C 
ATOM      7  C   UNL     1      32.640 -23.321 -15.332  0.00  0.00    +0.132 C 
ATOM      8  C   UNL     1      34.833 -24.201 -15.683  0.00  0.00    +0.005 C 
ATOM      9  C   UNL     1      31.958 -22.717 -17.378  0.00  0.00    +0.066 C 
ATOM     10  C   UNL     1      34.874 -24.429 -14.309  0.00  0.00    +0.021 C 
ATOM     11  C   UNL     1      33.772 -24.078 -13.541  0.00  0.00    +0.100 C 
ATOM     12  H   UNL     1      30.756 -22.467 -15.677  0.00  0.00    +0.154 HD
BRANCH  10  14
ATOM     13  N   UNL     1      37.270 -25.556 -11.685  0.00  0.00    -0.242 NA
ATOM     14  C   UNL     1      36.042 -25.020 -13.696  0.00  0.00    +0.021 C 
ATOM     15  C   UNL     1      37.041 -25.602 -14.470  0.00  0.00    +0.003 C 
ATOM     16  C   UNL     1      36.204 -25.023 -12.320  0.00  0.00    +0.099 C 
ATOM     17  C   UNL     1      38.154 -26.160 -13.852  0.00  0.00    +0.021 C 
ATOM     18  C   UNL     1      38.221 -26.112 -12.469  0.00  0.00    +0.099 C 
ENDBRANCH  10  14
ENDBRANCH   2   6
BRANCH   2  21
ATOM     19  F   UNL     1      33.209 -21.578 -20.830  0.00  0.00    -0.203 F 
ATOM     20  F   UNL     1      36.491 -22.872 -17.656  0.00  0.00    -0.204 F 
ATOM     21  C   UNL     1      34.828 -22.248 -19.234  0.00  0.00    +0.095 C 
ATOM     22  C   UNL     1      35.252 -20.383 -20.710  0.00  0.00    +0.092 C 
ATOM     23  C   UNL     1      34.414 -21.405 -20.266  0.00  0.00    +0.160 C 
ATOM     24  C   UNL     1      36.081 -22.069 -18.647  0.00  0.00    +0.145 C 
ATOM     25  C   UNL     1      36.505 -20.204 -20.124  0.00  0.00    +0.020 C 
ATOM     26  C   UNL     1      36.919 -21.046 -19.092  0.00  0.00    +0.031 C 
BRANCH  22  27
ATOM     27  N   UNL     1      34.831 -19.520 -21.767  0.00  0.00    -0.217 N 
ATOM     28  H   UNL     1      33.977 -19.672 -22.234  0.00  0.00    +0.173 HD
BRANCH  27  29
ATOM     29  S   UNL     1      35.855 -18.206 -22.200  0.00  0.00    +0.054 S 
ATOM     30  O   UNL     1      35.596 -17.103 -21.292  0.00  0.00    -0.154 OA
ATOM     31  O   UNL     1      37.210 -18.661 -22.438  0.00  0.00    -0.154 OA
BRANCH  29  32
ATOM     32  C   UNL     1      35.145 -17.759 -23.769  0.00  0.00    +0.172 C 
ATOM     33  C   UNL     1      34.654 -18.975 -24.522  0.00  0.00    +0.029 C 
ENDBRANCH  29  32
ENDBRANCH  27  29
ENDBRANCH  22  27
ENDBRANCH   2  21
TORSDOF 6
ENDMDL
MODEL 3
REMARK VINA RESULT:     -11.3      3.506      9.338
REMARK  Name = 24180720
REMARK  6 active torsions:
REMARK  status: ('A' for Active; 'I' for Inactive)
REMARK    1  A    between atoms: C_2  and  C_6
REMARK    2  A    between atoms: C_2  and  C_21
REMARK    3  A    between atoms: C_10  and  C_14
REMARK    4  A    between atoms: C_22  and  N_27
REMARK    5  A    between atoms: N_27  and  S_29
REMARK    6  A    between atoms: S_29  and  C_32
REMARK                            x       y       z     vdW  Elec       q    Type
REMARK                         _______ _______ _______ _____ _____    ______ ____
ROOT
ATOM      1  O   UNL     1      35.578 -17.201 -21.080  0.00  0.00    -0.286 OA
ATOM      2  C   UNL     1      35.420 -18.193 -21.816  0.00  0.00    +0.201 C 
ENDROOT
BRANCH   2   6
ATOM      3  N   UNL     1      34.729 -18.713 -25.317  0.00  0.00    -0.297 N 
ATOM      4  N   UNL     1      34.148 -16.595 -26.308  0.00  0.00    -0.229 NA
ATOM      5  C   UNL     1      34.732 -16.945 -23.952  0.00  0.00    +0.036 C 
ATOM      6  C   UNL     1      35.095 -18.100 -23.210  0.00  0.00    +0.056 C 
ATOM      7  C   UNL     1      34.511 -17.361 -25.262  0.00  0.00    +0.132 C 
ATOM      8  C   UNL     1      34.562 -15.581 -23.670  0.00  0.00    +0.005 C 
ATOM      9  C   UNL     1      35.084 -19.173 -24.076  0.00  0.00    +0.066 C 
ATOM     10  C   UNL     1      34.186 -14.742 -24.718  0.00  0.00    +0.021 C 
ATOM     11  C   UNL     1      33.999 -15.291 -25.978  0.00  0.00    +0.100 C 
ATOM     12  H   UNL     1      34.644 -19.268 -26.125  0.00  0.00    +0.154 HD
BRANCH  10  14
ATOM     13  N   UNL     1      33.103 -11.557 -23.110  0.00  0.00    -0.242 NA
ATOM     14  C   UNL     1      33.995 -13.327 -24.494  0.00  0.00    +0.021 C 
ATOM     15  C   UNL     1      34.483 -12.386 -25.395  0.00  0.00    +0.003 C 
ATOM     16  C   UNL     1      33.317 -12.864 -23.378  0.00  0.00    +0.099 C 
ATOM     17  C   UNL     1      34.281 -11.032 -25.154  0.00  0.00    +0.021 C 
ATOM     18  C   UNL     1      33.592 -10.672 -24.008  0.00  0.00    +0.099 C 
ENDBRANCH  10  14
ENDBRANCH   2   6
BRANCH   2  21
ATOM     19  F   UNL     1      33.238 -19.656 -20.798  0.00  0.00    -0.203 F 
ATOM     20  F   UNL     1      37.932 -19.446 -21.467  0.00  0.00    -0.204 F 
ATOM     21  C   UNL     1      35.578 -19.522 -21.147  0.00  0.00    +0.095 C 
ATOM     22  C   UNL     1      34.606 -21.436 -20.040  0.00  0.00    +0.092 C 
ATOM     23  C   UNL     1      34.458 -20.197 -20.664  0.00  0.00    +0.160 C 
ATOM     24  C   UNL     1      36.847 -20.085 -21.007  0.00  0.00    +0.145 C 
ATOM     25  C   UNL     1      35.874 -22.000 -19.900  0.00  0.00    +0.020 C 
ATOM     26  C   UNL     1      36.994 -21.324 -20.384  0.00  0.00    +0.031 C 
BRANCH  22  27
ATOM     27  N   UNL     1      33.460 -22.129 -19.544  0.00  0.00    -0.217 N 
ATOM     28  H   UNL     1      32.579 -22.022 -19.972  0.00  0.00    +0.173 HD
BRANCH  27  29
ATOM     29  S   UNL     1      33.661 -23.158 -18.178  0.00  0.00    +0.054 S 
ATOM     30  O   UNL     1      33.671 -24.535 -18.637  0.00  0.00    -0.154 OA
ATOM     31  O   UNL     1      34.709 -22.664 -17.307  0.00  0.00    -0.154 OA
BRANCH  29  32
ATOM     32  C   UNL     1      32.103 -22.899 -17.358  0.00  0.00    +0.172 C 
ATOM     33  C   UNL     1      32.181 -23.263 -15.893  0.00  0.00    +0.029 C 
ENDBRANCH  29  32
ENDBRANCH  27  29
ENDBRANCH  22  27
ENDBRANCH   2  21
TORSDOF 6
ENDMDL
MODEL 4
REMARK VINA RESULT:     -11.2      4.169      7.142
REMARK  Name = 24180720
REMARK  6 active torsions:
REMARK  status: ('A' for Active; 'I' for Inactive)
REMARK    1  A    between atoms: C_2  and  C_6
REMARK    2  A    between atoms: C_2  and  C_21
REMARK    3  A    between atoms: C_10  and  C_14
REMARK    4  A    between atoms: C_22  and  N_27
REMARK    5  A    between atoms: N_27  and  S_29
REMARK    6  A    between atoms: S_29  and  C_32
REMARK                            x       y       z     vdW  Elec       q    Type
REMARK                         _______ _______ _______ _____ _____    ______ ____
ROOT
ATOM      1  O   UNL     1      35.456 -12.457 -23.490  0.00  0.00    -0.286 OA
ATOM      2  C   UNL     1      34.319 -12.909 -23.717  0.00  0.00    +0.201 C 
ENDROOT
BRANCH   2   6
ATOM      3  N   UNL     1      33.374 -15.045 -26.466  0.00  0.00    -0.297 N 
ATOM      4  N   UNL     1      34.015 -17.307 -25.936  0.00  0.00    -0.229 NA
ATOM      5  C   UNL     1      34.370 -15.358 -24.492  0.00  0.00    +0.036 C 
ATOM      6  C   UNL     1      34.062 -13.979 -24.638  0.00  0.00    +0.056 C 
ATOM      7  C   UNL     1      33.927 -15.994 -25.648  0.00  0.00    +0.132 C 
ATOM      8  C   UNL     1      34.977 -16.153 -23.507  0.00  0.00    +0.005 C 
ATOM      9  C   UNL     1      33.450 -13.817 -25.863  0.00  0.00    +0.066 C 
ATOM     10  C   UNL     1      35.093 -17.519 -23.756  0.00  0.00    +0.021 C 
ATOM     11  C   UNL     1      34.608 -18.024 -24.954  0.00  0.00    +0.100 C 
ATOM     12  H   UNL     1      32.981 -15.220 -27.351  0.00  0.00    +0.154 HD
BRANCH  10  14
ATOM     13  N   UNL     1      37.685 -19.056 -21.559  0.00  0.00    -0.242 NA
ATOM     14  C   UNL     1      35.708 -18.394 -22.783  0.00  0.00    +0.021 C 
ATOM     15  C   UNL     1      34.972 -19.388 -22.146  0.00  0.00    +0.003 C 
ATOM     16  C   UNL     1      37.049 -18.271 -22.457  0.00  0.00    +0.099 C 
ATOM     17  C   UNL     1      35.592 -20.215 -21.216  0.00  0.00    +0.021 C 
ATOM     18  C   UNL     1      36.937 -20.010 -20.961  0.00  0.00    +0.099 C 
ENDBRANCH  10  14
ENDBRANCH   2   6
BRANCH   2  21
ATOM     19  F   UNL     1      33.467 -10.279 -24.261  0.00  0.00    -0.203 F 
ATOM     20  F   UNL     1      32.889 -14.196 -21.644  0.00  0.00    -0.204 F 
ATOM     21  C   UNL     1      33.203 -12.250 -22.971  0.00  0.00    +0.095 C 
ATOM     22  C   UNL     1      31.787 -10.330 -22.590  0.00  0.00    +0.092 C 
ATOM     23  C   UNL     1      32.827 -10.944 -23.287  0.00  0.00    +0.160 C 
ATOM     24  C   UNL     1      32.538 -12.941 -21.958  0.00  0.00    +0.145 C 
ATOM     25  C   UNL     1      31.122 -11.021 -21.577  0.00  0.00    +0.020 C 
ATOM     26  C   UNL     1      31.497 -12.327 -21.261  0.00  0.00    +0.031 C 
BRANCH  22  27
ATOM     27  N   UNL     1      31.401  -8.993 -22.911  0.00  0.00    -0.217 N 
ATOM     28  H   UNL     1      30.661  -8.817 -23.537  0.00  0.00    +0.173 HD
BRANCH  27  29
ATOM     29  S   UNL     1      32.263  -7.699 -22.173  0.00  0.00    +0.054 S 
ATOM     30  O   UNL     1      31.326  -6.625 -21.892  0.00  0.00    -0.154 OA
ATOM     31  O   UNL     1      33.151  -8.191 -21.139  0.00  0.00    -0.154 OA
BRANCH  29  32
ATOM     32  C   UNL     1      33.263  -7.165 -23.544  0.00  0.00    +0.172 C 
ATOM     33  C   UNL     1      34.738  -7.311 -23.245  0.00  0.00    +0.029 C 
ENDBRANCH  29  32
ENDBRANCH  27  29
ENDBRANCH  22  27
ENDBRANCH   2  21
TORSDOF 6
ENDMDL
MODEL 5
REMARK VINA RESULT:     -11.0      4.926      8.966
REMARK  Name = 24180720
REMARK  6 active torsions:
REMARK  status: ('A' for Active; 'I' for Inactive)
REMARK    1  A    between atoms: C_2  and  C_6
REMARK    2  A    between atoms: C_2  and  C_21
REMARK    3  A    between atoms: C_10  and  C_14
REMARK    4  A    between atoms: C_22  and  N_27
REMARK    5  A    between atoms: N_27  and  S_29
REMARK    6  A    between atoms: S_29  and  C_32
REMARK                            x       y       z     vdW  Elec       q    Type
REMARK                         _______ _______ _______ _____ _____    ______ ____
ROOT
ATOM      1  O   UNL     1      34.163 -23.640 -19.750  0.00  0.00    -0.286 OA
ATOM      2  C   UNL     1      34.476 -22.987 -18.737  0.00  0.00    +0.201 C 
ENDROOT
BRANCH   2   6
ATOM      3  N   UNL     1      37.453 -21.099 -17.974  0.00  0.00    -0.297 N 
ATOM      4  N   UNL     1      37.780 -19.451 -19.700  0.00  0.00    -0.229 NA
ATOM      5  C   UNL     1      35.937 -21.066 -19.614  0.00  0.00    +0.036 C 
ATOM      6  C   UNL     1      35.593 -22.088 -18.690  0.00  0.00    +0.056 C 
ATOM      7  C   UNL     1      37.101 -20.468 -19.137  0.00  0.00    +0.132 C 
ATOM      8  C   UNL     1      35.397 -20.568 -20.810  0.00  0.00    +0.005 C 
ATOM      9  C   UNL     1      36.544 -22.085 -17.691  0.00  0.00    +0.066 C 
ATOM     10  C   UNL     1      36.062 -19.514 -21.434  0.00  0.00    +0.021 C 
ATOM     11  C   UNL     1      37.216 -19.012 -20.849  0.00  0.00    +0.100 C 
ATOM     12  H   UNL     1      38.238 -20.877 -17.424  0.00  0.00    +0.154 HD
BRANCH  10  14
ATOM     13  N   UNL     1      35.262 -17.024 -24.092  0.00  0.00    -0.242 NA
ATOM     14  C   UNL     1      35.559 -18.956 -22.668  0.00  0.00    +0.021 C 
ATOM     15  C   UNL     1      34.903 -19.753 -23.601  0.00  0.00    +0.003 C 
ATOM     16  C   UNL     1      35.710 -17.610 -22.959  0.00  0.00    +0.099 C 
ATOM     17  C   UNL     1      34.427 -19.186 -24.779  0.00  0.00    +0.021 C 
ATOM     18  C   UNL     1      34.630 -17.830 -24.975  0.00  0.00    +0.099 C 
ENDBRANCH  10  14
ENDBRANCH   2   6
BRANCH   2  21
ATOM     19  F   UNL     1      31.839 -22.011 -18.557  0.00  0.00    -0.203 F 
ATOM     20  F   UNL     1      35.352 -24.417 -16.459  0.00  0.00    -0.204 F 
ATOM     21  C   UNL     1      33.612 -23.208 -17.536  0.00  0.00    +0.095 C 
ATOM     22  C   UNL     1      31.509 -22.905 -16.387  0.00  0.00    +0.092 C 
ATOM     23  C   UNL     1      32.314 -22.699 -17.507  0.00  0.00    +0.160 C 
ATOM     24  C   UNL     1      34.106 -23.923 -16.444  0.00  0.00    +0.145 C 
ATOM     25  C   UNL     1      32.002 -23.619 -15.295  0.00  0.00    +0.020 C 
ATOM     26  C   UNL     1      33.301 -24.128 -15.324  0.00  0.00    +0.031 C 
BRANCH  22  27
ATOM     27  N   UNL     1      30.180 -22.384 -16.354  0.00  0.00    -0.217 N 
ATOM     28  H   UNL     1      30.015 -21.428 -16.180  0.00  0.00    +0.173 HD
BRANCH  27  29
ATOM     29  S   UNL     1      28.874 -23.471 -16.629  0.00  0.00    +0.054 S 
ATOM     30  O   UNL     1      28.646 -23.563 -18.060  0.00  0.00    -0.154 OA
ATOM     31  O   UNL     1      29.021 -24.670 -15.828  0.00  0.00    -0.154 OA
BRANCH  29  32
ATOM     32  C   UNL     1      27.529 -22.524 -15.952  0.00  0.00    +0.172 C 
ATOM     33  C   UNL     1      26.656 -21.942 -17.042  0.00  0.00    +0.029 C 
ENDBRANCH  29  32
ENDBRANCH  27  29
ENDBRANCH  22  27
ENDBRANCH   2  21
TORSDOF 6
ENDMDL
MODEL 6
REMARK VINA RESULT:     -10.9      5.026      9.714
REMARK  Name = 24180720
REMARK  6 active torsions:
REMARK  status: ('A' for Active; 'I' for Inactive)
REMARK    1  A    between atoms: C_2  and  C_6
REMARK    2  A    between atoms: C_2  and  C_21
REMARK    3  A    between atoms: C_10  and  C_14
REMARK    4  A    between atoms: C_22  and  N_27
REMARK    5  A    between atoms: N_27  and  S_29
REMARK    6  A    between atoms: S_29  and  C_32
REMARK                            x       y       z     vdW  Elec       q    Type
REMARK                         _______ _______ _______ _____ _____    ______ ____
ROOT
ATOM      1  O   UNL     1      34.201 -23.513 -19.707  0.00  0.00    -0.286 OA
ATOM      2  C   UNL     1      34.591 -22.904 -18.693  0.00  0.00    +0.201 C 
ENDROOT
BRANCH   2   6
ATOM      3  N   UNL     1      37.568 -20.971 -18.052  0.00  0.00    -0.297 N 
ATOM      4  N   UNL     1      37.831 -19.356 -19.821  0.00  0.00    -0.229 NA
ATOM      5  C   UNL     1      36.008 -20.987 -19.650  0.00  0.00    +0.036 C 
ATOM      6  C   UNL     1      35.699 -21.993 -18.696  0.00  0.00    +0.056 C 
ATOM      7  C   UNL     1      37.178 -20.368 -19.219  0.00  0.00    +0.132 C 
ATOM      8  C   UNL     1      35.430 -20.520 -20.841  0.00  0.00    +0.005 C 
ATOM      9  C   UNL     1      36.677 -21.960 -17.724  0.00  0.00    +0.066 C 
ATOM     10  C   UNL     1      36.067 -19.473 -21.505  0.00  0.00    +0.021 C 
ATOM     11  C   UNL     1      37.231 -18.947 -20.962  0.00  0.00    +0.100 C 
ATOM     12  H   UNL     1      38.366 -20.730 -17.529  0.00  0.00    +0.154 HD
BRANCH  10  14
ATOM     13  N   UNL     1      35.129 -17.039 -24.170  0.00  0.00    -0.242 NA
ATOM     14  C   UNL     1      35.523 -18.945 -22.736  0.00  0.00    +0.021 C 
ATOM     15  C   UNL     1      34.888 -19.776 -23.653  0.00  0.00    +0.003 C 
ATOM     16  C   UNL     1      35.616 -17.597 -23.039  0.00  0.00    +0.099 C 
ATOM     17  C   UNL     1      34.373 -19.239 -24.828  0.00  0.00    +0.021 C 
ATOM     18  C   UNL     1      34.518 -17.877 -25.037  0.00  0.00    +0.099 C 
ENDBRANCH  10  14
ENDBRANCH   2   6
BRANCH   2  21
ATOM     19  F   UNL     1      35.658 -24.443 -16.588  0.00  0.00    -0.203 F 
ATOM     20  F   UNL     1      31.968 -21.953 -18.233  0.00  0.00    -0.204 F 
ATOM     21  C   UNL     1      33.832 -23.192 -17.437  0.00  0.00    +0.095 C 
ATOM     22  C   UNL     1      33.708 -24.230 -15.259  0.00  0.00    +0.092 C 
ATOM     23  C   UNL     1      34.416 -23.961 -16.430  0.00  0.00    +0.160 C 
ATOM     24  C   UNL     1      32.541 -22.693 -17.273  0.00  0.00    +0.145 C 
ATOM     25  C   UNL     1      32.416 -23.731 -15.095  0.00  0.00    +0.020 C 
ATOM     26  C   UNL     1      31.832 -22.962 -16.102  0.00  0.00    +0.031 C 
BRANCH  22  27
ATOM     27  N   UNL     1      34.303 -25.018 -14.227  0.00  0.00    -0.217 N 
ATOM     28  H   UNL     1      34.080 -25.972 -14.127  0.00  0.00    +0.173 HD
BRANCH  27  29
ATOM     29  S   UNL     1      35.421 -24.255 -13.164  0.00  0.00    +0.054 S 
ATOM     30  O   UNL     1      36.028 -23.136 -13.862  0.00  0.00    -0.154 OA
ATOM     31  O   UNL     1      34.842 -24.075 -11.847  0.00  0.00    -0.154 OA
BRANCH  29  32
ATOM     32  C   UNL     1      36.661 -25.524 -13.047  0.00  0.00    +0.172 C 
ATOM     33  C   UNL     1      38.023 -24.943 -12.739  0.00  0.00    +0.029 C 
ENDBRANCH  29  32
ENDBRANCH  27  29
ENDBRANCH  22  27
ENDBRANCH   2  21
TORSDOF 6
ENDMDL
MODEL 7
REMARK VINA RESULT:     -10.8      3.201      5.914
REMARK  Name = 24180720
REMARK  6 active torsions:
REMARK  status: ('A' for Active; 'I' for Inactive)
REMARK    1  A    between atoms: C_2  and  C_6
REMARK    2  A    between atoms: C_2  and  C_21
REMARK    3  A    between atoms: C_10  and  C_14
REMARK    4  A    between atoms: C_22  and  N_27
REMARK    5  A    between atoms: N_27  and  S_29
REMARK    6  A    between atoms: S_29  and  C_32
REMARK                            x       y       z     vdW  Elec       q    Type
REMARK                         _______ _______ _______ _____ _____    ______ ____
ROOT
ATOM      1  O   UNL     1      35.364 -14.152 -21.045  0.00  0.00    -0.286 OA
ATOM      2  C   UNL     1      34.598 -14.200 -22.024  0.00  0.00    +0.201 C 
ENDROOT
BRANCH   2   6
ATOM      3  N   UNL     1      34.833 -16.003 -25.140  0.00  0.00    -0.297 N 
ATOM      4  N   UNL     1      35.172 -18.338 -24.652  0.00  0.00    -0.229 NA
ATOM      5  C   UNL     1      34.930 -16.562 -22.979  0.00  0.00    +0.036 C 
ATOM      6  C   UNL     1      34.727 -15.160 -23.083  0.00  0.00    +0.056 C 
ATOM      7  C   UNL     1      34.991 -17.057 -24.279  0.00  0.00    +0.132 C 
ATOM      8  C   UNL     1      35.071 -17.482 -21.929  0.00  0.00    +0.005 C 
ATOM      9  C   UNL     1      34.672 -14.845 -24.425  0.00  0.00    +0.066 C 
ATOM     10  C   UNL     1      35.261 -18.822 -22.260  0.00  0.00    +0.021 C 
ATOM     11  C   UNL     1      35.302 -19.180 -23.600  0.00  0.00    +0.100 C 
ATOM     12  H   UNL     1      34.835 -16.068 -26.122  0.00  0.00    +0.154 HD
BRANCH  10  14
ATOM     13  N   UNL     1      36.847 -20.955 -19.646  0.00  0.00    -0.242 NA
ATOM     14  C   UNL     1      35.413 -19.820 -21.226  0.00  0.00    +0.021 C 
ATOM     15  C   UNL     1      34.333 -20.595 -20.813  0.00  0.00    +0.003 C 
ATOM     16  C   UNL     1      36.637 -20.038 -20.616  0.00  0.00    +0.099 C 
ATOM     17  C   UNL     1      34.511 -21.549 -19.818  0.00  0.00    +0.021 C 
ATOM     18  C   UNL     1      35.775 -21.689 -19.271  0.00  0.00    +0.099 C 
ENDBRANCH  10  14
ENDBRANCH   2   6
BRANCH   2  21
ATOM     19  F   UNL     1      34.707 -11.912 -23.664  0.00  0.00    -0.203 F 
ATOM     20  F   UNL     1      32.272 -14.382 -20.425  0.00  0.00    -0.204 F 
ATOM     21  C   UNL     1      33.515 -13.169 -22.046  0.00  0.00    +0.095 C 
ATOM     22  C   UNL     1      32.618 -11.094 -22.900  0.00  0.00    +0.092 C 
ATOM     23  C   UNL     1      33.627 -12.056 -22.880  0.00  0.00    +0.160 C 
ATOM     24  C   UNL     1      32.392 -13.319 -21.232  0.00  0.00    +0.145 C 
ATOM     25  C   UNL     1      31.495 -11.244 -22.085  0.00  0.00    +0.020 C 
ATOM     26  C   UNL     1      31.383 -12.357 -21.251  0.00  0.00    +0.031 C 
BRANCH  22  27
ATOM     27  N   UNL     1      32.731  -9.955 -23.752  0.00  0.00    -0.217 N 
ATOM     28  H   UNL     1      32.740 -10.055 -24.732  0.00  0.00    +0.173 HD
BRANCH  27  29
ATOM     29  S   UNL     1      32.851  -8.401 -23.021  0.00  0.00    +0.054 S 
ATOM     30  O   UNL     1      31.789  -7.563 -23.547  0.00  0.00    -0.154 OA
ATOM     31  O   UNL     1      33.059  -8.516 -21.591  0.00  0.00    -0.154 OA
BRANCH  29  32
ATOM     32  C   UNL     1      34.370  -7.827 -23.749  0.00  0.00    +0.172 C 
ATOM     33  C   UNL     1      34.311  -6.348 -24.060  0.00  0.00    +0.029 C 
ENDBRANCH  29  32
ENDBRANCH  27  29
ENDBRANCH  22  27
ENDBRANCH   2  21
TORSDOF 6
ENDMDL
MODEL 8
REMARK VINA RESULT:     -10.8      5.548      9.218
REMARK  Name = 24180720
REMARK  6 active torsions:
REMARK  status: ('A' for Active; 'I' for Inactive)
REMARK    1  A    between atoms: C_2  and  C_6
REMARK    2  A    between atoms: C_2  and  C_21
REMARK    3  A    between atoms: C_10  and  C_14
REMARK    4  A    between atoms: C_22  and  N_27
REMARK    5  A    between atoms: N_27  and  S_29
REMARK    6  A    between atoms: S_29  and  C_32
REMARK                            x       y       z     vdW  Elec       q    Type
REMARK                         _______ _______ _______ _____ _____    ______ ____
ROOT
ATOM      1  O   UNL     1      34.790 -25.828 -16.003  0.00  0.00    -0.286 OA
ATOM      2  C   UNL     1      34.754 -24.616 -15.719  0.00  0.00    +0.201 C 
ENDROOT
BRANCH   2   6
ATOM      3  N   UNL     1      37.831 -22.815 -15.174  0.00  0.00    -0.297 N 
ATOM      4  N   UNL     1      38.137 -21.253 -16.983  0.00  0.00    -0.229 NA
ATOM      5  C   UNL     1      36.242 -22.790 -16.743  0.00  0.00    +0.036 C 
ATOM      6  C   UNL     1      35.904 -23.759 -15.762  0.00  0.00    +0.056 C 
ATOM      7  C   UNL     1      37.448 -22.219 -16.347  0.00  0.00    +0.132 C 
ATOM      8  C   UNL     1      35.664 -22.321 -17.933  0.00  0.00    +0.005 C 
ATOM      9  C   UNL     1      36.901 -23.753 -14.809  0.00  0.00    +0.066 C 
ATOM     10  C   UNL     1      36.337 -21.320 -18.631  0.00  0.00    +0.021 C 
ATOM     11  C   UNL     1      37.535 -20.839 -18.122  0.00  0.00    +0.100 C 
ATOM     12  H   UNL     1      38.650 -22.602 -14.671  0.00  0.00    +0.154 HD
BRANCH  10  14
ATOM     13  N   UNL     1      36.153 -19.580 -21.924  0.00  0.00    -0.242 NA
ATOM     14  C   UNL     1      35.796 -20.793 -19.864  0.00  0.00    +0.021 C 
ATOM     15  C   UNL     1      34.454 -20.963 -20.188  0.00  0.00    +0.003 C 
ATOM     16  C   UNL     1      36.596 -20.099 -20.757  0.00  0.00    +0.099 C 
ATOM     17  C   UNL     1      33.962 -20.442 -21.380  0.00  0.00    +0.021 C 
ATOM     18  C   UNL     1      34.844 -19.765 -22.206  0.00  0.00    +0.099 C 
ENDBRANCH  10  14
ENDBRANCH   2   6
BRANCH   2  21
ATOM     19  F   UNL     1      32.802 -23.792 -17.575  0.00  0.00    -0.203 F 
ATOM     20  F   UNL     1      33.972 -24.367 -13.012  0.00  0.00    -0.204 F 
ATOM     21  C   UNL     1      33.416 -24.091 -15.306  0.00  0.00    +0.095 C 
ATOM     22  C   UNL     1      31.244 -23.208 -15.888  0.00  0.00    +0.092 C 
ATOM     23  C   UNL     1      32.491 -23.698 -16.274  0.00  0.00    +0.160 C 
ATOM     24  C   UNL     1      33.093 -23.994 -13.952  0.00  0.00    +0.145 C 
ATOM     25  C   UNL     1      30.921 -23.111 -14.534  0.00  0.00    +0.020 C 
ATOM     26  C   UNL     1      31.845 -23.503 -13.567  0.00  0.00    +0.031 C 
BRANCH  22  27
ATOM     27  N   UNL     1      30.296 -22.804 -16.876  0.00  0.00    -0.217 N 
ATOM     28  H   UNL     1      30.495 -22.064 -17.496  0.00  0.00    +0.173 HD
BRANCH  27  29
ATOM     29  S   UNL     1      28.797 -23.647 -16.958  0.00  0.00    +0.054 S 
ATOM     30  O   UNL     1      28.268 -23.514 -18.303  0.00  0.00    -0.154 OA
ATOM     31  O   UNL     1      28.901 -24.951 -16.333  0.00  0.00    -0.154 OA
BRANCH  29  32
ATOM     32  C   UNL     1      27.799 -22.615 -15.907  0.00  0.00    +0.172 C 
ATOM     33  C   UNL     1      26.606 -22.056 -16.650  0.00  0.00    +0.029 C 
ENDBRANCH  29  32
ENDBRANCH  27  29
ENDBRANCH  22  27
ENDBRANCH   2  21
TORSDOF 6
ENDMDL
MODEL 9
REMARK VINA RESULT:     -10.6      3.245      9.239
REMARK  Name = 24180720
REMARK  6 active torsions:
REMARK  status: ('A' for Active; 'I' for Inactive)
REMARK    1  A    between atoms: C_2  and  C_6
REMARK    2  A    between atoms: C_2  and  C_21
REMARK    3  A    between atoms: C_10  and  C_14
REMARK    4  A    between atoms: C_22  and  N_27
REMARK    5  A    between atoms: N_27  and  S_29
REMARK    6  A    between atoms: S_29  and  C_32
REMARK                            x       y       z     vdW  Elec       q    Type
REMARK                         _______ _______ _______ _____ _____    ______ ____
ROOT
ATOM      1  O   UNL     1      36.367 -17.854 -21.182  0.00  0.00    -0.286 OA
ATOM      2  C   UNL     1      35.711 -18.734 -21.771  0.00  0.00    +0.201 C 
ENDROOT
BRANCH   2   6
ATOM      3  N   UNL     1      34.857 -19.238 -25.239  0.00  0.00    -0.297 N 
ATOM      4  N   UNL     1      34.174 -17.127 -26.176  0.00  0.00    -0.229 NA
ATOM      5  C   UNL     1      34.885 -17.484 -23.857  0.00  0.00    +0.036 C 
ATOM      6  C   UNL     1      35.313 -18.636 -23.146  0.00  0.00    +0.056 C 
ATOM      7  C   UNL     1      34.609 -17.894 -25.159  0.00  0.00    +0.132 C 
ATOM      8  C   UNL     1      34.695 -16.127 -23.552  0.00  0.00    +0.005 C 
ATOM      9  C   UNL     1      35.286 -19.701 -24.022  0.00  0.00    +0.066 C 
ATOM     10  C   UNL     1      34.246 -15.289 -24.571  0.00  0.00    +0.021 C 
ATOM     11  C   UNL     1      34.009 -15.830 -25.826  0.00  0.00    +0.100 C 
ATOM     12  H   UNL     1      34.745 -19.788 -26.048  0.00  0.00    +0.154 HD
BRANCH  10  14
ATOM     13  N   UNL     1      33.132 -12.150 -22.895  0.00  0.00    -0.242 NA
ATOM     14  C   UNL     1      34.030 -13.881 -24.323  0.00  0.00    +0.021 C 
ATOM     15  C   UNL     1      34.481 -12.918 -25.220  0.00  0.00    +0.003 C 
ATOM     16  C   UNL     1      33.367 -13.448 -23.186  0.00  0.00    +0.099 C 
ATOM     17  C   UNL     1      34.256 -11.571 -24.955  0.00  0.00    +0.021 C 
ATOM     18  C   UNL     1      33.584 -11.242 -23.790  0.00  0.00    +0.099 C 
ENDBRANCH  10  14
ENDBRANCH   2   6
BRANCH   2  21
ATOM     19  F   UNL     1      37.578 -20.135 -20.193  0.00  0.00    -0.203 F 
ATOM     20  F   UNL     1      33.079 -19.763 -21.660  0.00  0.00    -0.204 F 
ATOM     21  C   UNL     1      35.339 -19.923 -20.943  0.00  0.00    +0.095 C 
ATOM     22  C   UNL     1      35.963 -21.683 -19.411  0.00  0.00    +0.092 C 
ATOM     23  C   UNL     1      36.310 -20.574 -20.182  0.00  0.00    +0.160 C 
ATOM     24  C   UNL     1      34.022 -20.380 -20.933  0.00  0.00    +0.145 C 
ATOM     25  C   UNL     1      34.645 -22.140 -19.400  0.00  0.00    +0.020 C 
ATOM     26  C   UNL     1      33.674 -21.489 -20.161  0.00  0.00    +0.031 C 
BRANCH  22  27
ATOM     27  N   UNL     1      36.955 -22.353 -18.632  0.00  0.00    -0.217 N 
ATOM     28  H   UNL     1      37.470 -23.104 -19.007  0.00  0.00    +0.173 HD
BRANCH  27  29
ATOM     29  S   UNL     1      37.225 -21.811 -17.020  0.00  0.00    +0.054 S 
ATOM     30  O   UNL     1      37.921 -20.538 -17.075  0.00  0.00    -0.154 OA
ATOM     31  O   UNL     1      36.029 -21.963 -16.215  0.00  0.00    -0.154 OA
BRANCH  29  32
ATOM     32  C   UNL     1      38.408 -23.023 -16.476  0.00  0.00    +0.172 C 
ATOM     33  C   UNL     1      37.869 -23.847 -15.328  0.00  0.00    +0.029 C 
ENDBRANCH  29  32
ENDBRANCH  27  29
ENDBRANCH  22  27
ENDBRANCH   2  21
TORSDOF 6
ENDMDL
