MODEL 1
REMARK VINA RESULT:     -12.4      0.000      0.000
REMARK  Name = 10156987
REMARK  5 active torsions:
REMARK  status: ('A' for Active; 'I' for Inactive)
REMARK    1  A    between atoms: C_2  and  C_23
REMARK    2  A    between atoms: C_9  and  C_13
REMARK    3  A    between atoms: C_23  and  N_24
REMARK    4  A    between atoms: C_25  and  C_31
REMARK    5  A    between atoms: C_31  and  N_32
REMARK                            x       y       z     vdW  Elec       q    Type
REMARK                         _______ _______ _______ _____ _____    ______ ____
ROOT
ATOM      1  N   UNL     1      36.510 -20.657 -19.866  0.00  0.00    -0.312 N 
ATOM      2  C   UNL     1      35.591 -18.634 -23.327  0.00  0.00    -0.043 C 
ATOM      3  C   UNL     1      34.671 -19.442 -22.658  0.00  0.00    -0.005 C 
ATOM      4  C   UNL     1      36.885 -18.466 -22.852  0.00  0.00    -0.005 C 
ATOM      5  C   UNL     1      35.072 -20.099 -21.477  0.00  0.00    +0.014 C 
ATOM      6  C   UNL     1      36.378 -19.916 -21.019  0.00  0.00    +0.048 C 
ATOM      7  C   UNL     1      37.306 -19.107 -21.684  0.00  0.00    +0.014 C 
ATOM      8  C   UNL     1      34.426 -20.974 -20.560  0.00  0.00    +0.016 C 
ATOM      9  C   UNL     1      35.335 -21.300 -19.581  0.00  0.00    +0.053 C 
ATOM     10  H   UNL     1      37.330 -20.717 -19.324  0.00  0.00    +0.152 HD
ENDROOT
BRANCH   9  13
ATOM     11  O   UNL     1      33.020 -22.776 -18.789  0.00  0.00    -0.270 OA
ATOM     12  N   UNL     1      34.056 -23.658 -16.944  0.00  0.00    -0.280 N 
ATOM     13  C   UNL     1      35.281 -22.123 -18.413  0.00  0.00    +0.067 C 
ATOM     14  C   UNL     1      36.363 -22.227 -17.622  0.00  0.00    +0.007 C 
ATOM     15  C   UNL     1      34.022 -22.872 -18.081  0.00  0.00    +0.251 C 
ATOM     16  C   UNL     1      36.345 -23.067 -16.426  0.00  0.00    +0.014 C 
ATOM     17  C   UNL     1      35.180 -23.773 -16.111  0.00  0.00    +0.051 C 
ATOM     18  C   UNL     1      37.463 -23.181 -15.594  0.00  0.00    +0.001 C 
ATOM     19  C   UNL     1      35.125 -24.588 -14.977  0.00  0.00    +0.015 C 
ATOM     20  C   UNL     1      37.410 -23.996 -14.460  0.00  0.00    +0.000 C 
ATOM     21  C   UNL     1      36.244 -24.696 -14.153  0.00  0.00    +0.001 C 
ATOM     22  H   UNL     1      33.246 -24.164 -16.705  0.00  0.00    +0.155 HD
ENDBRANCH   9  13
BRANCH   2  23
ATOM     23  C   UNL     1      35.170 -17.933 -24.585  0.00  0.00    -0.050 C 
BRANCH  23  24
ATOM     24  N   UNL     1      34.570 -16.628 -24.310  0.00  0.00    +0.390 N 
ATOM     25  C   UNL     1      34.516 -13.696 -24.237  0.00  0.00    -0.026 C 
ATOM     26  C   UNL     1      34.723 -14.547 -22.979  0.00  0.00    -0.025 C 
ATOM     27  C   UNL     1      33.754 -14.507 -25.290  0.00  0.00    -0.025 C 
ATOM     28  C   UNL     1      35.366 -15.893 -23.317  0.00  0.00    -0.077 C 
ATOM     29  C   UNL     1      34.429 -15.855 -25.552  0.00  0.00    -0.077 C 
ATOM     30  H   UNL     1      33.638 -16.771 -23.922  0.00  0.00    -0.079 HD
BRANCH  25  31
ATOM     31  C   UNL     1      33.784 -12.398 -23.908  0.00  0.00    -0.086 C 
BRANCH  31  32
ATOM     32  N   UNL     1      34.518 -11.247 -24.408  0.00  0.00    +0.380 N 
ATOM     33  H   UNL     1      35.478 -11.521 -24.618  0.00  0.00    -0.089 HD
ATOM     34  H   UNL     1      34.522 -10.512 -23.700  0.00  0.00    -0.089 HD
ATOM     35  H   UNL     1      34.070 -10.899 -25.257  0.00  0.00    -0.089 HD
ENDBRANCH  31  32
ENDBRANCH  25  31
ENDBRANCH  23  24
ENDBRANCH   2  23
TORSDOF 5
ENDMDL
MODEL 2
REMARK VINA RESULT:     -12.3      2.146      2.992
REMARK  Name = 10156987
REMARK  5 active torsions:
REMARK  status: ('A' for Active; 'I' for Inactive)
REMARK    1  A    between atoms: C_2  and  C_23
REMARK    2  A    between atoms: C_9  and  C_13
REMARK    3  A    between atoms: C_23  and  N_24
REMARK    4  A    between atoms: C_25  and  C_31
REMARK    5  A    between atoms: C_31  and  N_32
REMARK                            x       y       z     vdW  Elec       q    Type
REMARK                         _______ _______ _______ _____ _____    ______ ____
ROOT
ATOM      1  N   UNL     1      35.338 -21.721 -18.751  0.00  0.00    -0.312 N 
ATOM      2  C   UNL     1      35.700 -19.577 -22.242  0.00  0.00    -0.043 C 
ATOM      3  C   UNL     1      34.487 -20.112 -21.807  0.00  0.00    -0.005 C 
ATOM      4  C   UNL     1      36.868 -19.741 -21.508  0.00  0.00    -0.005 C 
ATOM      5  C   UNL     1      34.455 -20.833 -20.597  0.00  0.00    +0.014 C 
ATOM      6  C   UNL     1      35.641 -20.987 -19.876  0.00  0.00    +0.048 C 
ATOM      7  C   UNL     1      36.861 -20.453 -20.305  0.00  0.00    +0.014 C 
ATOM      8  C   UNL     1      33.433 -21.500 -19.866  0.00  0.00    +0.016 C 
ATOM      9  C   UNL     1      34.006 -22.035 -18.736  0.00  0.00    +0.053 C 
ATOM     10  H   UNL     1      35.987 -21.982 -18.057  0.00  0.00    +0.152 HD
ENDROOT
BRANCH   9  13
ATOM     11  O   UNL     1      35.676 -23.445 -16.895  0.00  0.00    -0.270 OA
ATOM     12  N   UNL     1      33.896 -24.208 -15.667  0.00  0.00    -0.280 N 
ATOM     13  C   UNL     1      33.505 -22.801 -17.638  0.00  0.00    +0.067 C 
ATOM     14  C   UNL     1      32.178 -22.884 -17.435  0.00  0.00    +0.007 C 
ATOM     15  C   UNL     1      34.459 -23.501 -16.713  0.00  0.00    +0.251 C 
ATOM     16  C   UNL     1      31.632 -23.650 -16.317  0.00  0.00    +0.014 C 
ATOM     17  C   UNL     1      32.513 -24.300 -15.447  0.00  0.00    +0.051 C 
ATOM     18  C   UNL     1      30.255 -23.745 -16.097  0.00  0.00    +0.001 C 
ATOM     19  C   UNL     1      32.029 -25.040 -14.365  0.00  0.00    +0.015 C 
ATOM     20  C   UNL     1      29.769 -24.484 -15.016  0.00  0.00    +0.000 C 
ATOM     21  C   UNL     1      30.654 -25.130 -14.153  0.00  0.00    +0.001 C 
ATOM     22  H   UNL     1      34.499 -24.672 -15.042  0.00  0.00    +0.155 HD
ENDBRANCH   9  13
BRANCH   2  23
ATOM     23  C   UNL     1      35.741 -18.809 -23.531  0.00  0.00    -0.050 C 
BRANCH  23  24
ATOM     24  N   UNL     1      35.053 -17.522 -23.423  0.00  0.00    +0.390 N 
ATOM     25  C   UNL     1      34.873 -14.596 -23.504  0.00  0.00    -0.026 C 
ATOM     26  C   UNL     1      34.900 -15.383 -22.189  0.00  0.00    -0.025 C 
ATOM     27  C   UNL     1      34.330 -15.485 -24.627  0.00  0.00    -0.025 C 
ATOM     28  C   UNL     1      35.643 -16.710 -22.350  0.00  0.00    -0.077 C 
ATOM     29  C   UNL     1      35.091 -16.810 -24.708  0.00  0.00    -0.077 C 
ATOM     30  H   UNL     1      34.075 -17.693 -23.188  0.00  0.00    -0.079 HD
BRANCH  25  31
ATOM     31  C   UNL     1      34.046 -13.321 -23.365  0.00  0.00    -0.086 C 
BRANCH  31  32
ATOM     32  N   UNL     1      34.518 -12.293 -24.279  0.00  0.00    +0.380 N 
ATOM     33  H   UNL     1      35.517 -12.145 -24.136  0.00  0.00    -0.089 HD
ATOM     34  H   UNL     1      34.016 -11.423 -24.101  0.00  0.00    -0.089 HD
ATOM     35  H   UNL     1      34.352 -12.591 -25.241  0.00  0.00    -0.089 HD
ENDBRANCH  31  32
ENDBRANCH  25  31
ENDBRANCH  23  24
ENDBRANCH   2  23
TORSDOF 5
ENDMDL
MODEL 3
REMARK VINA RESULT:     -12.1      1.502      2.634
REMARK  Name = 10156987
REMARK  5 active torsions:
REMARK  status: ('A' for Active; 'I' for Inactive)
REMARK    1  A    between atoms: C_2  and  C_23
REMARK    2  A    between atoms: C_9  and  C_13
REMARK    3  A    between atoms: C_23  and  N_24
REMARK    4  A    between atoms: C_25  and  C_31
REMARK    5  A    between atoms: C_31  and  N_32
REMARK                            x       y       z     vdW  Elec       q    Type
REMARK                         _______ _______ _______ _____ _____    ______ ____
ROOT
ATOM      1  N   UNL     1      34.780 -22.317 -18.156  0.00  0.00    -0.312 N 
ATOM      2  C   UNL     1      35.544 -20.047 -21.499  0.00  0.00    -0.043 C 
ATOM      3  C   UNL     1      36.537 -20.403 -20.586  0.00  0.00    -0.005 C 
ATOM      4  C   UNL     1      34.225 -20.448 -21.327  0.00  0.00    -0.005 C 
ATOM      5  C   UNL     1      36.185 -21.184 -19.466  0.00  0.00    +0.014 C 
ATOM      6  C   UNL     1      34.853 -21.574 -19.313  0.00  0.00    +0.048 C 
ATOM      7  C   UNL     1      33.852 -21.222 -20.225  0.00  0.00    +0.014 C 
ATOM      8  C   UNL     1      36.906 -21.718 -18.363  0.00  0.00    +0.016 C 
ATOM      9  C   UNL     1      36.016 -22.409 -17.575  0.00  0.00    +0.053 C 
ATOM     10  H   UNL     1      33.957 -22.723 -17.798  0.00  0.00    +0.152 HD
ENDROOT
BRANCH   9  13
ATOM     11  O   UNL     1      33.837 -22.880 -15.787  0.00  0.00    -0.270 OA
ATOM     12  N   UNL     1      35.127 -24.090 -14.329  0.00  0.00    -0.280 N 
ATOM     13  C   UNL     1      36.136 -23.147 -16.356  0.00  0.00    +0.067 C 
ATOM     14  C   UNL     1      37.328 -23.657 -16.002  0.00  0.00    +0.007 C 
ATOM     15  C   UNL     1      34.932 -23.353 -15.482  0.00  0.00    +0.251 C 
ATOM     16  C   UNL     1      37.484 -24.424 -14.768  0.00  0.00    +0.014 C 
ATOM     17  C   UNL     1      36.368 -24.628 -13.951  0.00  0.00    +0.051 C 
ATOM     18  C   UNL     1      38.719 -24.958 -14.389  0.00  0.00    +0.001 C 
ATOM     19  C   UNL     1      36.477 -25.357 -12.764  0.00  0.00    +0.015 C 
ATOM     20  C   UNL     1      38.830 -25.689 -13.203  0.00  0.00    +0.000 C 
ATOM     21  C   UNL     1      37.713 -25.887 -12.393  0.00  0.00    +0.001 C 
ATOM     22  H   UNL     1      34.354 -24.246 -13.740  0.00  0.00    +0.155 HD
ENDBRANCH   9  13
BRANCH   2  23
ATOM     23  C   UNL     1      35.913 -19.214 -22.692  0.00  0.00    -0.050 C 
BRANCH  23  24
ATOM     24  N   UNL     1      35.204 -17.935 -22.707  0.00  0.00    +0.390 N 
ATOM     25  C   UNL     1      35.011 -15.011 -22.834  0.00  0.00    -0.026 C 
ATOM     26  C   UNL     1      34.829 -15.792 -21.528  0.00  0.00    -0.025 C 
ATOM     27  C   UNL     1      34.669 -15.911 -24.026  0.00  0.00    -0.025 C 
ATOM     28  C   UNL     1      35.602 -17.112 -21.557  0.00  0.00    -0.077 C 
ATOM     29  C   UNL     1      35.446 -17.228 -23.973  0.00  0.00    -0.077 C 
ATOM     30  H   UNL     1      34.203 -18.115 -22.634  0.00  0.00    -0.079 HD
BRANCH  25  31
ATOM     31  C   UNL     1      34.160 -13.745 -22.841  0.00  0.00    -0.086 C 
BRANCH  31  32
ATOM     32  N   UNL     1      34.633 -12.806 -23.846  0.00  0.00    +0.380 N 
ATOM     33  H   UNL     1      34.042 -11.975 -23.840  0.00  0.00    -0.089 HD
ATOM     34  H   UNL     1      34.591 -13.245 -24.767  0.00  0.00    -0.089 HD
ATOM     35  H   UNL     1      35.596 -12.541 -23.639  0.00  0.00    -0.089 HD
ENDBRANCH  31  32
ENDBRANCH  25  31
ENDBRANCH  23  24
ENDBRANCH   2  23
TORSDOF 5
ENDMDL
MODEL 4
REMARK VINA RESULT:     -12.0      3.600     11.462
REMARK  Name = 10156987
REMARK  5 active torsions:
REMARK  status: ('A' for Active; 'I' for Inactive)
REMARK    1  A    between atoms: C_2  and  C_23
REMARK    2  A    between atoms: C_9  and  C_13
REMARK    3  A    between atoms: C_23  and  N_24
REMARK    4  A    between atoms: C_25  and  C_31
REMARK    5  A    between atoms: C_31  and  N_32
REMARK                            x       y       z     vdW  Elec       q    Type
REMARK                         _______ _______ _______ _____ _____    ______ ____
ROOT
ATOM      1  N   UNL     1      33.417 -12.993 -24.855  0.00  0.00    -0.312 N 
ATOM      2  C   UNL     1      34.937 -16.810 -24.662  0.00  0.00    -0.043 C 
ATOM      3  C   UNL     1      35.082 -15.887 -23.626  0.00  0.00    -0.005 C 
ATOM      4  C   UNL     1      34.260 -16.486 -25.831  0.00  0.00    -0.005 C 
ATOM      5  C   UNL     1      34.528 -14.600 -23.778  0.00  0.00    +0.014 C 
ATOM      6  C   UNL     1      33.853 -14.295 -24.962  0.00  0.00    +0.048 C 
ATOM      7  C   UNL     1      33.704 -15.216 -26.004  0.00  0.00    +0.014 C 
ATOM      8  C   UNL     1      34.481 -13.437 -22.959  0.00  0.00    +0.016 C 
ATOM      9  C   UNL     1      33.792 -12.467 -23.649  0.00  0.00    +0.053 C 
ATOM     10  H   UNL     1      32.909 -12.511 -25.547  0.00  0.00    +0.152 HD
ENDROOT
BRANCH   9  13
ATOM     11  O   UNL     1      31.530 -11.746 -22.059  0.00  0.00    -0.270 OA
ATOM     12  N   UNL     1      31.945  -9.500 -22.256  0.00  0.00    -0.280 N 
ATOM     13  C   UNL     1      33.426 -11.115 -23.358  0.00  0.00    +0.067 C 
ATOM     14  C   UNL     1      34.165 -10.105 -23.848  0.00  0.00    +0.007 C 
ATOM     15  C   UNL     1      32.224 -10.831 -22.503  0.00  0.00    +0.251 C 
ATOM     16  C   UNL     1      33.825  -8.713 -23.563  0.00  0.00    +0.014 C 
ATOM     17  C   UNL     1      32.712  -8.438 -22.762  0.00  0.00    +0.051 C 
ATOM     18  C   UNL     1      34.585  -7.655 -24.068  0.00  0.00    +0.001 C 
ATOM     19  C   UNL     1      32.356  -7.120 -22.466  0.00  0.00    +0.015 C 
ATOM     20  C   UNL     1      34.231  -6.336 -23.772  0.00  0.00    +0.000 C 
ATOM     21  C   UNL     1      33.119  -6.070 -22.974  0.00  0.00    +0.001 C 
ATOM     22  H   UNL     1      31.166  -9.285 -21.693  0.00  0.00    +0.155 HD
ENDBRANCH   9  13
BRANCH   2  23
ATOM     23  C   UNL     1      35.525 -18.182 -24.506  0.00  0.00    -0.050 C 
BRANCH  23  24
ATOM     24  N   UNL     1      35.715 -18.540 -23.101  0.00  0.00    +0.390 N 
ATOM     25  C   UNL     1      36.553 -20.288 -20.900  0.00  0.00    -0.026 C 
ATOM     26  C   UNL     1      35.082 -20.097 -21.285  0.00  0.00    -0.025 C 
ATOM     27  C   UNL     1      37.363 -19.062 -21.330  0.00  0.00    -0.025 C 
ATOM     28  C   UNL     1      34.935 -19.740 -22.765  0.00  0.00    -0.077 C 
ATOM     29  C   UNL     1      37.142 -18.738 -22.810  0.00  0.00    -0.077 C 
ATOM     30  H   UNL     1      35.379 -17.773 -22.519  0.00  0.00    -0.079 HD
BRANCH  25  31
ATOM     31  C   UNL     1      36.700 -20.546 -19.403  0.00  0.00    -0.086 C 
BRANCH  31  32
ATOM     32  N   UNL     1      36.076 -21.805 -19.029  0.00  0.00    +0.380 N 
ATOM     33  H   UNL     1      35.327 -22.022 -19.686  0.00  0.00    -0.089 HD
ATOM     34  H   UNL     1      35.690 -21.727 -18.088  0.00  0.00    -0.089 HD
ATOM     35  H   UNL     1      36.773 -22.550 -19.050  0.00  0.00    -0.089 HD
ENDBRANCH  31  32
ENDBRANCH  25  31
ENDBRANCH  23  24
ENDBRANCH   2  23
TORSDOF 5
ENDMDL
MODEL 5
REMARK VINA RESULT:     -11.8      3.400     11.315
REMARK  Name = 10156987
REMARK  5 active torsions:
REMARK  status: ('A' for Active; 'I' for Inactive)
REMARK    1  A    between atoms: C_2  and  C_23
REMARK    2  A    between atoms: C_9  and  C_13
REMARK    3  A    between atoms: C_23  and  N_24
REMARK    4  A    between atoms: C_25  and  C_31
REMARK    5  A    between atoms: C_31  and  N_32
REMARK                            x       y       z     vdW  Elec       q    Type
REMARK                         _______ _______ _______ _____ _____    ______ ____
ROOT
ATOM      1  N   UNL     1      33.689 -13.491 -24.567  0.00  0.00    -0.312 N 
ATOM      2  C   UNL     1      35.401 -17.177 -23.933  0.00  0.00    -0.043 C 
ATOM      3  C   UNL     1      35.390 -16.173 -22.964  0.00  0.00    -0.005 C 
ATOM      4  C   UNL     1      34.824 -16.983 -25.182  0.00  0.00    -0.005 C 
ATOM      5  C   UNL     1      34.780 -14.939 -23.267  0.00  0.00    +0.014 C 
ATOM      6  C   UNL     1      34.208 -14.766 -24.529  0.00  0.00    +0.048 C 
ATOM      7  C   UNL     1      34.215 -15.768 -25.506  0.00  0.00    +0.014 C 
ATOM      8  C   UNL     1      34.587 -13.725 -22.551  0.00  0.00    +0.016 C 
ATOM      9  C   UNL     1      33.913 -12.855 -23.376  0.00  0.00    +0.053 C 
ATOM     10  H   UNL     1      33.224 -13.095 -25.339  0.00  0.00    +0.152 HD
ENDROOT
BRANCH   9  13
ATOM     11  O   UNL     1      31.467 -12.169 -22.068  0.00  0.00    -0.270 OA
ATOM     12  N   UNL     1      31.770  -9.921 -22.400  0.00  0.00    -0.280 N 
ATOM     13  C   UNL     1      33.443 -11.513 -23.228  0.00  0.00    +0.067 C 
ATOM     14  C   UNL     1      34.168 -10.495 -23.723  0.00  0.00    +0.007 C 
ATOM     15  C   UNL     1      32.148 -11.246 -22.515  0.00  0.00    +0.251 C 
ATOM     16  C   UNL     1      33.721  -9.111 -23.582  0.00  0.00    +0.014 C 
ATOM     17  C   UNL     1      32.520  -8.851 -22.914  0.00  0.00    +0.051 C 
ATOM     18  C   UNL     1      34.466  -8.045 -24.094  0.00  0.00    +0.001 C 
ATOM     19  C   UNL     1      32.061  -7.541 -22.757  0.00  0.00    +0.015 C 
ATOM     20  C   UNL     1      34.009  -6.734 -23.937  0.00  0.00    +0.000 C 
ATOM     21  C   UNL     1      32.810  -6.483 -23.271  0.00  0.00    +0.001 C 
ATOM     22  H   UNL     1      30.928  -9.717 -21.933  0.00  0.00    +0.155 HD
ENDBRANCH   9  13
BRANCH   2  23
ATOM     23  C   UNL     1      36.050 -18.493 -23.616  0.00  0.00    -0.050 C 
BRANCH  23  24
ATOM     24  N   UNL     1      35.580 -19.043 -22.344  0.00  0.00    +0.390 N 
ATOM     25  C   UNL     1      34.821 -21.198 -20.507  0.00  0.00    -0.026 C 
ATOM     26  C   UNL     1      33.785 -20.308 -21.203  0.00  0.00    -0.025 C 
ATOM     27  C   UNL     1      36.152 -20.449 -20.391  0.00  0.00    -0.025 C 
ATOM     28  C   UNL     1      34.318 -19.772 -22.533  0.00  0.00    -0.077 C 
ATOM     29  C   UNL     1      36.607 -19.908 -21.748  0.00  0.00    -0.077 C 
ATOM     30  H   UNL     1      35.404 -18.272 -21.699  0.00  0.00    -0.079 HD
BRANCH  25  31
ATOM     31  C   UNL     1      34.323 -21.649 -19.136  0.00  0.00    -0.086 C 
BRANCH  31  32
ATOM     32  N   UNL     1      33.117 -22.452 -19.259  0.00  0.00    +0.380 N 
ATOM     33  H   UNL     1      33.216 -23.095 -20.045  0.00  0.00    -0.089 HD
ATOM     34  H   UNL     1      32.316 -21.840 -19.419  0.00  0.00    -0.089 HD
ATOM     35  H   UNL     1      32.972 -22.984 -18.401  0.00  0.00    -0.089 HD
ENDBRANCH  31  32
ENDBRANCH  25  31
ENDBRANCH  23  24
ENDBRANCH   2  23
TORSDOF 5
ENDMDL
MODEL 6
REMARK VINA RESULT:     -11.7      1.316      1.891
REMARK  Name = 10156987
REMARK  5 active torsions:
REMARK  status: ('A' for Active; 'I' for Inactive)
REMARK    1  A    between atoms: C_2  and  C_23
REMARK    2  A    between atoms: C_9  and  C_13
REMARK    3  A    between atoms: C_23  and  N_24
REMARK    4  A    between atoms: C_25  and  C_31
REMARK    5  A    between atoms: C_31  and  N_32
REMARK                            x       y       z     vdW  Elec       q    Type
REMARK                         _______ _______ _______ _____ _____    ______ ____
ROOT
ATOM      1  N   UNL     1      36.585 -20.702 -19.491  0.00  0.00    -0.312 N 
ATOM      2  C   UNL     1      35.833 -18.876 -23.099  0.00  0.00    -0.043 C 
ATOM      3  C   UNL     1      34.902 -19.695 -22.459  0.00  0.00    -0.005 C 
ATOM      4  C   UNL     1      37.082 -18.629 -22.543  0.00  0.00    -0.005 C 
ATOM      5  C   UNL     1      35.244 -20.280 -21.223  0.00  0.00    +0.014 C 
ATOM      6  C   UNL     1      36.506 -20.019 -20.684  0.00  0.00    +0.048 C 
ATOM      7  C   UNL     1      37.444 -19.199 -21.320  0.00  0.00    +0.014 C 
ATOM      8  C   UNL     1      34.572 -21.142 -20.313  0.00  0.00    +0.016 C 
ATOM      9  C   UNL     1      35.421 -21.383 -19.259  0.00  0.00    +0.053 C 
ATOM     10  H   UNL     1      37.366 -20.700 -18.891  0.00  0.00    +0.152 HD
ENDROOT
BRANCH   9  13
ATOM     11  O   UNL     1      37.660 -22.086 -17.630  0.00  0.00    -0.270 OA
ATOM     12  N   UNL     1      36.365 -23.207 -16.107  0.00  0.00    -0.280 N 
ATOM     13  C   UNL     1      35.317 -22.156 -18.060  0.00  0.00    +0.067 C 
ATOM     14  C   UNL     1      34.114 -22.593 -17.651  0.00  0.00    +0.007 C 
ATOM     15  C   UNL     1      36.550 -22.469 -17.261  0.00  0.00    +0.251 C 
ATOM     16  C   UNL     1      33.971 -23.377 -16.426  0.00  0.00    +0.014 C 
ATOM     17  C   UNL     1      35.112 -23.668 -15.671  0.00  0.00    +0.051 C 
ATOM     18  C   UNL     1      32.725 -23.838 -15.992  0.00  0.00    +0.001 C 
ATOM     19  C   UNL     1      35.015 -24.413 -14.493  0.00  0.00    +0.015 C 
ATOM     20  C   UNL     1      32.627 -24.582 -14.814  0.00  0.00    +0.000 C 
ATOM     21  C   UNL     1      33.769 -24.869 -14.067  0.00  0.00    +0.001 C 
ATOM     22  H   UNL     1      37.155 -23.422 -15.561  0.00  0.00    +0.155 HD
ENDBRANCH   9  13
BRANCH   2  23
ATOM     23  C   UNL     1      35.474 -18.251 -24.415  0.00  0.00    -0.050 C 
BRANCH  23  24
ATOM     24  N   UNL     1      34.776 -16.977 -24.245  0.00  0.00    +0.390 N 
ATOM     25  C   UNL     1      34.548 -14.054 -24.276  0.00  0.00    -0.026 C 
ATOM     26  C   UNL     1      34.677 -14.855 -22.976  0.00  0.00    -0.025 C 
ATOM     27  C   UNL     1      33.941 -14.938 -25.370  0.00  0.00    -0.025 C 
ATOM     28  C   UNL     1      35.427 -16.168 -23.204  0.00  0.00    -0.077 C 
ATOM     29  C   UNL     1      34.715 -16.250 -25.520  0.00  0.00    -0.077 C 
ATOM     30  H   UNL     1      33.820 -17.166 -23.944  0.00  0.00    -0.079 HD
BRANCH  25  31
ATOM     31  C   UNL     1      33.713 -12.794 -24.064  0.00  0.00    -0.086 C 
BRANCH  31  32
ATOM     32  N   UNL     1      34.501 -11.599 -24.324  0.00  0.00    +0.380 N 
ATOM     33  H   UNL     1      33.896 -10.779 -24.289  0.00  0.00    -0.089 HD
ATOM     34  H   UNL     1      34.927 -11.667 -25.248  0.00  0.00    -0.089 HD
ATOM     35  H   UNL     1      35.232 -11.513 -23.618  0.00  0.00    -0.089 HD
ENDBRANCH  31  32
ENDBRANCH  25  31
ENDBRANCH  23  24
ENDBRANCH   2  23
TORSDOF 5
ENDMDL
MODEL 7
REMARK VINA RESULT:     -11.5      1.396      2.173
REMARK  Name = 10156987
REMARK  5 active torsions:
REMARK  status: ('A' for Active; 'I' for Inactive)
REMARK    1  A    between atoms: C_2  and  C_23
REMARK    2  A    between atoms: C_9  and  C_13
REMARK    3  A    between atoms: C_23  and  N_24
REMARK    4  A    between atoms: C_25  and  C_31
REMARK    5  A    between atoms: C_31  and  N_32
REMARK                            x       y       z     vdW  Elec       q    Type
REMARK                         _______ _______ _______ _____ _____    ______ ____
ROOT
ATOM      1  N   UNL     1      34.079 -21.797 -18.704  0.00  0.00    -0.312 N 
ATOM      2  C   UNL     1      35.247 -19.870 -22.145  0.00  0.00    -0.043 C 
ATOM      3  C   UNL     1      36.158 -20.403 -21.232  0.00  0.00    -0.005 C 
ATOM      4  C   UNL     1      33.876 -19.964 -21.939  0.00  0.00    -0.005 C 
ATOM      5  C   UNL     1      35.668 -21.048 -20.079  0.00  0.00    +0.014 C 
ATOM      6  C   UNL     1      34.287 -21.129 -19.891  0.00  0.00    +0.048 C 
ATOM      7  C   UNL     1      33.368 -20.597 -20.802  0.00  0.00    +0.014 C 
ATOM      8  C   UNL     1      36.279 -21.688 -18.965  0.00  0.00    +0.016 C 
ATOM      9  C   UNL     1      35.277 -22.138 -18.138  0.00  0.00    +0.053 C 
ATOM     10  H   UNL     1      33.195 -21.999 -18.319  0.00  0.00    +0.152 HD
ENDROOT
BRANCH   9  13
ATOM     11  O   UNL     1      33.142 -23.849 -17.314  0.00  0.00    -0.270 OA
ATOM     12  N   UNL     1      34.164 -24.384 -15.333  0.00  0.00    -0.280 N 
ATOM     13  C   UNL     1      35.260 -22.841 -16.893  0.00  0.00    +0.067 C 
ATOM     14  C   UNL     1      36.290 -22.708 -16.040  0.00  0.00    +0.007 C 
ATOM     15  C   UNL     1      34.098 -23.728 -16.548  0.00  0.00    +0.251 C 
ATOM     16  C   UNL     1      36.309 -23.419 -14.763  0.00  0.00    +0.014 C 
ATOM     17  C   UNL     1      35.235 -24.252 -14.435  0.00  0.00    +0.051 C 
ATOM     18  C   UNL     1      37.374 -23.288 -13.867  0.00  0.00    +0.001 C 
ATOM     19  C   UNL     1      35.219 -24.950 -13.225  0.00  0.00    +0.015 C 
ATOM     20  C   UNL     1      37.359 -23.985 -12.657  0.00  0.00    +0.000 C 
ATOM     21  C   UNL     1      36.284 -24.814 -12.337  0.00  0.00    +0.001 C 
ATOM     22  H   UNL     1      33.418 -24.977 -15.084  0.00  0.00    +0.155 HD
ENDBRANCH   9  13
BRANCH   2  23
ATOM     23  C   UNL     1      35.762 -19.181 -23.375  0.00  0.00    -0.050 C 
BRANCH  23  24
ATOM     24  N   UNL     1      35.022 -17.953 -23.666  0.00  0.00    +0.390 N 
ATOM     25  C   UNL     1      34.703 -15.237 -24.725  0.00  0.00    -0.026 C 
ATOM     26  C   UNL     1      34.837 -15.525 -23.226  0.00  0.00    -0.025 C 
ATOM     27  C   UNL     1      34.141 -16.470 -25.440  0.00  0.00    -0.025 C 
ATOM     28  C   UNL     1      35.632 -16.809 -22.974  0.00  0.00    -0.077 C 
ATOM     29  C   UNL     1      34.958 -17.723 -25.116  0.00  0.00    -0.077 C 
ATOM     30  H   UNL     1      34.068 -18.057 -23.322  0.00  0.00    -0.079 HD
BRANCH  25  31
ATOM     31  C   UNL     1      33.827 -14.012 -24.972  0.00  0.00    -0.086 C 
BRANCH  31  32
ATOM     32  N   UNL     1      33.059 -14.163 -26.199  0.00  0.00    +0.380 N 
ATOM     33  H   UNL     1      33.509 -14.854 -26.798  0.00  0.00    -0.089 HD
ATOM     34  H   UNL     1      33.018 -13.267 -26.686  0.00  0.00    -0.089 HD
ATOM     35  H   UNL     1      32.113 -14.471 -25.973  0.00  0.00    -0.089 HD
ENDBRANCH  31  32
ENDBRANCH  25  31
ENDBRANCH  23  24
ENDBRANCH   2  23
TORSDOF 5
ENDMDL
MODEL 8
REMARK VINA RESULT:     -11.2      5.671      9.931
REMARK  Name = 10156987
REMARK  5 active torsions:
REMARK  status: ('A' for Active; 'I' for Inactive)
REMARK    1  A    between atoms: C_2  and  C_23
REMARK    2  A    between atoms: C_9  and  C_13
REMARK    3  A    between atoms: C_23  and  N_24
REMARK    4  A    between atoms: C_25  and  C_31
REMARK    5  A    between atoms: C_31  and  N_32
REMARK                            x       y       z     vdW  Elec       q    Type
REMARK                         _______ _______ _______ _____ _____    ______ ____
ROOT
ATOM      1  N   UNL     1      32.875 -12.767 -22.711  0.00  0.00    -0.312 N 
ATOM      2  C   UNL     1      32.496  -8.679 -22.963  0.00  0.00    -0.043 C 
ATOM      3  C   UNL     1      33.343  -9.411 -23.795  0.00  0.00    -0.005 C 
ATOM      4  C   UNL     1      31.723  -9.301 -21.990  0.00  0.00    -0.005 C 
ATOM      5  C   UNL     1      33.410 -10.810 -23.639  0.00  0.00    +0.014 C 
ATOM      6  C   UNL     1      32.625 -11.413 -22.654  0.00  0.00    +0.048 C 
ATOM      7  C   UNL     1      31.773 -10.686 -21.816  0.00  0.00    +0.014 C 
ATOM      8  C   UNL     1      34.138 -11.847 -24.286  0.00  0.00    +0.016 C 
ATOM      9  C   UNL     1      33.788 -13.038 -23.694  0.00  0.00    +0.053 C 
ATOM     10  H   UNL     1      32.457 -13.442 -22.128  0.00  0.00    +0.152 HD
ENDROOT
BRANCH   9  13
ATOM     11  O   UNL     1      33.433 -14.427 -26.165  0.00  0.00    -0.270 OA
ATOM     12  N   UNL     1      34.372 -16.358 -25.363  0.00  0.00    -0.280 N 
ATOM     13  C   UNL     1      34.175 -14.399 -23.901  0.00  0.00    +0.067 C 
ATOM     14  C   UNL     1      34.737 -15.091 -22.895  0.00  0.00    +0.007 C 
ATOM     15  C   UNL     1      33.958 -15.045 -25.239  0.00  0.00    +0.251 C 
ATOM     16  C   UNL     1      35.151 -16.481 -23.075  0.00  0.00    +0.014 C 
ATOM     17  C   UNL     1      34.960 -17.090 -24.319  0.00  0.00    +0.051 C 
ATOM     18  C   UNL     1      35.735 -17.211 -22.036  0.00  0.00    +0.001 C 
ATOM     19  C   UNL     1      35.346 -18.416 -24.530  0.00  0.00    +0.015 C 
ATOM     20  C   UNL     1      36.122 -18.537 -22.245  0.00  0.00    +0.000 C 
ATOM     21  C   UNL     1      35.927 -19.138 -23.489  0.00  0.00    +0.001 C 
ATOM     22  H   UNL     1      34.247 -16.804 -26.232  0.00  0.00    +0.155 HD
ENDBRANCH   9  13
BRANCH   2  23
ATOM     23  C   UNL     1      32.421  -7.189 -23.123  0.00  0.00    -0.050 C 
BRANCH  23  24
ATOM     24  N   UNL     1      33.129  -6.731 -24.319  0.00  0.00    +0.390 N 
ATOM     25  C   UNL     1      34.549  -4.766 -25.970  0.00  0.00    -0.026 C 
ATOM     26  C   UNL     1      33.097  -5.174 -26.243  0.00  0.00    -0.025 C 
ATOM     27  C   UNL     1      35.272  -5.896 -25.229  0.00  0.00    -0.025 C 
ATOM     28  C   UNL     1      32.397  -5.630 -24.961  0.00  0.00    -0.077 C 
ATOM     29  C   UNL     1      34.501  -6.328 -23.981  0.00  0.00    -0.077 C 
ATOM     30  H   UNL     1      33.183  -7.502 -24.983  0.00  0.00    -0.079 HD
BRANCH  25  31
ATOM     31  C   UNL     1      35.271  -4.409 -27.266  0.00  0.00    -0.086 C 
BRANCH  31  32
ATOM     32  N   UNL     1      36.707  -4.599 -27.130  0.00  0.00    +0.380 N 
ATOM     33  H   UNL     1      37.159  -3.694 -27.004  0.00  0.00    -0.089 HD
ATOM     34  H   UNL     1      37.072  -5.047 -27.971  0.00  0.00    -0.089 HD
ATOM     35  H   UNL     1      36.896  -5.190 -26.320  0.00  0.00    -0.089 HD
ENDBRANCH  31  32
ENDBRANCH  25  31
ENDBRANCH  23  24
ENDBRANCH   2  23
TORSDOF 5
ENDMDL
MODEL 9
REMARK VINA RESULT:     -11.2      3.307     10.881
REMARK  Name = 10156987
REMARK  5 active torsions:
REMARK  status: ('A' for Active; 'I' for Inactive)
REMARK    1  A    between atoms: C_2  and  C_23
REMARK    2  A    between atoms: C_9  and  C_13
REMARK    3  A    between atoms: C_23  and  N_24
REMARK    4  A    between atoms: C_25  and  C_31
REMARK    5  A    between atoms: C_31  and  N_32
REMARK                            x       y       z     vdW  Elec       q    Type
REMARK                         _______ _______ _______ _____ _____    ______ ____
ROOT
ATOM      1  N   UNL     1      34.273 -14.697 -24.054  0.00  0.00    -0.312 N 
ATOM      2  C   UNL     1      35.845 -18.194 -22.563  0.00  0.00    -0.043 C 
ATOM      3  C   UNL     1      35.678 -17.048 -21.784  0.00  0.00    -0.005 C 
ATOM      4  C   UNL     1      35.483 -18.215 -23.904  0.00  0.00    -0.005 C 
ATOM      5  C   UNL     1      35.131 -15.893 -22.378  0.00  0.00    +0.014 C 
ATOM      6  C   UNL     1      34.775 -15.938 -23.727  0.00  0.00    +0.048 C 
ATOM      7  C   UNL     1      34.939 -17.082 -24.515  0.00  0.00    +0.014 C 
ATOM      8  C   UNL     1      34.826 -14.586 -21.908  0.00  0.00    +0.016 C 
ATOM      9  C   UNL     1      34.300 -13.874 -22.961  0.00  0.00    +0.053 C 
ATOM     10  H   UNL     1      33.943 -14.440 -24.945  0.00  0.00    +0.152 HD
ENDROOT
BRANCH   9  13
ATOM     11  O   UNL     1      34.585 -12.344 -25.357  0.00  0.00    -0.270 OA
ATOM     12  N   UNL     1      33.493 -10.529 -24.481  0.00  0.00    -0.280 N 
ATOM     13  C   UNL     1      33.816 -12.537 -23.110  0.00  0.00    +0.067 C 
ATOM     14  C   UNL     1      33.190 -11.937 -22.082  0.00  0.00    +0.007 C 
ATOM     15  C   UNL     1      34.003 -11.812 -24.412  0.00  0.00    +0.251 C 
ATOM     16  C   UNL     1      32.676 -10.575 -22.204  0.00  0.00    +0.014 C 
ATOM     17  C   UNL     1      32.838  -9.894 -23.414  0.00  0.00    +0.051 C 
ATOM     18  C   UNL     1      32.024  -9.941 -21.142  0.00  0.00    +0.001 C 
ATOM     19  C   UNL     1      32.357  -8.592 -23.569  0.00  0.00    +0.015 C 
ATOM     20  C   UNL     1      31.543  -8.638 -21.295  0.00  0.00    +0.000 C 
ATOM     21  C   UNL     1      31.709  -7.966 -22.505  0.00  0.00    +0.001 C 
ATOM     22  H   UNL     1      33.596 -10.033 -25.326  0.00  0.00    +0.155 HD
ENDBRANCH   9  13
BRANCH   2  23
ATOM     23  C   UNL     1      36.429 -19.426 -21.937  0.00  0.00    -0.050 C 
BRANCH  23  24
ATOM     24  N   UNL     1      35.577 -19.955 -20.872  0.00  0.00    +0.390 N 
ATOM     25  C   UNL     1      33.900 -21.983 -19.579  0.00  0.00    -0.026 C 
ATOM     26  C   UNL     1      33.312 -20.748 -20.270  0.00  0.00    -0.025 C 
ATOM     27  C   UNL     1      35.332 -21.687 -19.122  0.00  0.00    -0.025 C 
ATOM     28  C   UNL     1      34.231 -20.245 -21.385  0.00  0.00    -0.077 C 
ATOM     29  C   UNL     1      36.185 -21.152 -20.275  0.00  0.00    -0.077 C 
ATOM     30  H   UNL     1      35.490 -19.249 -20.141  0.00  0.00    -0.079 HD
BRANCH  25  31
ATOM     31  C   UNL     1      33.029 -22.421 -18.404  0.00  0.00    -0.086 C 
BRANCH  31  32
ATOM     32  N   UNL     1      33.484 -23.694 -17.867  0.00  0.00    +0.380 N 
ATOM     33  H   UNL     1      33.820 -24.283 -18.628  0.00  0.00    -0.089 HD
ATOM     34  H   UNL     1      32.710 -24.159 -17.392  0.00  0.00    -0.089 HD
ATOM     35  H   UNL     1      34.242 -23.532 -17.203  0.00  0.00    -0.089 HD
ENDBRANCH  31  32
ENDBRANCH  25  31
ENDBRANCH  23  24
ENDBRANCH   2  23
TORSDOF 5
ENDMDL
