MODEL 1
REMARK VINA RESULT:     -12.1      0.000      0.000
REMARK  Name = 24963046
REMARK  6 active torsions:
REMARK  status: ('A' for Active; 'I' for Inactive)
REMARK    1  A    between atoms: N_1  and  C_27
REMARK    2  A    between atoms: C_4  and  C_16
REMARK    3  A    between atoms: C_13  and  C_22
REMARK    4  A    between atoms: N_21  and  C_24
REMARK    5  A    between atoms: C_27  and  C_28
REMARK    6  A    between atoms: C_28  and  N_30
REMARK                            x       y       z     vdW  Elec       q    Type
REMARK                         _______ _______ _______ _____ _____    ______ ____
ROOT
ATOM      1  N   UNL     1      35.892 -18.386 -23.714  0.00  0.00    -0.270 N 
ATOM      2  N   UNL     1      34.840 -19.738 -22.143  0.00  0.00    -0.338 NA
ATOM      3  N   UNL     1      37.166 -19.143 -21.929  0.00  0.00    -0.170 NA
ATOM      4  C   UNL     1      35.034 -21.964 -18.624  0.00  0.00    -0.000 C 
ATOM      5  C   UNL     1      36.168 -21.303 -19.089  0.00  0.00    +0.004 C 
ATOM      6  C   UNL     1      36.106 -20.552 -20.276  0.00  0.00    +0.050 C 
ATOM      7  C   UNL     1      35.971 -19.122 -22.543  0.00  0.00    +0.145 C 
ATOM      8  C   UNL     1      33.845 -21.873 -19.340  0.00  0.00    +0.003 C 
ATOM      9  C   UNL     1      34.911 -20.454 -21.008  0.00  0.00    +0.146 C 
ATOM     10  C   UNL     1      33.792 -21.124 -20.518  0.00  0.00    +0.033 C 
ATOM     11  C   UNL     1      37.201 -19.869 -20.795  0.00  0.00    +0.114 C 
ATOM     12  H   UNL     1      36.703 -17.925 -24.029  0.00  0.00    +0.159 HD
ENDROOT
BRANCH   4  16
ATOM     13  C   UNL     1      36.407 -23.661 -15.599  0.00  0.00    +0.053 C 
ATOM     14  C   UNL     1      36.326 -22.918 -16.776  0.00  0.00    +0.004 C 
ATOM     15  C   UNL     1      35.256 -24.224 -15.049  0.00  0.00    +0.004 C 
ATOM     16  C   UNL     1      35.094 -22.738 -17.404  0.00  0.00    -0.004 C 
ATOM     17  C   UNL     1      33.942 -23.302 -16.854  0.00  0.00    -0.022 C 
ATOM     18  C   UNL     1      34.023 -24.044 -15.675  0.00  0.00    -0.004 C 
ATOM     19  C   UNL     1      32.603 -23.130 -17.498  0.00  0.00    +0.031 C 
BRANCH  13  22
ATOM     20  O   UNL     1      37.936 -23.296 -13.857  0.00  0.00    -0.270 OA
ATOM     21  N   UNL     1      38.630 -24.655 -15.600  0.00  0.00    -0.302 N 
ATOM     22  C   UNL     1      37.692 -23.849 -14.943  0.00  0.00    +0.246 C 
ATOM     23  H   UNL     1      38.375 -25.065 -16.459  0.00  0.00    +0.150 HD
BRANCH  21  24
ATOM     24  C   UNL     1      39.946 -24.914 -15.085  0.00  0.00    +0.072 C 
ATOM     25  C   UNL     1      40.155 -25.816 -13.904  0.00  0.00    +0.021 C 
ATOM     26  C   UNL     1      40.603 -26.250 -15.270  0.00  0.00    +0.021 C 
ENDBRANCH  21  24
ENDBRANCH  13  22
ENDBRANCH   4  16
BRANCH   1  27
ATOM     27  C   UNL     1      34.687 -18.256 -24.499  0.00  0.00    +0.075 C 
BRANCH  27  28
ATOM     28  C   UNL     1      34.825 -17.080 -25.457  0.00  0.00    -0.055 C 
BRANCH  28  30
ATOM     29  O   UNL     1      34.301 -13.069 -24.337  0.00  0.00    -0.358 OA
ATOM     30  N   UNL     1      34.272 -15.867 -24.857  0.00  0.00    +0.391 N 
ATOM     31  C   UNL     1      33.912 -14.890 -25.894  0.00  0.00    -0.045 C 
ATOM     32  C   UNL     1      35.226 -15.271 -23.911  0.00  0.00    -0.045 C 
ATOM     33  C   UNL     1      33.349 -13.629 -25.243  0.00  0.00    +0.119 C 
ATOM     34  C   UNL     1      34.631 -14.003 -23.307  0.00  0.00    +0.119 C 
ATOM     35  H   UNL     1      33.427 -16.129 -24.348  0.00  0.00    -0.079 HD
ENDBRANCH  28  30
ENDBRANCH  27  28
ENDBRANCH   1  27
TORSDOF 6
ENDMDL
MODEL 2
REMARK VINA RESULT:     -11.7      3.702      6.101
REMARK  Name = 24963046
REMARK  6 active torsions:
REMARK  status: ('A' for Active; 'I' for Inactive)
REMARK    1  A    between atoms: N_1  and  C_27
REMARK    2  A    between atoms: C_4  and  C_16
REMARK    3  A    between atoms: C_13  and  C_22
REMARK    4  A    between atoms: N_21  and  C_24
REMARK    5  A    between atoms: C_27  and  C_28
REMARK    6  A    between atoms: C_28  and  N_30
REMARK                            x       y       z     vdW  Elec       q    Type
REMARK                         _______ _______ _______ _____ _____    ______ ____
ROOT
ATOM      1  N   UNL     1      33.787 -13.741 -26.733  0.00  0.00    -0.270 N 
ATOM      2  N   UNL     1      34.396 -14.639 -24.677  0.00  0.00    -0.338 NA
ATOM      3  N   UNL     1      34.098 -16.037 -26.618  0.00  0.00    -0.170 NA
ATOM      4  C   UNL     1      35.366 -17.969 -22.365  0.00  0.00    -0.000 C 
ATOM      5  C   UNL     1      35.059 -18.128 -23.714  0.00  0.00    +0.004 C 
ATOM      6  C   UNL     1      34.731 -17.007 -24.497  0.00  0.00    +0.050 C 
ATOM      7  C   UNL     1      34.108 -14.857 -25.977  0.00  0.00    +0.145 C 
ATOM      8  C   UNL     1      35.346 -16.698 -21.802  0.00  0.00    +0.003 C 
ATOM      9  C   UNL     1      34.708 -15.718 -23.938  0.00  0.00    +0.146 C 
ATOM     10  C   UNL     1      35.020 -15.589 -22.587  0.00  0.00    +0.033 C 
ATOM     11  C   UNL     1      34.415 -17.097 -25.848  0.00  0.00    +0.114 C 
ATOM     12  H   UNL     1      33.573 -13.871 -27.685  0.00  0.00    +0.159 HD
ENDROOT
BRANCH   4  16
ATOM     13  C   UNL     1      34.975 -21.025 -20.260  0.00  0.00    +0.053 C 
ATOM     14  C   UNL     1      34.674 -19.910 -21.043  0.00  0.00    +0.004 C 
ATOM     15  C   UNL     1      36.304 -21.349 -19.992  0.00  0.00    +0.004 C 
ATOM     16  C   UNL     1      35.702 -19.120 -21.556  0.00  0.00    -0.004 C 
ATOM     17  C   UNL     1      37.032 -19.445 -21.287  0.00  0.00    -0.022 C 
ATOM     18  C   UNL     1      37.334 -20.560 -20.505  0.00  0.00    -0.004 C 
ATOM     19  C   UNL     1      38.162 -18.622 -21.820  0.00  0.00    +0.031 C 
BRANCH  13  22
ATOM     20  O   UNL     1      32.799 -21.903 -20.295  0.00  0.00    -0.270 OA
ATOM     21  N   UNL     1      34.170 -22.552 -18.543  0.00  0.00    -0.302 N 
ATOM     22  C   UNL     1      33.904 -21.849 -19.725  0.00  0.00    +0.246 C 
ATOM     23  H   UNL     1      35.065 -22.467 -18.140  0.00  0.00    +0.150 HD
BRANCH  21  24
ATOM     24  C   UNL     1      33.203 -23.388 -17.887  0.00  0.00    +0.072 C 
ATOM     25  C   UNL     1      33.193 -23.541 -16.395  0.00  0.00    +0.021 C 
ATOM     26  C   UNL     1      32.085 -22.797 -17.082  0.00  0.00    +0.021 C 
ENDBRANCH  21  24
ENDBRANCH  13  22
ENDBRANCH   4  16
BRANCH   1  27
ATOM     27  C   UNL     1      33.750 -12.399 -26.204  0.00  0.00    +0.075 C 
BRANCH  27  28
ATOM     28  C   UNL     1      34.115 -12.420 -24.725  0.00  0.00    -0.055 C 
BRANCH  28  30
ATOM     29  O   UNL     1      32.161 -10.346 -21.644  0.00  0.00    -0.358 OA
ATOM     30  N   UNL     1      33.074 -11.767 -23.935  0.00  0.00    +0.391 N 
ATOM     31  C   UNL     1      33.383 -10.343 -23.740  0.00  0.00    -0.045 C 
ATOM     32  C   UNL     1      32.911 -12.430 -22.634  0.00  0.00    -0.045 C 
ATOM     33  C   UNL     1      32.290  -9.685 -22.904  0.00  0.00    +0.119 C 
ATOM     34  C   UNL     1      31.828 -11.723 -21.825  0.00  0.00    +0.119 C 
ATOM     35  H   UNL     1      32.197 -11.841 -24.452  0.00  0.00    -0.079 HD
ENDBRANCH  28  30
ENDBRANCH  27  28
ENDBRANCH   1  27
TORSDOF 6
ENDMDL
MODEL 3
REMARK VINA RESULT:     -11.7      2.308      4.338
REMARK  Name = 24963046
REMARK  6 active torsions:
REMARK  status: ('A' for Active; 'I' for Inactive)
REMARK    1  A    between atoms: N_1  and  C_27
REMARK    2  A    between atoms: C_4  and  C_16
REMARK    3  A    between atoms: C_13  and  C_22
REMARK    4  A    between atoms: N_21  and  C_24
REMARK    5  A    between atoms: C_27  and  C_28
REMARK    6  A    between atoms: C_28  and  N_30
REMARK                            x       y       z     vdW  Elec       q    Type
REMARK                         _______ _______ _______ _____ _____    ______ ____
ROOT
ATOM      1  N   UNL     1      34.695 -19.301 -23.055  0.00  0.00    -0.270 N 
ATOM      2  N   UNL     1      35.756 -20.236 -21.210  0.00  0.00    -0.338 NA
ATOM      3  N   UNL     1      33.370 -20.410 -21.507  0.00  0.00    -0.170 NA
ATOM      4  C   UNL     1      35.518 -22.379 -17.642  0.00  0.00    -0.000 C 
ATOM      5  C   UNL     1      34.362 -22.118 -18.372  0.00  0.00    +0.004 C 
ATOM      6  C   UNL     1      34.438 -21.395 -19.575  0.00  0.00    +0.050 C 
ATOM      7  C   UNL     1      34.601 -20.014 -21.871  0.00  0.00    +0.145 C 
ATOM      8  C   UNL     1      36.745 -21.922 -18.114  0.00  0.00    +0.003 C 
ATOM      9  C   UNL     1      35.671 -20.928 -20.061  0.00  0.00    +0.146 C 
ATOM     10  C   UNL     1      36.812 -21.204 -19.311  0.00  0.00    +0.033 C 
ATOM     11  C   UNL     1      33.321 -21.100 -20.351  0.00  0.00    +0.114 C 
ATOM     12  H   UNL     1      33.867 -19.125 -23.558  0.00  0.00    +0.159 HD
ENDROOT
BRANCH   4  16
ATOM     13  C   UNL     1      34.098 -24.203 -14.714  0.00  0.00    +0.053 C 
ATOM     14  C   UNL     1      34.194 -23.487 -15.907  0.00  0.00    +0.004 C 
ATOM     15  C   UNL     1      35.254 -24.554 -14.018  0.00  0.00    +0.004 C 
ATOM     16  C   UNL     1      35.445 -23.121 -16.403  0.00  0.00    -0.004 C 
ATOM     17  C   UNL     1      36.601 -23.472 -15.705  0.00  0.00    -0.022 C 
ATOM     18  C   UNL     1      36.506 -24.189 -14.513  0.00  0.00    -0.004 C 
ATOM     19  C   UNL     1      37.960 -23.098 -16.206  0.00  0.00    +0.031 C 
BRANCH  13  22
ATOM     20  O   UNL     1      32.695 -25.217 -13.130  0.00  0.00    -0.270 OA
ATOM     21  N   UNL     1      31.676 -24.227 -14.960  0.00  0.00    -0.302 N 
ATOM     22  C   UNL     1      32.794 -24.585 -14.197  0.00  0.00    +0.246 C 
ATOM     23  H   UNL     1      31.821 -23.727 -15.796  0.00  0.00    +0.150 HD
BRANCH  21  24
ATOM     24  C   UNL     1      30.327 -24.554 -14.587  0.00  0.00    +0.072 C 
ATOM     25  C   UNL     1      29.212 -24.515 -15.590  0.00  0.00    +0.021 C 
ATOM     26  C   UNL     1      29.684 -25.830 -15.041  0.00  0.00    +0.021 C 
ENDBRANCH  21  24
ENDBRANCH  13  22
ENDBRANCH   4  16
BRANCH   1  27
ATOM     27  C   UNL     1      35.938 -18.802 -23.593  0.00  0.00    +0.075 C 
BRANCH  27  28
ATOM     28  C   UNL     1      36.071 -17.316 -23.282  0.00  0.00    -0.055 C 
BRANCH  28  30
ATOM     29  O   UNL     1      33.938 -14.467 -25.506  0.00  0.00    -0.358 OA
ATOM     30  N   UNL     1      34.971 -16.569 -23.889  0.00  0.00    +0.391 N 
ATOM     31  C   UNL     1      35.058 -16.615 -25.356  0.00  0.00    -0.045 C 
ATOM     32  C   UNL     1      34.970 -15.174 -23.427  0.00  0.00    -0.045 C 
ATOM     33  C   UNL     1      33.908 -15.819 -25.967  0.00  0.00    +0.119 C 
ATOM     34  C   UNL     1      33.821 -14.413 -24.083  0.00  0.00    +0.119 C 
ATOM     35  H   UNL     1      34.098 -17.010 -23.601  0.00  0.00    -0.079 HD
ENDBRANCH  28  30
ENDBRANCH  27  28
ENDBRANCH   1  27
TORSDOF 6
ENDMDL
MODEL 4
REMARK VINA RESULT:     -11.6      2.595      4.447
REMARK  Name = 24963046
REMARK  6 active torsions:
REMARK  status: ('A' for Active; 'I' for Inactive)
REMARK    1  A    between atoms: N_1  and  C_27
REMARK    2  A    between atoms: C_4  and  C_16
REMARK    3  A    between atoms: C_13  and  C_22
REMARK    4  A    between atoms: N_21  and  C_24
REMARK    5  A    between atoms: C_27  and  C_28
REMARK    6  A    between atoms: C_28  and  N_30
REMARK                            x       y       z     vdW  Elec       q    Type
REMARK                         _______ _______ _______ _____ _____    ______ ____
ROOT
ATOM      1  N   UNL     1      36.087 -18.029 -24.024  0.00  0.00    -0.270 N 
ATOM      2  N   UNL     1      34.813 -19.270 -22.527  0.00  0.00    -0.338 NA
ATOM      3  N   UNL     1      37.192 -19.012 -22.237  0.00  0.00    -0.170 NA
ATOM      4  C   UNL     1      34.597 -21.609 -19.084  0.00  0.00    -0.000 C 
ATOM      5  C   UNL     1      35.823 -21.099 -19.499  0.00  0.00    +0.004 C 
ATOM      6  C   UNL     1      35.900 -20.310 -20.660  0.00  0.00    +0.050 C 
ATOM      7  C   UNL     1      36.030 -18.805 -22.878  0.00  0.00    +0.145 C 
ATOM      8  C   UNL     1      33.453 -21.332 -19.825  0.00  0.00    +0.003 C 
ATOM      9  C   UNL     1      34.752 -20.023 -21.416  0.00  0.00    +0.146 C 
ATOM     10  C   UNL     1      33.538 -20.546 -20.977  0.00  0.00    +0.033 C 
ATOM     11  C   UNL     1      37.094 -19.771 -21.128  0.00  0.00    +0.114 C 
ATOM     12  H   UNL     1      36.963 -17.676 -24.303  0.00  0.00    +0.159 HD
ENDROOT
BRANCH   4  16
ATOM     13  C   UNL     1      33.158 -23.649 -16.312  0.00  0.00    +0.053 C 
ATOM     14  C   UNL     1      33.263 -22.863 -17.459  0.00  0.00    +0.004 C 
ATOM     15  C   UNL     1      34.303 -23.994 -15.596  0.00  0.00    +0.004 C 
ATOM     16  C   UNL     1      34.513 -22.422 -17.891  0.00  0.00    -0.004 C 
ATOM     17  C   UNL     1      35.660 -22.768 -17.175  0.00  0.00    -0.022 C 
ATOM     18  C   UNL     1      35.555 -23.555 -16.028  0.00  0.00    -0.004 C 
ATOM     19  C   UNL     1      37.018 -22.315 -17.607  0.00  0.00    +0.031 C 
BRANCH  13  22
ATOM     20  O   UNL     1      31.758 -24.961 -14.960  0.00  0.00    -0.270 OA
ATOM     21  N   UNL     1      30.731 -23.566 -16.498  0.00  0.00    -0.302 N 
ATOM     22  C   UNL     1      31.853 -24.109 -15.861  0.00  0.00    +0.246 C 
ATOM     23  H   UNL     1      30.874 -22.894 -17.204  0.00  0.00    +0.150 HD
BRANCH  21  24
ATOM     24  C   UNL     1      29.382 -23.939 -16.174  0.00  0.00    +0.072 C 
ATOM     25  C   UNL     1      28.313 -22.903 -15.984  0.00  0.00    +0.021 C 
ATOM     26  C   UNL     1      28.278 -23.809 -17.181  0.00  0.00    +0.021 C 
ENDBRANCH  21  24
ENDBRANCH  13  22
ENDBRANCH   4  16
BRANCH   1  27
ATOM     27  C   UNL     1      34.935 -17.708 -24.832  0.00  0.00    +0.075 C 
BRANCH  27  28
ATOM     28  C   UNL     1      34.994 -16.243 -25.249  0.00  0.00    -0.055 C 
BRANCH  28  30
ATOM     29  O   UNL     1      33.797 -13.065 -22.783  0.00  0.00    -0.358 OA
ATOM     30  N   UNL     1      34.216 -15.421 -24.324  0.00  0.00    +0.391 N 
ATOM     31  C   UNL     1      33.834 -14.149 -24.954  0.00  0.00    -0.045 C 
ATOM     32  C   UNL     1      34.972 -15.165 -23.091  0.00  0.00    -0.045 C 
ATOM     33  C   UNL     1      33.034 -13.303 -23.968  0.00  0.00    +0.119 C 
ATOM     34  C   UNL     1      34.144 -14.296 -22.148  0.00  0.00    +0.119 C 
ATOM     35  H   UNL     1      33.367 -15.935 -24.088  0.00  0.00    -0.079 HD
ENDBRANCH  28  30
ENDBRANCH  27  28
ENDBRANCH   1  27
TORSDOF 6
ENDMDL
MODEL 5
REMARK VINA RESULT:     -11.4      5.397      9.752
REMARK  Name = 24963046
REMARK  6 active torsions:
REMARK  status: ('A' for Active; 'I' for Inactive)
REMARK    1  A    between atoms: N_1  and  C_27
REMARK    2  A    between atoms: C_4  and  C_16
REMARK    3  A    between atoms: C_13  and  C_22
REMARK    4  A    between atoms: N_21  and  C_24
REMARK    5  A    between atoms: C_27  and  C_28
REMARK    6  A    between atoms: C_28  and  N_30
REMARK                            x       y       z     vdW  Elec       q    Type
REMARK                         _______ _______ _______ _____ _____    ______ ____
ROOT
ATOM      1  N   UNL     1      31.696  -9.076 -21.558  0.00  0.00    -0.270 N 
ATOM      2  N   UNL     1      32.916 -10.573 -22.850  0.00  0.00    -0.338 NA
ATOM      3  N   UNL     1      31.668 -11.307 -20.923  0.00  0.00    -0.170 NA
ATOM      4  C   UNL     1      34.190 -14.476 -23.573  0.00  0.00    -0.000 C 
ATOM      5  C   UNL     1      33.357 -14.208 -22.490  0.00  0.00    +0.004 C 
ATOM      6  C   UNL     1      32.926 -12.893 -22.243  0.00  0.00    +0.050 C 
ATOM      7  C   UNL     1      32.111 -10.378 -21.786  0.00  0.00    +0.145 C 
ATOM      8  C   UNL     1      34.589 -13.435 -24.405  0.00  0.00    +0.003 C 
ATOM      9  C   UNL     1      33.323 -11.834 -23.077  0.00  0.00    +0.146 C 
ATOM     10  C   UNL     1      34.155 -12.131 -24.153  0.00  0.00    +0.033 C 
ATOM     11  C   UNL     1      32.094 -12.559 -21.179  0.00  0.00    +0.114 C 
ATOM     12  H   UNL     1      31.106  -8.905 -20.787  0.00  0.00    +0.159 HD
ENDROOT
BRANCH   4  16
ATOM     13  C   UNL     1      35.697 -17.845 -23.030  0.00  0.00    +0.053 C 
ATOM     14  C   UNL     1      35.258 -16.541 -22.805  0.00  0.00    +0.004 C 
ATOM     15  C   UNL     1      35.515 -18.436 -24.280  0.00  0.00    +0.004 C 
ATOM     16  C   UNL     1      34.637 -15.827 -23.830  0.00  0.00    -0.004 C 
ATOM     17  C   UNL     1      34.456 -16.419 -25.081  0.00  0.00    -0.022 C 
ATOM     18  C   UNL     1      34.894 -17.724 -25.306  0.00  0.00    -0.004 C 
ATOM     19  C   UNL     1      33.794 -15.685 -26.204  0.00  0.00    +0.031 C 
BRANCH  13  22
ATOM     20  O   UNL     1      37.547 -18.412 -21.703  0.00  0.00    -0.270 OA
ATOM     21  N   UNL     1      35.558 -19.517 -21.265  0.00  0.00    -0.302 N 
ATOM     22  C   UNL     1      36.344 -18.590 -21.962  0.00  0.00    +0.246 C 
ATOM     23  H   UNL     1      34.611 -19.611 -21.518  0.00  0.00    +0.150 HD
BRANCH  21  24
ATOM     24  C   UNL     1      36.065 -20.339 -20.200  0.00  0.00    +0.072 C 
ATOM     25  C   UNL     1      35.261 -21.479 -19.649  0.00  0.00    +0.021 C 
ATOM     26  C   UNL     1      36.500 -21.752 -20.451  0.00  0.00    +0.021 C 
ENDBRANCH  21  24
ENDBRANCH  13  22
ENDBRANCH   4  16
BRANCH   1  27
ATOM     27  C   UNL     1      32.076  -7.957 -22.386  0.00  0.00    +0.075 C 
BRANCH  27  28
ATOM     28  C   UNL     1      32.611  -6.830 -21.511  0.00  0.00    -0.055 C 
BRANCH  28  30
ATOM     29  O   UNL     1      30.817  -3.879 -23.896  0.00  0.00    -0.358 OA
ATOM     30  N   UNL     1      32.259  -5.532 -22.082  0.00  0.00    +0.391 N 
ATOM     31  C   UNL     1      30.829  -5.249 -21.893  0.00  0.00    -0.045 C 
ATOM     32  C   UNL     1      32.599  -5.480 -23.510  0.00  0.00    -0.045 C 
ATOM     33  C   UNL     1      30.483  -3.896 -22.508  0.00  0.00    +0.119 C 
ATOM     34  C   UNL     1      32.213  -4.121 -24.085  0.00  0.00    +0.119 C 
ATOM     35  H   UNL     1      32.799  -4.818 -21.591  0.00  0.00    -0.079 HD
ENDBRANCH  28  30
ENDBRANCH  27  28
ENDBRANCH   1  27
TORSDOF 6
ENDMDL
MODEL 6
REMARK VINA RESULT:     -11.2      1.356      2.251
REMARK  Name = 24963046
REMARK  6 active torsions:
REMARK  status: ('A' for Active; 'I' for Inactive)
REMARK    1  A    between atoms: N_1  and  C_27
REMARK    2  A    between atoms: C_4  and  C_16
REMARK    3  A    between atoms: C_13  and  C_22
REMARK    4  A    between atoms: N_21  and  C_24
REMARK    5  A    between atoms: C_27  and  C_28
REMARK    6  A    between atoms: C_28  and  N_30
REMARK                            x       y       z     vdW  Elec       q    Type
REMARK                         _______ _______ _______ _____ _____    ______ ____
ROOT
ATOM      1  N   UNL     1      34.592 -19.410 -22.829  0.00  0.00    -0.270 N 
ATOM      2  N   UNL     1      35.557 -20.436 -20.980  0.00  0.00    -0.338 NA
ATOM      3  N   UNL     1      33.179 -20.521 -21.363  0.00  0.00    -0.170 NA
ATOM      4  C   UNL     1      35.125 -22.677 -17.493  0.00  0.00    -0.000 C 
ATOM      5  C   UNL     1      34.004 -22.356 -18.252  0.00  0.00    +0.004 C 
ATOM      6  C   UNL     1      34.146 -21.599 -19.429  0.00  0.00    +0.050 C 
ATOM      7  C   UNL     1      34.433 -20.155 -21.673  0.00  0.00    +0.145 C 
ATOM      8  C   UNL     1      36.381 -22.247 -17.907  0.00  0.00    +0.003 C 
ATOM      9  C   UNL     1      35.409 -21.159 -19.857  0.00  0.00    +0.146 C 
ATOM     10  C   UNL     1      36.513 -21.496 -19.078  0.00  0.00    +0.033 C 
ATOM     11  C   UNL     1      33.067 -21.244 -20.233  0.00  0.00    +0.114 C 
ATOM     12  H   UNL     1      33.788 -19.191 -23.355  0.00  0.00    +0.159 HD
ENDROOT
BRANCH   4  16
ATOM     13  C   UNL     1      36.012 -24.751 -14.521  0.00  0.00    +0.053 C 
ATOM     14  C   UNL     1      36.124 -23.999 -15.690  0.00  0.00    +0.004 C 
ATOM     15  C   UNL     1      34.760 -24.958 -13.942  0.00  0.00    +0.004 C 
ATOM     16  C   UNL     1      34.984 -23.454 -16.281  0.00  0.00    -0.004 C 
ATOM     17  C   UNL     1      33.732 -23.662 -15.702  0.00  0.00    -0.022 C 
ATOM     18  C   UNL     1      33.620 -24.413 -14.532  0.00  0.00    -0.004 C 
ATOM     19  C   UNL     1      32.487 -23.093 -16.306  0.00  0.00    +0.031 C 
BRANCH  13  22
ATOM     20  O   UNL     1      37.107 -26.045 -12.898  0.00  0.00    -0.270 OA
ATOM     21  N   UNL     1      38.434 -24.996 -14.481  0.00  0.00    -0.302 N 
ATOM     22  C   UNL     1      37.200 -25.319 -13.904  0.00  0.00    +0.246 C 
ATOM     23  H   UNL     1      38.440 -24.416 -15.278  0.00  0.00    +0.150 HD
BRANCH  21  24
ATOM     24  C   UNL     1      39.693 -25.465 -13.970  0.00  0.00    +0.072 C 
ATOM     25  C   UNL     1      40.467 -26.538 -14.677  0.00  0.00    +0.021 C 
ATOM     26  C   UNL     1      40.983 -25.129 -14.656  0.00  0.00    +0.021 C 
ENDBRANCH  21  24
ENDBRANCH  13  22
ENDBRANCH   4  16
BRANCH   1  27
ATOM     27  C   UNL     1      35.868 -18.936 -23.309  0.00  0.00    +0.075 C 
BRANCH  27  28
ATOM     28  C   UNL     1      36.142 -17.546 -22.748  0.00  0.00    -0.055 C 
BRANCH  28  30
ATOM     29  O   UNL     1      33.765 -15.015 -25.106  0.00  0.00    -0.358 OA
ATOM     30  N   UNL     1      35.733 -16.521 -23.707  0.00  0.00    +0.391 N 
ATOM     31  C   UNL     1      34.959 -15.464 -23.041  0.00  0.00    -0.045 C 
ATOM     32  C   UNL     1      34.947 -17.112 -24.798  0.00  0.00    -0.045 C 
ATOM     33  C   UNL     1      34.533 -14.413 -24.063  0.00  0.00    +0.119 C 
ATOM     34  C   UNL     1      34.523 -16.022 -25.779  0.00  0.00    +0.119 C 
ATOM     35  H   UNL     1      36.579 -16.107 -24.100  0.00  0.00    -0.079 HD
ENDBRANCH  28  30
ENDBRANCH  27  28
ENDBRANCH   1  27
TORSDOF 6
ENDMDL
MODEL 7
REMARK VINA RESULT:     -11.1      8.814     16.949
REMARK  Name = 24963046
REMARK  6 active torsions:
REMARK  status: ('A' for Active; 'I' for Inactive)
REMARK    1  A    between atoms: N_1  and  C_27
REMARK    2  A    between atoms: C_4  and  C_16
REMARK    3  A    between atoms: C_13  and  C_22
REMARK    4  A    between atoms: N_21  and  C_24
REMARK    5  A    between atoms: C_27  and  C_28
REMARK    6  A    between atoms: C_28  and  N_30
REMARK                            x       y       z     vdW  Elec       q    Type
REMARK                         _______ _______ _______ _____ _____    ______ ____
ROOT
ATOM      1  N   UNL     1      31.939 -10.343 -19.747  0.00  0.00    -0.270 N 
ATOM      2  N   UNL     1      31.810  -9.258 -21.798  0.00  0.00    -0.338 NA
ATOM      3  N   UNL     1      33.028  -8.305 -19.950  0.00  0.00    -0.170 NA
ATOM      4  C   UNL     1      32.797  -5.994 -24.196  0.00  0.00    -0.000 C 
ATOM      5  C   UNL     1      33.247  -6.048 -22.880  0.00  0.00    +0.004 C 
ATOM      6  C   UNL     1      32.916  -7.147 -22.068  0.00  0.00    +0.050 C 
ATOM      7  C   UNL     1      32.275  -9.252 -20.532  0.00  0.00    +0.145 C 
ATOM      8  C   UNL     1      32.022  -7.033 -24.699  0.00  0.00    +0.003 C 
ATOM      9  C   UNL     1      32.133  -8.202 -22.565  0.00  0.00    +0.146 C 
ATOM     10  C   UNL     1      31.697  -8.122 -23.885  0.00  0.00    +0.033 C 
ATOM     11  C   UNL     1      33.333  -7.262 -20.746  0.00  0.00    +0.114 C 
ATOM     12  H   UNL     1      32.266 -10.365 -18.818  0.00  0.00    +0.159 HD
ENDROOT
BRANCH   4  16
ATOM     13  C   UNL     1      34.567  -3.890 -26.718  0.00  0.00    +0.053 C 
ATOM     14  C   UNL     1      34.223  -4.967 -25.900  0.00  0.00    +0.004 C 
ATOM     15  C   UNL     1      33.822  -2.713 -26.670  0.00  0.00    +0.004 C 
ATOM     16  C   UNL     1      33.135  -4.865 -25.034  0.00  0.00    -0.004 C 
ATOM     17  C   UNL     1      32.390  -3.686 -24.986  0.00  0.00    -0.022 C 
ATOM     18  C   UNL     1      32.733  -2.610 -25.805  0.00  0.00    -0.004 C 
ATOM     19  C   UNL     1      31.216  -3.539 -24.071  0.00  0.00    +0.031 C 
BRANCH  13  22
ATOM     20  O   UNL     1      35.542  -3.912 -28.853  0.00  0.00    -0.270 OA
ATOM     21  N   UNL     1      36.958  -4.215 -27.044  0.00  0.00    -0.302 N 
ATOM     22  C   UNL     1      35.701  -3.996 -27.622  0.00  0.00    +0.246 C 
ATOM     23  H   UNL     1      37.018  -4.273 -26.062  0.00  0.00    +0.150 HD
BRANCH  21  24
ATOM     24  C   UNL     1      38.165  -4.361 -27.810  0.00  0.00    +0.072 C 
ATOM     25  C   UNL     1      38.990  -3.169 -28.195  0.00  0.00    +0.021 C 
ATOM     26  C   UNL     1      39.511  -4.148 -27.185  0.00  0.00    +0.021 C 
ENDBRANCH  21  24
ENDBRANCH  13  22
ENDBRANCH   4  16
BRANCH   1  27
ATOM     27  C   UNL     1      31.138 -11.450 -20.213  0.00  0.00    +0.075 C 
BRANCH  27  28
ATOM     28  C   UNL     1      31.862 -12.760 -19.931  0.00  0.00    -0.055 C 
BRANCH  28  30
ATOM     29  O   UNL     1      33.905 -14.469 -23.175  0.00  0.00    -0.358 OA
ATOM     30  N   UNL     1      32.871 -13.015 -20.957  0.00  0.00    +0.391 N 
ATOM     31  C   UNL     1      32.293 -12.879 -22.302  0.00  0.00    -0.045 C 
ATOM     32  C   UNL     1      33.456 -14.353 -20.793  0.00  0.00    -0.045 C 
ATOM     33  C   UNL     1      33.361 -13.161 -23.355  0.00  0.00    +0.119 C 
ATOM     34  C   UNL     1      34.498 -14.599 -21.882  0.00  0.00    +0.119 C 
ATOM     35  H   UNL     1      33.609 -12.319 -20.848  0.00  0.00    -0.079 HD
ENDBRANCH  28  30
ENDBRANCH  27  28
ENDBRANCH   1  27
TORSDOF 6
ENDMDL
MODEL 8
REMARK VINA RESULT:     -11.1      3.383     10.702
REMARK  Name = 24963046
REMARK  6 active torsions:
REMARK  status: ('A' for Active; 'I' for Inactive)
REMARK    1  A    between atoms: N_1  and  C_27
REMARK    2  A    between atoms: C_4  and  C_16
REMARK    3  A    between atoms: C_13  and  C_22
REMARK    4  A    between atoms: N_21  and  C_24
REMARK    5  A    between atoms: C_27  and  C_28
REMARK    6  A    between atoms: C_28  and  N_30
REMARK                            x       y       z     vdW  Elec       q    Type
REMARK                         _______ _______ _______ _____ _____    ______ ____
ROOT
ATOM      1  N   UNL     1      35.033 -23.716 -16.874  0.00  0.00    -0.270 N 
ATOM      2  N   UNL     1      34.153 -22.388 -18.566  0.00  0.00    -0.338 NA
ATOM      3  N   UNL     1      36.509 -22.373 -18.057  0.00  0.00    -0.170 NA
ATOM      4  C   UNL     1      34.738 -19.582 -21.592  0.00  0.00    -0.000 C 
ATOM      5  C   UNL     1      35.823 -20.031 -20.845  0.00  0.00    +0.004 C 
ATOM      6  C   UNL     1      35.629 -20.977 -19.823  0.00  0.00    +0.050 C 
ATOM      7  C   UNL     1      35.243 -22.784 -17.877  0.00  0.00    +0.145 C 
ATOM      8  C   UNL     1      33.467 -20.076 -21.321  0.00  0.00    +0.003 C 
ATOM      9  C   UNL     1      34.350 -21.483 -19.540  0.00  0.00    +0.146 C 
ATOM     10  C   UNL     1      33.283 -21.017 -20.304  0.00  0.00    +0.033 C 
ATOM     11  C   UNL     1      36.670 -21.467 -19.040  0.00  0.00    +0.114 C 
ATOM     12  H   UNL     1      35.812 -24.024 -16.355  0.00  0.00    +0.159 HD
ENDROOT
BRANCH   4  16
ATOM     13  C   UNL     1      35.047 -16.294 -23.327  0.00  0.00    +0.053 C 
ATOM     14  C   UNL     1      34.862 -17.251 -22.330  0.00  0.00    +0.004 C 
ATOM     15  C   UNL     1      35.302 -16.693 -24.638  0.00  0.00    +0.004 C 
ATOM     16  C   UNL     1      34.932 -18.608 -22.643  0.00  0.00    -0.004 C 
ATOM     17  C   UNL     1      35.188 -19.008 -23.956  0.00  0.00    -0.022 C 
ATOM     18  C   UNL     1      35.374 -18.050 -24.953  0.00  0.00    -0.004 C 
ATOM     19  C   UNL     1      35.272 -20.453 -24.330  0.00  0.00    +0.031 C 
BRANCH  13  22
ATOM     20  O   UNL     1      35.093 -14.492 -21.824  0.00  0.00    -0.270 OA
ATOM     21  N   UNL     1      34.744 -13.991 -24.059  0.00  0.00    -0.302 N 
ATOM     22  C   UNL     1      34.973 -14.878 -23.001  0.00  0.00    +0.246 C 
ATOM     23  H   UNL     1      34.658 -14.360 -24.969  0.00  0.00    +0.150 HD
BRANCH  21  24
ATOM     24  C   UNL     1      34.627 -12.569 -23.887  0.00  0.00    +0.072 C 
ATOM     25  C   UNL     1      33.950 -11.715 -24.917  0.00  0.00    +0.021 C 
ATOM     26  C   UNL     1      33.305 -11.931 -23.579  0.00  0.00    +0.021 C 
ENDBRANCH  21  24
ENDBRANCH  13  22
ENDBRANCH   4  16
BRANCH   1  27
ATOM     27  C   UNL     1      33.739 -24.265 -16.547  0.00  0.00    +0.075 C 
BRANCH  27  28
ATOM     28  C   UNL     1      33.243 -23.662 -15.239  0.00  0.00    -0.055 C 
BRANCH  28  30
ATOM     29  O   UNL     1      29.225 -24.433 -16.179  0.00  0.00    -0.358 OA
ATOM     30  N   UNL     1      31.782 -23.638 -15.212  0.00  0.00    +0.391 N 
ATOM     31  C   UNL     1      31.242 -24.979 -14.944  0.00  0.00    -0.045 C 
ATOM     32  C   UNL     1      31.245 -23.122 -16.479  0.00  0.00    -0.045 C 
ATOM     33  C   UNL     1      29.717 -24.930 -14.933  0.00  0.00    +0.119 C 
ATOM     34  C   UNL     1      29.720 -23.117 -16.431  0.00  0.00    +0.119 C 
ATOM     35  H   UNL     1      31.494 -23.014 -14.457  0.00  0.00    -0.079 HD
ENDBRANCH  28  30
ENDBRANCH  27  28
ENDBRANCH   1  27
TORSDOF 6
ENDMDL
MODEL 9
REMARK VINA RESULT:     -10.9      2.184     11.077
REMARK  Name = 24963046
REMARK  6 active torsions:
REMARK  status: ('A' for Active; 'I' for Inactive)
REMARK    1  A    between atoms: N_1  and  C_27
REMARK    2  A    between atoms: C_4  and  C_16
REMARK    3  A    between atoms: C_13  and  C_22
REMARK    4  A    between atoms: N_21  and  C_24
REMARK    5  A    between atoms: C_27  and  C_28
REMARK    6  A    between atoms: C_28  and  N_30
REMARK                            x       y       z     vdW  Elec       q    Type
REMARK                         _______ _______ _______ _____ _____    ______ ____
ROOT
ATOM      1  N   UNL     1      35.927 -23.320 -16.787  0.00  0.00    -0.270 N 
ATOM      2  N   UNL     1      34.836 -22.206 -18.511  0.00  0.00    -0.338 NA
ATOM      3  N   UNL     1      37.180 -21.851 -18.074  0.00  0.00    -0.170 NA
ATOM      4  C   UNL     1      34.966 -19.501 -21.679  0.00  0.00    -0.000 C 
ATOM      5  C   UNL     1      36.119 -19.764 -20.945  0.00  0.00    +0.004 C 
ATOM      6  C   UNL     1      36.079 -20.675 -19.875  0.00  0.00    +0.050 C 
ATOM      7  C   UNL     1      35.986 -22.418 -17.837  0.00  0.00    +0.145 C 
ATOM      8  C   UNL     1      33.780 -20.146 -21.348  0.00  0.00    +0.003 C 
ATOM      9  C   UNL     1      34.886 -21.333 -19.531  0.00  0.00    +0.146 C 
ATOM     10  C   UNL     1      33.749 -21.051 -20.283  0.00  0.00    +0.033 C 
ATOM     11  C   UNL     1      37.194 -20.982 -19.103  0.00  0.00    +0.114 C 
ATOM     12  H   UNL     1      36.752 -23.494 -16.278  0.00  0.00    +0.159 HD
ENDROOT
BRANCH   4  16
ATOM     13  C   UNL     1      34.854 -16.282 -23.562  0.00  0.00    +0.053 C 
ATOM     14  C   UNL     1      34.823 -17.205 -22.517  0.00  0.00    +0.004 C 
ATOM     15  C   UNL     1      35.066 -16.717 -24.870  0.00  0.00    +0.004 C 
ATOM     16  C   UNL     1      35.003 -18.563 -22.779  0.00  0.00    -0.004 C 
ATOM     17  C   UNL     1      35.214 -18.998 -24.088  0.00  0.00    -0.022 C 
ATOM     18  C   UNL     1      35.247 -18.075 -25.134  0.00  0.00    -0.004 C 
ATOM     19  C   UNL     1      35.412 -20.445 -24.409  0.00  0.00    +0.031 C 
BRANCH  13  22
ATOM     20  O   UNL     1      35.291 -14.007 -23.938  0.00  0.00    -0.270 OA
ATOM     21  N   UNL     1      33.778 -14.527 -22.262  0.00  0.00    -0.302 N 
ATOM     22  C   UNL     1      34.667 -14.866 -23.289  0.00  0.00    +0.246 C 
ATOM     23  H   UNL     1      33.315 -15.255 -21.785  0.00  0.00    +0.150 HD
BRANCH  21  24
ATOM     24  C   UNL     1      33.508 -13.172 -21.866  0.00  0.00    +0.072 C 
ATOM     25  C   UNL     1      32.217 -12.499 -22.228  0.00  0.00    +0.021 C 
ATOM     26  C   UNL     1      32.501 -12.862 -20.799  0.00  0.00    +0.021 C 
ENDBRANCH  21  24
ENDBRANCH  13  22
ENDBRANCH   4  16
BRANCH   1  27
ATOM     27  C   UNL     1      34.726 -24.019 -16.397  0.00  0.00    +0.075 C 
BRANCH  27  28
ATOM     28  C   UNL     1      34.895 -24.582 -14.991  0.00  0.00    -0.055 C 
BRANCH  28  30
ATOM     29  O   UNL     1      38.335 -26.539 -13.595  0.00  0.00    -0.358 OA
ATOM     30  N   UNL     1      36.295 -24.920 -14.743  0.00  0.00    +0.391 N 
ATOM     31  C   UNL     1      36.612 -26.252 -15.279  0.00  0.00    -0.045 C 
ATOM     32  C   UNL     1      36.598 -24.870 -13.307  0.00  0.00    -0.045 C 
ATOM     33  C   UNL     1      38.073 -26.589 -14.998  0.00  0.00    +0.119 C 
ATOM     34  C   UNL     1      38.061 -25.238 -13.073  0.00  0.00    +0.119 C 
ATOM     35  H   UNL     1      36.873 -24.231 -15.224  0.00  0.00    -0.079 HD
ENDBRANCH  28  30
ENDBRANCH  27  28
ENDBRANCH   1  27
TORSDOF 6
ENDMDL
