MODEL 1
REMARK VINA RESULT:     -11.4      0.000      0.000
REMARK  Name = 5288607
REMARK  4 active torsions:
REMARK  status: ('A' for Active; 'I' for Inactive)
REMARK    1  A    between atoms: N_2  and  C_19
REMARK    2  A    between atoms: C_3  and  C_6
REMARK    3  A    between atoms: C_5  and  C_16
REMARK    4  A    between atoms: C_19  and  C_21
REMARK                            x       y       z     vdW  Elec       q    Type
REMARK                         _______ _______ _______ _____ _____    ______ ____
ROOT
ATOM      1  O   UNL     1      33.539 -16.536 -26.160  0.00  0.00    -0.270 OA
ATOM      2  N   UNL     1      34.262 -14.443 -25.454  0.00  0.00    -0.270 N 
ATOM      3  C   UNL     1      34.166 -15.834 -25.365  0.00  0.00    +0.249 C 
ATOM      4  C   UNL     1      33.589 -13.748 -26.544  0.00  0.00    +0.116 C 
ENDROOT
BRANCH   3   6
ATOM      5  C   UNL     1      34.793 -17.807 -24.019  0.00  0.00    +0.006 C 
ATOM      6  C   UNL     1      34.857 -16.467 -24.202  0.00  0.00    +0.058 C 
BRANCH   5  16
ATOM      7  O   UNL     1      37.204 -22.079 -18.080  0.00  0.00    -0.275 OA
ATOM      8  N   UNL     1      37.229 -20.522 -19.766  0.00  0.00    -0.270 N 
ATOM      9  N   UNL     1      37.337 -18.963 -21.543  0.00  0.00    -0.229 NA
ATOM     10  C   UNL     1      34.479 -21.041 -20.219  0.00  0.00    +0.039 C 
ATOM     11  C   UNL     1      35.263 -20.126 -21.111  0.00  0.00    +0.010 C 
ATOM     12  C   UNL     1      35.376 -22.120 -19.630  0.00  0.00    +0.090 C 
ATOM     13  C   UNL     1      36.604 -19.859 -20.840  0.00  0.00    +0.130 C 
ATOM     14  C   UNL     1      34.657 -19.439 -22.164  0.00  0.00    +0.000 C 
ATOM     15  C   UNL     1      36.664 -21.563 -19.058  0.00  0.00    +0.227 C 
ATOM     16  C   UNL     1      35.395 -18.532 -22.914  0.00  0.00    +0.019 C 
ATOM     17  C   UNL     1      36.719 -18.329 -22.564  0.00  0.00    +0.100 C 
ATOM     18  H   UNL     1      38.130 -20.222 -19.504  0.00  0.00    +0.156 HD
ENDBRANCH   5  16
ENDBRANCH   3   6
BRANCH   2  19
ATOM     19  C   UNL     1      34.971 -13.587 -24.505  0.00  0.00    +0.122 C 
BRANCH  19  21
ATOM     20  N   UNL     1      32.572 -11.422 -22.806  0.00  0.00    -0.284 N 
ATOM     21  C   UNL     1      33.990 -12.909 -23.612  0.00  0.00    +0.014 C 
ATOM     22  C   UNL     1      33.509 -13.400 -22.375  0.00  0.00    +0.013 C 
ATOM     23  C   UNL     1      32.616 -12.445 -21.886  0.00  0.00    +0.051 C 
ATOM     24  C   UNL     1      33.405 -11.696 -23.857  0.00  0.00    +0.063 C 
ATOM     25  C   UNL     1      33.740 -14.564 -21.616  0.00  0.00    +0.001 C 
ATOM     26  C   UNL     1      31.939 -12.597 -20.670  0.00  0.00    +0.015 C 
ATOM     27  C   UNL     1      31.767 -10.224 -22.693  0.00  0.00    +0.117 C 
ATOM     28  C   UNL     1      33.072 -14.729 -20.398  0.00  0.00    +0.000 C 
ATOM     29  C   UNL     1      32.185 -13.760 -19.934  0.00  0.00    +0.001 C 
ENDBRANCH  19  21
ENDBRANCH   2  19
TORSDOF 4
ENDMDL
MODEL 2
REMARK VINA RESULT:     -11.3      1.336      2.070
REMARK  Name = 5288607
REMARK  4 active torsions:
REMARK  status: ('A' for Active; 'I' for Inactive)
REMARK    1  A    between atoms: N_2  and  C_19
REMARK    2  A    between atoms: C_3  and  C_6
REMARK    3  A    between atoms: C_5  and  C_16
REMARK    4  A    between atoms: C_19  and  C_21
REMARK                            x       y       z     vdW  Elec       q    Type
REMARK                         _______ _______ _______ _____ _____    ______ ____
ROOT
ATOM      1  O   UNL     1      34.983 -16.434 -26.258  0.00  0.00    -0.270 OA
ATOM      2  N   UNL     1      33.903 -14.770 -25.048  0.00  0.00    -0.270 N 
ATOM      3  C   UNL     1      34.657 -15.939 -25.179  0.00  0.00    +0.249 C 
ATOM      4  C   UNL     1      33.458 -14.069 -26.246  0.00  0.00    +0.116 C 
ENDROOT
BRANCH   3   6
ATOM      5  C   UNL     1      35.378 -17.927 -23.903  0.00  0.00    +0.006 C 
ATOM      6  C   UNL     1      35.047 -16.614 -23.905  0.00  0.00    +0.058 C 
BRANCH   5  16
ATOM      7  O   UNL     1      36.500 -22.386 -17.724  0.00  0.00    -0.275 OA
ATOM      8  N   UNL     1      36.906 -20.829 -19.361  0.00  0.00    -0.270 N 
ATOM      9  N   UNL     1      37.407 -19.277 -21.075  0.00  0.00    -0.229 NA
ATOM     10  C   UNL     1      34.232 -21.142 -20.250  0.00  0.00    +0.039 C 
ATOM     11  C   UNL     1      35.211 -20.284 -20.993  0.00  0.00    +0.010 C 
ATOM     12  C   UNL     1      34.944 -22.286 -19.544  0.00  0.00    +0.090 C 
ATOM     13  C   UNL     1      36.508 -20.118 -20.510  0.00  0.00    +0.130 C 
ATOM     14  C   UNL     1      34.832 -19.551 -22.119  0.00  0.00    +0.000 C 
ATOM     15  C   UNL     1      36.161 -21.828 -18.767  0.00  0.00    +0.227 C 
ATOM     16  C   UNL     1      35.743 -18.698 -22.728  0.00  0.00    +0.019 C 
ATOM     17  C   UNL     1      37.006 -18.595 -22.171  0.00  0.00    +0.100 C 
ATOM     18  H   UNL     1      37.772 -20.598 -18.955  0.00  0.00    +0.156 HD
ENDBRANCH   5  16
ENDBRANCH   3   6
BRANCH   2  19
ATOM     19  C   UNL     1      33.476 -14.182 -23.781  0.00  0.00    +0.122 C 
BRANCH  19  21
ATOM     20  N   UNL     1      34.486 -10.716 -24.322  0.00  0.00    -0.284 N 
ATOM     21  C   UNL     1      33.677 -12.706 -23.819  0.00  0.00    +0.014 C 
ATOM     22  C   UNL     1      32.930 -11.744 -23.099  0.00  0.00    +0.013 C 
ATOM     23  C   UNL     1      33.458 -10.496 -23.433  0.00  0.00    +0.051 C 
ATOM     24  C   UNL     1      34.625 -12.056 -24.560  0.00  0.00    +0.063 C 
ATOM     25  C   UNL     1      31.851 -11.804 -22.193  0.00  0.00    +0.001 C 
ATOM     26  C   UNL     1      32.960  -9.299 -22.905  0.00  0.00    +0.015 C 
ATOM     27  C   UNL     1      35.308  -9.688 -24.925  0.00  0.00    +0.117 C 
ATOM     28  C   UNL     1      31.344 -10.616 -21.656  0.00  0.00    +0.000 C 
ATOM     29  C   UNL     1      31.890  -9.384 -22.008  0.00  0.00    +0.001 C 
ENDBRANCH  19  21
ENDBRANCH   2  19
TORSDOF 4
ENDMDL
MODEL 3
REMARK VINA RESULT:     -11.1      1.304      1.805
REMARK  Name = 5288607
REMARK  4 active torsions:
REMARK  status: ('A' for Active; 'I' for Inactive)
REMARK    1  A    between atoms: N_2  and  C_19
REMARK    2  A    between atoms: C_3  and  C_6
REMARK    3  A    between atoms: C_5  and  C_16
REMARK    4  A    between atoms: C_19  and  C_21
REMARK                            x       y       z     vdW  Elec       q    Type
REMARK                         _______ _______ _______ _____ _____    ______ ____
ROOT
ATOM      1  O   UNL     1      34.238 -18.121 -25.747  0.00  0.00    -0.270 OA
ATOM      2  N   UNL     1      34.829 -16.124 -24.716  0.00  0.00    -0.270 N 
ATOM      3  C   UNL     1      34.736 -17.516 -24.797  0.00  0.00    +0.249 C 
ATOM      4  C   UNL     1      34.312 -15.308 -25.807  0.00  0.00    +0.116 C 
ENDROOT
BRANCH   3   6
ATOM      5  C   UNL     1      34.441 -19.098 -22.923  0.00  0.00    +0.006 C 
ATOM      6  C   UNL     1      35.260 -18.278 -23.625  0.00  0.00    +0.058 C 
BRANCH   5  16
ATOM      7  O   UNL     1      35.619 -23.422 -16.659  0.00  0.00    -0.275 OA
ATOM      8  N   UNL     1      36.048 -21.998 -18.408  0.00  0.00    -0.270 N 
ATOM      9  N   UNL     1      36.563 -20.596 -20.242  0.00  0.00    -0.229 NA
ATOM     10  C   UNL     1      33.278 -21.985 -19.011  0.00  0.00    +0.039 C 
ATOM     11  C   UNL     1      34.277 -21.296 -19.891  0.00  0.00    +0.010 C 
ATOM     12  C   UNL     1      33.906 -23.185 -18.319  0.00  0.00    +0.090 C 
ATOM     13  C   UNL     1      35.628 -21.286 -19.548  0.00  0.00    +0.130 C 
ATOM     14  C   UNL     1      33.879 -20.563 -21.011  0.00  0.00    +0.000 C 
ATOM     15  C   UNL     1      35.247 -22.865 -17.691  0.00  0.00    +0.227 C 
ATOM     16  C   UNL     1      34.825 -19.864 -21.752  0.00  0.00    +0.019 C 
ATOM     17  C   UNL     1      36.141 -19.910 -21.327  0.00  0.00    +0.100 C 
ATOM     18  H   UNL     1      36.975 -21.870 -18.102  0.00  0.00    +0.156 HD
ENDBRANCH   5  16
ENDBRANCH   3   6
BRANCH   2  19
ATOM     19  C   UNL     1      35.384 -15.383 -23.586  0.00  0.00    +0.122 C 
BRANCH  19  21
ATOM     20  N   UNL     1      33.610 -12.193 -23.540  0.00  0.00    -0.284 N 
ATOM     21  C   UNL     1      34.552 -14.176 -23.320  0.00  0.00    +0.014 C 
ATOM     22  C   UNL     1      33.721 -13.968 -22.194  0.00  0.00    +0.013 C 
ATOM     23  C   UNL     1      33.136 -12.710 -22.356  0.00  0.00    +0.051 C 
ATOM     24  C   UNL     1      34.471 -13.078 -24.131  0.00  0.00    +0.063 C 
ATOM     25  C   UNL     1      33.400 -14.722 -21.048  0.00  0.00    +0.001 C 
ATOM     26  C   UNL     1      32.243 -12.167 -21.425  0.00  0.00    +0.015 C 
ATOM     27  C   UNL     1      33.257 -10.903 -24.094  0.00  0.00    +0.117 C 
ATOM     28  C   UNL     1      32.510 -14.192 -20.108  0.00  0.00    +0.000 C 
ATOM     29  C   UNL     1      31.941 -12.934 -20.295  0.00  0.00    +0.001 C 
ENDBRANCH  19  21
ENDBRANCH   2  19
TORSDOF 4
ENDMDL
MODEL 4
REMARK VINA RESULT:     -11.0      0.635      2.053
REMARK  Name = 5288607
REMARK  4 active torsions:
REMARK  status: ('A' for Active; 'I' for Inactive)
REMARK    1  A    between atoms: N_2  and  C_19
REMARK    2  A    between atoms: C_3  and  C_6
REMARK    3  A    between atoms: C_5  and  C_16
REMARK    4  A    between atoms: C_19  and  C_21
REMARK                            x       y       z     vdW  Elec       q    Type
REMARK                         _______ _______ _______ _____ _____    ______ ____
ROOT
ATOM      1  O   UNL     1      33.527 -16.605 -26.284  0.00  0.00    -0.270 OA
ATOM      2  N   UNL     1      34.216 -14.498 -25.585  0.00  0.00    -0.270 N 
ATOM      3  C   UNL     1      34.141 -15.890 -25.490  0.00  0.00    +0.249 C 
ATOM      4  C   UNL     1      33.535 -13.818 -26.679  0.00  0.00    +0.116 C 
ENDROOT
BRANCH   3   6
ATOM      5  C   UNL     1      34.768 -17.843 -24.115  0.00  0.00    +0.006 C 
ATOM      6  C   UNL     1      34.839 -16.507 -24.323  0.00  0.00    +0.058 C 
BRANCH   5  16
ATOM      7  O   UNL     1      37.211 -22.036 -18.133  0.00  0.00    -0.275 OA
ATOM      8  N   UNL     1      37.226 -20.498 -19.838  0.00  0.00    -0.270 N 
ATOM      9  N   UNL     1      37.323 -18.960 -21.633  0.00  0.00    -0.229 NA
ATOM     10  C   UNL     1      34.477 -21.035 -20.278  0.00  0.00    +0.039 C 
ATOM     11  C   UNL     1      35.255 -20.127 -21.182  0.00  0.00    +0.010 C 
ATOM     12  C   UNL     1      35.380 -22.103 -19.679  0.00  0.00    +0.090 C 
ATOM     13  C   UNL     1      36.595 -19.850 -20.917  0.00  0.00    +0.130 C 
ATOM     14  C   UNL     1      34.643 -19.455 -22.242  0.00  0.00    +0.000 C 
ATOM     15  C   UNL     1      36.666 -21.534 -19.116  0.00  0.00    +0.227 C 
ATOM     16  C   UNL     1      35.376 -18.553 -23.004  0.00  0.00    +0.019 C 
ATOM     17  C   UNL     1      36.699 -18.340 -22.659  0.00  0.00    +0.100 C 
ATOM     18  H   UNL     1      38.125 -20.192 -19.581  0.00  0.00    +0.156 HD
ENDBRANCH   5  16
ENDBRANCH   3   6
BRANCH   2  19
ATOM     19  C   UNL     1      34.909 -13.628 -24.638  0.00  0.00    +0.122 C 
BRANCH  19  21
ATOM     20  N   UNL     1      32.685 -13.275 -21.764  0.00  0.00    -0.284 N 
ATOM     21  C   UNL     1      33.971 -13.215 -23.557  0.00  0.00    +0.014 C 
ATOM     22  C   UNL     1      33.386 -11.935 -23.404  0.00  0.00    +0.013 C 
ATOM     23  C   UNL     1      32.580 -11.997 -22.266  0.00  0.00    +0.051 C 
ATOM     24  C   UNL     1      33.527 -14.021 -22.544  0.00  0.00    +0.063 C 
ATOM     25  C   UNL     1      33.461 -10.722 -24.116  0.00  0.00    +0.001 C 
ATOM     26  C   UNL     1      31.840 -10.903 -21.803  0.00  0.00    +0.015 C 
ATOM     27  C   UNL     1      32.009 -13.773 -20.584  0.00  0.00    +0.117 C 
ATOM     28  C   UNL     1      32.726  -9.619 -23.667  0.00  0.00    +0.000 C 
ATOM     29  C   UNL     1      31.929  -9.710 -22.528  0.00  0.00    +0.001 C 
ENDBRANCH  19  21
ENDBRANCH   2  19
TORSDOF 4
ENDMDL
MODEL 5
REMARK VINA RESULT:     -10.8      1.753      2.775
REMARK  Name = 5288607
REMARK  4 active torsions:
REMARK  status: ('A' for Active; 'I' for Inactive)
REMARK    1  A    between atoms: N_2  and  C_19
REMARK    2  A    between atoms: C_3  and  C_6
REMARK    3  A    between atoms: C_5  and  C_16
REMARK    4  A    between atoms: C_19  and  C_21
REMARK                            x       y       z     vdW  Elec       q    Type
REMARK                         _______ _______ _______ _____ _____    ______ ____
ROOT
ATOM      1  O   UNL     1      34.623 -18.766 -25.161  0.00  0.00    -0.270 OA
ATOM      2  N   UNL     1      35.014 -16.752 -24.069  0.00  0.00    -0.270 N 
ATOM      3  C   UNL     1      34.921 -18.145 -24.140  0.00  0.00    +0.249 C 
ATOM      4  C   UNL     1      34.746 -15.956 -25.261  0.00  0.00    +0.116 C 
ENDROOT
BRANCH   3   6
ATOM      5  C   UNL     1      34.263 -19.762 -22.393  0.00  0.00    +0.006 C 
ATOM      6  C   UNL     1      35.179 -18.885 -22.869  0.00  0.00    +0.058 C 
BRANCH   5  16
ATOM      7  O   UNL     1      35.792 -23.574 -15.877  0.00  0.00    -0.275 OA
ATOM      8  N   UNL     1      34.604 -22.708 -17.640  0.00  0.00    -0.270 N 
ATOM      9  N   UNL     1      33.318 -21.769 -19.391  0.00  0.00    -0.229 NA
ATOM     10  C   UNL     1      37.041 -21.802 -18.771  0.00  0.00    +0.039 C 
ATOM     11  C   UNL     1      35.716 -21.461 -19.384  0.00  0.00    +0.010 C 
ATOM     12  C   UNL     1      36.911 -21.972 -17.265  0.00  0.00    +0.090 C 
ATOM     13  C   UNL     1      34.536 -21.953 -18.828  0.00  0.00    +0.130 C 
ATOM     14  C   UNL     1      35.627 -20.737 -20.574  0.00  0.00    +0.000 C 
ATOM     15  C   UNL     1      35.743 -22.852 -16.873  0.00  0.00    +0.227 C 
ATOM     16  C   UNL     1      34.386 -20.516 -21.158  0.00  0.00    +0.019 C 
ATOM     17  C   UNL     1      33.273 -21.051 -20.535  0.00  0.00    +0.100 C 
ATOM     18  H   UNL     1      33.785 -23.161 -17.337  0.00  0.00    +0.156 HD
ENDBRANCH   5  16
ENDBRANCH   3   6
BRANCH   2  19
ATOM     19  C   UNL     1      35.333 -15.992 -22.863  0.00  0.00    +0.122 C 
BRANCH  19  21
ATOM     20  N   UNL     1      33.938 -12.687 -23.546  0.00  0.00    -0.284 N 
ATOM     21  C   UNL     1      34.624 -14.681 -22.895  0.00  0.00    +0.014 C 
ATOM     22  C   UNL     1      33.726 -14.195 -21.916  0.00  0.00    +0.013 C 
ATOM     23  C   UNL     1      33.306 -12.936 -22.349  0.00  0.00    +0.051 C 
ATOM     24  C   UNL     1      34.741 -13.743 -23.884  0.00  0.00    +0.063 C 
ATOM     25  C   UNL     1      33.221 -14.697 -20.700  0.00  0.00    +0.001 C 
ATOM     26  C   UNL     1      32.403 -12.150 -21.624  0.00  0.00    +0.015 C 
ATOM     27  C   UNL     1      33.786 -11.489 -24.344  0.00  0.00    +0.117 C 
ATOM     28  C   UNL     1      32.319 -13.922 -19.963  0.00  0.00    +0.000 C 
ATOM     29  C   UNL     1      31.916 -12.669 -20.420  0.00  0.00    +0.001 C 
ENDBRANCH  19  21
ENDBRANCH   2  19
TORSDOF 4
ENDMDL
MODEL 6
REMARK VINA RESULT:     -10.7      5.221     11.646
REMARK  Name = 5288607
REMARK  4 active torsions:
REMARK  status: ('A' for Active; 'I' for Inactive)
REMARK    1  A    between atoms: N_2  and  C_19
REMARK    2  A    between atoms: C_3  and  C_6
REMARK    3  A    between atoms: C_5  and  C_16
REMARK    4  A    between atoms: C_19  and  C_21
REMARK                            x       y       z     vdW  Elec       q    Type
REMARK                         _______ _______ _______ _____ _____    ______ ____
ROOT
ATOM      1  O   UNL     1      31.096 -24.565 -16.427  0.00  0.00    -0.270 OA
ATOM      2  N   UNL     1      32.471 -24.195 -14.590  0.00  0.00    -0.270 N 
ATOM      3  C   UNL     1      32.037 -23.971 -15.899  0.00  0.00    +0.249 C 
ATOM      4  C   UNL     1      31.790 -25.190 -13.771  0.00  0.00    +0.116 C 
ENDROOT
BRANCH   3   6
ATOM      5  C   UNL     1      33.640 -23.353 -17.674  0.00  0.00    +0.006 C 
ATOM      6  C   UNL     1      32.807 -22.958 -16.682  0.00  0.00    +0.058 C 
BRANCH   5  16
ATOM      7  O   UNL     1      37.244 -18.446 -22.391  0.00  0.00    -0.275 OA
ATOM      8  N   UNL     1      36.923 -19.995 -20.727  0.00  0.00    -0.270 N 
ATOM      9  N   UNL     1      36.636 -21.526 -18.947  0.00  0.00    -0.229 NA
ATOM     10  C   UNL     1      34.205 -20.194 -21.507  0.00  0.00    +0.039 C 
ATOM     11  C   UNL     1      34.729 -20.909 -20.298  0.00  0.00    +0.010 C 
ATOM     12  C   UNL     1      34.980 -18.909 -21.754  0.00  0.00    +0.090 C 
ATOM     13  C   UNL     1      36.079 -20.824 -19.962  0.00  0.00    +0.130 C 
ATOM     14  C   UNL     1      33.917 -21.755 -19.542  0.00  0.00    +0.000 C 
ATOM     15  C   UNL     1      36.480 -19.109 -21.689  0.00  0.00    +0.227 C 
ATOM     16  C   UNL     1      34.461 -22.470 -18.481  0.00  0.00    +0.019 C 
ATOM     17  C   UNL     1      35.814 -22.324 -18.230  0.00  0.00    +0.100 C 
ATOM     18  H   UNL     1      37.892 -20.051 -20.565  0.00  0.00    +0.156 HD
ENDBRANCH   5  16
ENDBRANCH   3   6
BRANCH   2  19
ATOM     19  C   UNL     1      33.605 -23.527 -13.955  0.00  0.00    +0.122 C 
BRANCH  19  21
ATOM     20  N   UNL     1      36.265 -25.841 -14.903  0.00  0.00    -0.284 N 
ATOM     21  C   UNL     1      34.833 -24.353 -14.124  0.00  0.00    +0.014 C 
ATOM     22  C   UNL     1      36.001 -24.283 -13.328  0.00  0.00    +0.013 C 
ATOM     23  C   UNL     1      36.890 -25.231 -13.839  0.00  0.00    +0.051 C 
ATOM     24  C   UNL     1      35.014 -25.313 -15.082  0.00  0.00    +0.063 C 
ATOM     25  C   UNL     1      36.399 -23.508 -12.221  0.00  0.00    +0.001 C 
ATOM     26  C   UNL     1      38.163 -25.443 -13.296  0.00  0.00    +0.015 C 
ATOM     27  C   UNL     1      36.834 -26.889 -15.723  0.00  0.00    +0.117 C 
ATOM     28  C   UNL     1      37.667 -23.709 -11.667  0.00  0.00    +0.000 C 
ATOM     29  C   UNL     1      38.534 -24.662 -12.197  0.00  0.00    +0.001 C 
ENDBRANCH  19  21
ENDBRANCH   2  19
TORSDOF 4
ENDMDL
MODEL 7
REMARK VINA RESULT:     -10.3      4.164     10.474
REMARK  Name = 5288607
REMARK  4 active torsions:
REMARK  status: ('A' for Active; 'I' for Inactive)
REMARK    1  A    between atoms: N_2  and  C_19
REMARK    2  A    between atoms: C_3  and  C_6
REMARK    3  A    between atoms: C_5  and  C_16
REMARK    4  A    between atoms: C_19  and  C_21
REMARK                            x       y       z     vdW  Elec       q    Type
REMARK                         _______ _______ _______ _____ _____    ______ ____
ROOT
ATOM      1  O   UNL     1      31.027 -12.126 -21.017  0.00  0.00    -0.270 OA
ATOM      2  N   UNL     1      33.096 -13.047 -21.541  0.00  0.00    -0.270 N 
ATOM      3  C   UNL     1      32.105 -12.064 -21.609  0.00  0.00    +0.249 C 
ATOM      4  C   UNL     1      32.870 -14.234 -20.727  0.00  0.00    +0.116 C 
ENDROOT
BRANCH   3   6
ATOM      5  C   UNL     1      31.968  -9.657 -22.147  0.00  0.00    +0.006 C 
ATOM      6  C   UNL     1      32.401 -10.893 -22.489  0.00  0.00    +0.058 C 
BRANCH   5  16
ATOM      7  O   UNL     1      33.890  -3.479 -26.327  0.00  0.00    -0.275 OA
ATOM      8  N   UNL     1      32.600  -4.974 -25.156  0.00  0.00    -0.270 N 
ATOM      9  N   UNL     1      31.211  -6.525 -24.032  0.00  0.00    -0.229 NA
ATOM     10  C   UNL     1      34.960  -6.363 -24.426  0.00  0.00    +0.039 C 
ATOM     11  C   UNL     1      33.600  -6.886 -24.074  0.00  0.00    +0.010 C 
ATOM     12  C   UNL     1      34.912  -5.560 -25.717  0.00  0.00    +0.090 C 
ATOM     13  C   UNL     1      32.459  -6.161 -24.412  0.00  0.00    +0.130 C 
ATOM     14  C   UNL     1      33.439  -8.046 -23.315  0.00  0.00    +0.000 C 
ATOM     15  C   UNL     1      33.779  -4.555 -25.740  0.00  0.00    +0.227 C 
ATOM     16  C   UNL     1      32.167  -8.452 -22.932  0.00  0.00    +0.019 C 
ATOM     17  C   UNL     1      31.095  -7.661 -23.310  0.00  0.00    +0.100 C 
ATOM     18  H   UNL     1      31.804  -4.405 -25.268  0.00  0.00    +0.156 HD
ENDBRANCH   5  16
ENDBRANCH   3   6
BRANCH   2  19
ATOM     19  C   UNL     1      34.367 -13.010 -22.261  0.00  0.00    +0.122 C 
BRANCH  19  21
ATOM     20  N   UNL     1      33.837 -14.445 -25.575  0.00  0.00    -0.284 N 
ATOM     21  C   UNL     1      34.266 -13.831 -23.500  0.00  0.00    +0.014 C 
ATOM     22  C   UNL     1      34.675 -15.178 -23.643  0.00  0.00    +0.013 C 
ATOM     23  C   UNL     1      34.395 -15.543 -24.961  0.00  0.00    +0.051 C 
ATOM     24  C   UNL     1      33.755 -13.401 -24.694  0.00  0.00    +0.063 C 
ATOM     25  C   UNL     1      35.260 -16.131 -22.785  0.00  0.00    +0.001 C 
ATOM     26  C   UNL     1      34.671 -16.819 -25.467  0.00  0.00    +0.015 C 
ATOM     27  C   UNL     1      33.396 -14.387 -26.953  0.00  0.00    +0.117 C 
ATOM     28  C   UNL     1      35.541 -17.411 -23.276  0.00  0.00    +0.000 C 
ATOM     29  C   UNL     1      35.251 -17.747 -24.596  0.00  0.00    +0.001 C 
ENDBRANCH  19  21
ENDBRANCH   2  19
TORSDOF 4
ENDMDL
MODEL 8
REMARK VINA RESULT:     -10.1      5.469     10.871
REMARK  Name = 5288607
REMARK  4 active torsions:
REMARK  status: ('A' for Active; 'I' for Inactive)
REMARK    1  A    between atoms: N_2  and  C_19
REMARK    2  A    between atoms: C_3  and  C_6
REMARK    3  A    between atoms: C_5  and  C_16
REMARK    4  A    between atoms: C_19  and  C_21
REMARK                            x       y       z     vdW  Elec       q    Type
REMARK                         _______ _______ _______ _____ _____    ______ ____
ROOT
ATOM      1  O   UNL     1      37.859 -22.925 -13.200  0.00  0.00    -0.270 OA
ATOM      2  N   UNL     1      36.581 -24.682 -14.028  0.00  0.00    -0.270 N 
ATOM      3  C   UNL     1      37.143 -23.403 -14.081  0.00  0.00    +0.249 C 
ATOM      4  C   UNL     1      36.838 -25.527 -12.869  0.00  0.00    +0.116 C 
ENDROOT
BRANCH   3   6
ATOM      5  C   UNL     1      37.776 -22.237 -16.164  0.00  0.00    +0.006 C 
ATOM      6  C   UNL     1      36.806 -22.588 -15.287  0.00  0.00    +0.058 C 
BRANCH   5  16
ATOM      7  O   UNL     1      36.095 -18.517 -22.697  0.00  0.00    -0.275 OA
ATOM      8  N   UNL     1      37.124 -19.025 -20.708  0.00  0.00    -0.270 N 
ATOM      9  N   UNL     1      38.160 -19.456 -18.625  0.00  0.00    -0.229 NA
ATOM     10  C   UNL     1      35.622 -21.427 -20.603  0.00  0.00    +0.039 C 
ATOM     11  C   UNL     1      36.508 -21.005 -19.469  0.00  0.00    +0.010 C 
ATOM     12  C   UNL     1      35.079 -20.215 -21.344  0.00  0.00    +0.090 C 
ATOM     13  C   UNL     1      37.265 -19.838 -19.566  0.00  0.00    +0.130 C 
ATOM     14  C   UNL     1      36.682 -21.807 -18.341  0.00  0.00    +0.000 C 
ATOM     15  C   UNL     1      36.153 -19.200 -21.674  0.00  0.00    +0.227 C 
ATOM     16  C   UNL     1      37.578 -21.424 -17.351  0.00  0.00    +0.019 C 
ATOM     17  C   UNL     1      38.290 -20.252 -17.541  0.00  0.00    +0.100 C 
ATOM     18  H   UNL     1      37.761 -18.284 -20.825  0.00  0.00    +0.156 HD
ENDBRANCH   5  16
ENDBRANCH   3   6
BRANCH   2  19
ATOM     19  C   UNL     1      35.702 -25.257 -15.044  0.00  0.00    +0.122 C 
BRANCH  19  21
ATOM     20  N   UNL     1      32.394 -24.031 -14.105  0.00  0.00    -0.284 N 
ATOM     21  C   UNL     1      34.343 -24.658 -14.929  0.00  0.00    +0.014 C 
ATOM     22  C   UNL     1      33.644 -23.974 -15.952  0.00  0.00    +0.013 C 
ATOM     23  C   UNL     1      32.417 -23.588 -15.408  0.00  0.00    +0.051 C 
ATOM     24  C   UNL     1      33.560 -24.683 -13.807  0.00  0.00    +0.063 C 
ATOM     25  C   UNL     1      33.927 -23.639 -17.291  0.00  0.00    +0.001 C 
ATOM     26  C   UNL     1      31.456 -22.881 -16.139  0.00  0.00    +0.015 C 
ATOM     27  C   UNL     1      31.302 -23.844 -13.173  0.00  0.00    +0.117 C 
ATOM     28  C   UNL     1      32.976 -22.934 -18.035  0.00  0.00    +0.000 C 
ATOM     29  C   UNL     1      31.760 -22.561 -17.466  0.00  0.00    +0.001 C 
ENDBRANCH  19  21
ENDBRANCH   2  19
TORSDOF 4
ENDMDL
MODEL 9
REMARK VINA RESULT:      -9.8      4.938     10.576
REMARK  Name = 5288607
REMARK  4 active torsions:
REMARK  status: ('A' for Active; 'I' for Inactive)
REMARK    1  A    between atoms: N_2  and  C_19
REMARK    2  A    between atoms: C_3  and  C_6
REMARK    3  A    between atoms: C_5  and  C_16
REMARK    4  A    between atoms: C_19  and  C_21
REMARK                            x       y       z     vdW  Elec       q    Type
REMARK                         _______ _______ _______ _____ _____    ______ ____
ROOT
ATOM      1  O   UNL     1      38.077 -22.492 -15.063  0.00  0.00    -0.270 OA
ATOM      2  N   UNL     1      36.643 -24.320 -15.023  0.00  0.00    -0.270 N 
ATOM      3  C   UNL     1      37.126 -23.115 -15.538  0.00  0.00    +0.249 C 
ATOM      4  C   UNL     1      37.281 -24.904 -13.850  0.00  0.00    +0.116 C 
ENDROOT
BRANCH   3   6
ATOM      5  C   UNL     1      37.085 -22.013 -17.748  0.00  0.00    +0.006 C 
ATOM      6  C   UNL     1      36.398 -22.568 -16.722  0.00  0.00    +0.058 C 
BRANCH   5  16
ATOM      7  O   UNL     1      34.703 -18.438 -24.142  0.00  0.00    -0.275 OA
ATOM      8  N   UNL     1      34.670 -19.796 -22.291  0.00  0.00    -0.270 N 
ATOM      9  N   UNL     1      34.611 -21.274 -20.444  0.00  0.00    -0.229 NA
ATOM     10  C   UNL     1      37.229 -18.805 -21.580  0.00  0.00    +0.039 C 
ATOM     11  C   UNL     1      36.574 -19.913 -20.811  0.00  0.00    +0.010 C 
ATOM     12  C   UNL     1      36.795 -18.830 -23.038  0.00  0.00    +0.090 C 
ATOM     13  C   UNL     1      35.298 -20.352 -21.160  0.00  0.00    +0.130 C 
ATOM     14  C   UNL     1      37.168 -20.460 -19.672  0.00  0.00    +0.000 C 
ATOM     15  C   UNL     1      35.295 -18.966 -23.200  0.00  0.00    +0.227 C 
ATOM     16  C   UNL     1      36.491 -21.423 -18.934  0.00  0.00    +0.019 C 
ATOM     17  C   UNL     1      35.225 -21.790 -19.357  0.00  0.00    +0.100 C 
ATOM     18  H   UNL     1      33.722 -20.015 -22.444  0.00  0.00    +0.156 HD
ENDBRANCH   5  16
ENDBRANCH   3   6
BRANCH   2  19
ATOM     19  C   UNL     1      35.496 -25.059 -15.548  0.00  0.00    +0.122 C 
BRANCH  19  21
ATOM     20  N   UNL     1      32.630 -23.738 -13.713  0.00  0.00    -0.284 N 
ATOM     21  C   UNL     1      34.233 -24.440 -15.058  0.00  0.00    +0.014 C 
ATOM     22  C   UNL     1      33.241 -23.824 -15.857  0.00  0.00    +0.013 C 
ATOM     23  C   UNL     1      32.240 -23.389 -14.986  0.00  0.00    +0.051 C 
ATOM     24  C   UNL     1      33.840 -24.378 -13.749  0.00  0.00    +0.063 C 
ATOM     25  C   UNL     1      33.089 -23.588 -17.238  0.00  0.00    +0.001 C 
ATOM     26  C   UNL     1      31.090 -22.726 -15.429  0.00  0.00    +0.015 C 
ATOM     27  C   UNL     1      31.881 -23.474 -12.503  0.00  0.00    +0.117 C 
ATOM     28  C   UNL     1      31.944 -22.928 -17.695  0.00  0.00    +0.000 C 
ATOM     29  C   UNL     1      30.961 -22.504 -16.804  0.00  0.00    +0.001 C 
ENDBRANCH  19  21
ENDBRANCH   2  19
TORSDOF 4
ENDMDL
