MODEL 1
REMARK VINA RESULT:     -12.9      0.000      0.000
REMARK  Name = 11560856
REMARK  5 active torsions:
REMARK  status: ('A' for Active; 'I' for Inactive)
REMARK    1  A    between atoms: C_2  and  O_24
REMARK    2  A    between atoms: C_3  and  N_10
REMARK    3  A    between atoms: C_12  and  C_16
REMARK    4  A    between atoms: C_16  and  C_18
REMARK    5  A    between atoms: O_24  and  C_28
REMARK                            x       y       z     vdW  Elec       q    Type
REMARK                         _______ _______ _______ _____ _____    ______ ____
ROOT
ATOM      1  F   UNL     1      33.742 -11.904 -24.026  0.00  0.00    -0.201 F 
ATOM      2  C   UNL     1      32.449 -12.235 -22.066  0.00  0.00    +0.173 C 
ATOM      3  C   UNL     1      33.888 -14.537 -21.523  0.00  0.00    +0.054 C 
ATOM      4  C   UNL     1      33.457 -12.624 -22.933  0.00  0.00    +0.176 C 
ATOM      5  C   UNL     1      32.144 -12.971 -20.934  0.00  0.00    +0.041 C 
ATOM      6  C   UNL     1      34.182 -13.783 -22.658  0.00  0.00    +0.047 C 
ATOM      7  C   UNL     1      32.869 -14.131 -20.660  0.00  0.00    +0.018 C 
ENDROOT
BRANCH   3  10
ATOM      8  O   UNL     1      36.800 -18.786 -23.276  0.00  0.00    -0.274 OA
ATOM      9  O   UNL     1      35.288 -16.439 -23.377  0.00  0.00    -0.252 OA
ATOM     10  N   UNL     1      34.615 -15.696 -21.248  0.00  0.00    -0.268 N 
ATOM     11  N   UNL     1      35.885 -17.623 -21.471  0.00  0.00    -0.239 N 
ATOM     12  C   UNL     1      36.609 -18.659 -22.068  0.00  0.00    +0.234 C 
ATOM     13  C   UNL     1      35.259 -16.563 -22.156  0.00  0.00    +0.310 C 
ATOM     14  H   UNL     1      34.687 -15.941 -20.298  0.00  0.00    +0.156 HD
ATOM     15  H   UNL     1      35.805 -17.637 -20.490  0.00  0.00    +0.159 HD
BRANCH  12  16
ATOM     16  C   UNL     1      37.143 -19.627 -21.030  0.00  0.00    +0.112 C 
BRANCH  16  18
ATOM     17  F   UNL     1      33.155 -22.858 -18.739  0.00  0.00    -0.204 F 
ATOM     18  C   UNL     1      36.075 -20.494 -20.417  0.00  0.00    -0.013 C 
ATOM     19  C   UNL     1      36.421 -21.416 -19.440  0.00  0.00    -0.001 C 
ATOM     20  C   UNL     1      34.760 -20.356 -20.837  0.00  0.00    -0.001 C 
ATOM     21  C   UNL     1      35.431 -22.218 -18.871  0.00  0.00    +0.029 C 
ATOM     22  C   UNL     1      33.770 -21.158 -20.269  0.00  0.00    +0.029 C 
ATOM     23  C   UNL     1      34.105 -22.088 -19.286  0.00  0.00    +0.140 C 
ENDBRANCH  16  18
ENDBRANCH  12  16
ENDBRANCH   3  10
BRANCH   2  24
ATOM     24  O   UNL     1      31.731 -11.086 -22.336  0.00  0.00    -0.451 OA
BRANCH  24  28
ATOM     25  N   UNL     1      33.842  -6.937 -22.449  0.00  0.00    -0.297 N 
ATOM     26  N   UNL     1      32.888  -7.558 -20.325  0.00  0.00    -0.229 NA
ATOM     27  C   UNL     1      32.823  -8.922 -22.361  0.00  0.00    +0.067 C 
ATOM     28  C   UNL     1      32.113  -9.938 -21.700  0.00  0.00    +0.150 C 
ATOM     29  C   UNL     1      33.163  -7.793 -21.621  0.00  0.00    +0.135 C 
ATOM     30  C   UNL     1      33.323  -8.720 -23.675  0.00  0.00    +0.022 C 
ATOM     31  C   UNL     1      33.945  -7.490 -23.699  0.00  0.00    +0.063 C 
ATOM     32  C   UNL     1      31.802  -9.745 -20.355  0.00  0.00    +0.058 C 
ATOM     33  C   UNL     1      32.206  -8.568 -19.739  0.00  0.00    +0.103 C 
ATOM     34  H   UNL     1      34.201  -6.059 -22.185  0.00  0.00    +0.154 HD
ENDBRANCH  24  28
ENDBRANCH   2  24
TORSDOF 5
ENDMDL
MODEL 2
REMARK VINA RESULT:     -12.6      0.880      2.204
REMARK  Name = 11560856
REMARK  5 active torsions:
REMARK  status: ('A' for Active; 'I' for Inactive)
REMARK    1  A    between atoms: C_2  and  O_24
REMARK    2  A    between atoms: C_3  and  N_10
REMARK    3  A    between atoms: C_12  and  C_16
REMARK    4  A    between atoms: C_16  and  C_18
REMARK    5  A    between atoms: O_24  and  C_28
REMARK                            x       y       z     vdW  Elec       q    Type
REMARK                         _______ _______ _______ _____ _____    ______ ____
ROOT
ATOM      1  F   UNL     1      31.268 -12.274 -21.113  0.00  0.00    -0.201 F 
ATOM      2  C   UNL     1      32.829 -11.946 -22.868  0.00  0.00    +0.173 C 
ATOM      3  C   UNL     1      34.120 -14.284 -22.138  0.00  0.00    +0.054 C 
ATOM      4  C   UNL     1      32.346 -12.680 -21.797  0.00  0.00    +0.176 C 
ATOM      5  C   UNL     1      33.943 -12.354 -23.581  0.00  0.00    +0.041 C 
ATOM      6  C   UNL     1      32.996 -13.858 -21.431  0.00  0.00    +0.047 C 
ATOM      7  C   UNL     1      34.593 -13.532 -23.214  0.00  0.00    +0.018 C 
ENDROOT
BRANCH   3  10
ATOM      8  O   UNL     1      36.435 -19.004 -23.537  0.00  0.00    -0.274 OA
ATOM      9  O   UNL     1      35.132 -16.550 -23.827  0.00  0.00    -0.252 OA
ATOM     10  N   UNL     1      34.768 -15.463 -21.772  0.00  0.00    -0.268 N 
ATOM     11  N   UNL     1      35.833 -17.523 -21.838  0.00  0.00    -0.239 N 
ATOM     12  C   UNL     1      36.392 -18.698 -22.348  0.00  0.00    +0.234 C 
ATOM     13  C   UNL     1      35.229 -16.506 -22.604  0.00  0.00    +0.310 C 
ATOM     14  H   UNL     1      34.925 -15.585 -20.808  0.00  0.00    +0.156 HD
ATOM     15  H   UNL     1      35.862 -17.396 -20.862  0.00  0.00    +0.159 HD
BRANCH  12  16
ATOM     16  C   UNL     1      36.952 -19.567 -21.239  0.00  0.00    +0.112 C 
BRANCH  16  18
ATOM     17  F   UNL     1      33.074 -22.805 -18.774  0.00  0.00    -0.204 F 
ATOM     18  C   UNL     1      35.913 -20.434 -20.577  0.00  0.00    -0.013 C 
ATOM     19  C   UNL     1      34.573 -20.253 -20.890  0.00  0.00    -0.001 C 
ATOM     20  C   UNL     1      36.311 -21.402 -19.667  0.00  0.00    -0.001 C 
ATOM     21  C   UNL     1      33.611 -21.056 -20.278  0.00  0.00    +0.029 C 
ATOM     22  C   UNL     1      35.348 -22.205 -19.054  0.00  0.00    +0.029 C 
ATOM     23  C   UNL     1      33.999 -22.033 -19.361  0.00  0.00    +0.140 C 
ENDBRANCH  16  18
ENDBRANCH  12  16
ENDBRANCH   3  10
BRANCH   2  24
ATOM     24  O   UNL     1      32.185 -10.779 -23.232  0.00  0.00    -0.451 OA
BRANCH  24  28
ATOM     25  N   UNL     1      33.085  -7.310 -20.260  0.00  0.00    -0.297 N 
ATOM     26  N   UNL     1      34.145  -7.129 -22.416  0.00  0.00    -0.229 NA
ATOM     27  C   UNL     1      32.673  -8.958 -21.710  0.00  0.00    +0.067 C 
ATOM     28  C   UNL     1      32.812  -9.598 -22.952  0.00  0.00    +0.150 C 
ATOM     29  C   UNL     1      33.356  -7.759 -21.526  0.00  0.00    +0.135 C 
ATOM     30  C   UNL     1      31.974  -9.223 -20.502  0.00  0.00    +0.022 C 
ATOM     31  C   UNL     1      32.247  -8.192 -19.629  0.00  0.00    +0.063 C 
ATOM     32  C   UNL     1      33.620  -8.988 -23.911  0.00  0.00    +0.058 C 
ATOM     33  C   UNL     1      34.243  -7.788 -23.594  0.00  0.00    +0.103 C 
ATOM     34  H   UNL     1      33.439  -6.481 -19.864  0.00  0.00    +0.154 HD
ENDBRANCH  24  28
ENDBRANCH   2  24
TORSDOF 5
ENDMDL
MODEL 3
REMARK VINA RESULT:     -12.6      1.356      1.842
REMARK  Name = 11560856
REMARK  5 active torsions:
REMARK  status: ('A' for Active; 'I' for Inactive)
REMARK    1  A    between atoms: C_2  and  O_24
REMARK    2  A    between atoms: C_3  and  N_10
REMARK    3  A    between atoms: C_12  and  C_16
REMARK    4  A    between atoms: C_16  and  C_18
REMARK    5  A    between atoms: O_24  and  C_28
REMARK                            x       y       z     vdW  Elec       q    Type
REMARK                         _______ _______ _______ _____ _____    ______ ____
ROOT
ATOM      1  F   UNL     1      30.933 -11.898 -20.307  0.00  0.00    -0.201 F 
ATOM      2  C   UNL     1      32.166 -11.462 -22.287  0.00  0.00    +0.173 C 
ATOM      3  C   UNL     1      33.642 -13.764 -21.858  0.00  0.00    +0.054 C 
ATOM      4  C   UNL     1      31.895 -12.242 -21.175  0.00  0.00    +0.176 C 
ATOM      5  C   UNL     1      33.158 -11.806 -23.188  0.00  0.00    +0.041 C 
ATOM      6  C   UNL     1      32.638 -13.402 -20.960  0.00  0.00    +0.047 C 
ATOM      7  C   UNL     1      33.902 -12.966 -22.972  0.00  0.00    +0.018 C 
ENDROOT
BRANCH   3  10
ATOM      8  O   UNL     1      36.070 -18.221 -23.818  0.00  0.00    -0.274 OA
ATOM      9  O   UNL     1      34.616 -15.836 -23.801  0.00  0.00    -0.252 OA
ATOM     10  N   UNL     1      34.384 -14.926 -21.643  0.00  0.00    -0.268 N 
ATOM     11  N   UNL     1      35.548 -16.907 -21.963  0.00  0.00    -0.239 N 
ATOM     12  C   UNL     1      36.121 -18.005 -22.610  0.00  0.00    +0.234 C 
ATOM     13  C   UNL     1      34.822 -15.875 -22.591  0.00  0.00    +0.310 C 
ATOM     14  H   UNL     1      34.636 -15.107 -20.709  0.00  0.00    +0.156 HD
ATOM     15  H   UNL     1      35.660 -16.850 -20.986  0.00  0.00    +0.159 HD
BRANCH  12  16
ATOM     16  C   UNL     1      36.826 -18.917 -21.625  0.00  0.00    +0.112 C 
BRANCH  16  18
ATOM     17  F   UNL     1      33.389 -22.623 -19.166  0.00  0.00    -0.204 F 
ATOM     18  C   UNL     1      35.905 -19.909 -20.965  0.00  0.00    -0.013 C 
ATOM     19  C   UNL     1      34.540 -19.837 -21.203  0.00  0.00    -0.001 C 
ATOM     20  C   UNL     1      36.435 -20.882 -20.131  0.00  0.00    -0.001 C 
ATOM     21  C   UNL     1      33.686 -20.756 -20.593  0.00  0.00    +0.029 C 
ATOM     22  C   UNL     1      35.582 -21.802 -19.520  0.00  0.00    +0.029 C 
ATOM     23  C   UNL     1      34.208 -21.739 -19.752  0.00  0.00    +0.140 C 
ENDBRANCH  16  18
ENDBRANCH  12  16
ENDBRANCH   3  10
BRANCH   2  24
ATOM     24  O   UNL     1      31.429 -10.313 -22.501  0.00  0.00    -0.451 OA
BRANCH  24  28
ATOM     25  N   UNL     1      32.548  -5.866 -23.305  0.00  0.00    -0.297 N 
ATOM     26  N   UNL     1      33.079  -6.686 -21.102  0.00  0.00    -0.229 NA
ATOM     27  C   UNL     1      32.025  -7.996 -22.887  0.00  0.00    +0.067 C 
ATOM     28  C   UNL     1      31.960  -9.132 -22.064  0.00  0.00    +0.150 C 
ATOM     29  C   UNL     1      32.583  -6.842 -22.344  0.00  0.00    +0.135 C 
ATOM     30  C   UNL     1      31.647  -7.683 -24.219  0.00  0.00    +0.022 C 
ATOM     31  C   UNL     1      31.981  -6.365 -24.448  0.00  0.00    +0.063 C 
ATOM     32  C   UNL     1      32.458  -9.024 -20.766  0.00  0.00    +0.058 C 
ATOM     33  C   UNL     1      32.992  -7.810 -20.355  0.00  0.00    +0.103 C 
ATOM     34  H   UNL     1      32.880  -4.945 -23.190  0.00  0.00    +0.154 HD
ENDBRANCH  24  28
ENDBRANCH   2  24
TORSDOF 5
ENDMDL
MODEL 4
REMARK VINA RESULT:     -12.6      4.052     11.026
REMARK  Name = 11560856
REMARK  5 active torsions:
REMARK  status: ('A' for Active; 'I' for Inactive)
REMARK    1  A    between atoms: C_2  and  O_24
REMARK    2  A    between atoms: C_3  and  N_10
REMARK    3  A    between atoms: C_12  and  C_16
REMARK    4  A    between atoms: C_16  and  C_18
REMARK    5  A    between atoms: O_24  and  C_28
REMARK                            x       y       z     vdW  Elec       q    Type
REMARK                         _______ _______ _______ _____ _____    ______ ____
ROOT
ATOM      1  F   UNL     1      36.943 -22.335 -18.949  0.00  0.00    -0.201 F 
ATOM      2  C   UNL     1      34.603 -22.348 -19.335  0.00  0.00    +0.173 C 
ATOM      3  C   UNL     1      34.849 -20.019 -20.811  0.00  0.00    +0.054 C 
ATOM      4  C   UNL     1      35.855 -21.778 -19.496  0.00  0.00    +0.176 C 
ATOM      5  C   UNL     1      33.472 -21.780 -19.896  0.00  0.00    +0.041 C 
ATOM      6  C   UNL     1      35.978 -20.605 -20.241  0.00  0.00    +0.047 C 
ATOM      7  C   UNL     1      33.596 -20.607 -20.639  0.00  0.00    +0.018 C 
ENDROOT
BRANCH   3  10
ATOM      8  O   UNL     1      34.988 -17.510 -25.637  0.00  0.00    -0.274 OA
ATOM      9  O   UNL     1      34.788 -19.589 -23.782  0.00  0.00    -0.252 OA
ATOM     10  N   UNL     1      34.973 -18.846 -21.557  0.00  0.00    -0.268 N 
ATOM     11  N   UNL     1      35.102 -17.337 -23.313  0.00  0.00    -0.239 N 
ATOM     12  C   UNL     1      35.116 -16.836 -24.618  0.00  0.00    +0.234 C 
ATOM     13  C   UNL     1      34.938 -18.690 -22.959  0.00  0.00    +0.310 C 
ATOM     14  H   UNL     1      35.103 -18.020 -21.038  0.00  0.00    +0.156 HD
ATOM     15  H   UNL     1      35.216 -16.689 -22.580  0.00  0.00    +0.159 HD
BRANCH  12  16
ATOM     16  C   UNL     1      35.314 -15.332 -24.628  0.00  0.00    +0.112 C 
BRANCH  16  18
ATOM     17  F   UNL     1      32.361 -12.675 -20.651  0.00  0.00    -0.204 F 
ATOM     18  C   UNL     1      34.523 -14.619 -23.562  0.00  0.00    -0.013 C 
ATOM     19  C   UNL     1      33.465 -13.800 -23.930  0.00  0.00    -0.001 C 
ATOM     20  C   UNL     1      34.864 -14.793 -22.229  0.00  0.00    -0.001 C 
ATOM     21  C   UNL     1      32.733 -13.140 -22.943  0.00  0.00    +0.029 C 
ATOM     22  C   UNL     1      34.132 -14.133 -21.241  0.00  0.00    +0.029 C 
ATOM     23  C   UNL     1      33.066 -13.308 -21.598  0.00  0.00    +0.140 C 
ENDBRANCH  16  18
ENDBRANCH  12  16
ENDBRANCH   3  10
BRANCH   2  24
ATOM     24  O   UNL     1      34.480 -23.511 -18.599  0.00  0.00    -0.451 OA
BRANCH  24  28
ATOM     25  N   UNL     1      34.912 -23.397 -13.965  0.00  0.00    -0.297 N 
ATOM     26  N   UNL     1      32.660 -23.218 -14.801  0.00  0.00    -0.229 NA
ATOM     27  C   UNL     1      34.670 -23.449 -16.184  0.00  0.00    +0.067 C 
ATOM     28  C   UNL     1      33.907 -23.417 -17.363  0.00  0.00    +0.150 C 
ATOM     29  C   UNL     1      33.988 -23.345 -14.975  0.00  0.00    +0.135 C 
ATOM     30  C   UNL     1      36.050 -23.566 -15.870  0.00  0.00    +0.022 C 
ATOM     31  C   UNL     1      36.168 -23.530 -14.496  0.00  0.00    +0.063 C 
ATOM     32  C   UNL     1      32.525 -23.286 -17.238  0.00  0.00    +0.058 C 
ATOM     33  C   UNL     1      31.974 -23.194 -15.967  0.00  0.00    +0.103 C 
ATOM     34  H   UNL     1      34.705 -23.345 -13.003  0.00  0.00    +0.154 HD
ENDBRANCH  24  28
ENDBRANCH   2  24
TORSDOF 5
ENDMDL
MODEL 5
REMARK VINA RESULT:     -12.4      2.842     11.085
REMARK  Name = 11560856
REMARK  5 active torsions:
REMARK  status: ('A' for Active; 'I' for Inactive)
REMARK    1  A    between atoms: C_2  and  O_24
REMARK    2  A    between atoms: C_3  and  N_10
REMARK    3  A    between atoms: C_12  and  C_16
REMARK    4  A    between atoms: C_16  and  C_18
REMARK    5  A    between atoms: O_24  and  C_28
REMARK                            x       y       z     vdW  Elec       q    Type
REMARK                         _______ _______ _______ _____ _____    ______ ____
ROOT
ATOM      1  F   UNL     1      35.329 -18.627 -24.797  0.00  0.00    -0.201 F 
ATOM      2  C   UNL     1      35.555 -18.120 -22.491  0.00  0.00    +0.173 C 
ATOM      3  C   UNL     1      34.940 -15.474 -23.028  0.00  0.00    +0.054 C 
ATOM      4  C   UNL     1      35.290 -17.737 -23.796  0.00  0.00    +0.176 C 
ATOM      5  C   UNL     1      35.520 -17.209 -21.449  0.00  0.00    +0.041 C 
ATOM      6  C   UNL     1      34.979 -16.405 -24.065  0.00  0.00    +0.047 C 
ATOM      7  C   UNL     1      35.209 -15.876 -21.719  0.00  0.00    +0.018 C 
ENDROOT
BRANCH   3  10
ATOM      8  O   UNL     1      31.709 -11.160 -22.283  0.00  0.00    -0.274 OA
ATOM      9  O   UNL     1      32.686 -13.764 -22.021  0.00  0.00    -0.252 OA
ATOM     10  N   UNL     1      34.627 -14.141 -23.298  0.00  0.00    -0.268 N 
ATOM     11  N   UNL     1      33.594 -12.065 -23.319  0.00  0.00    -0.239 N 
ATOM     12  C   UNL     1      32.678 -11.050 -23.031  0.00  0.00    +0.234 C 
ATOM     13  C   UNL     1      33.552 -13.374 -22.800  0.00  0.00    +0.310 C 
ATOM     14  H   UNL     1      35.234 -13.676 -23.916  0.00  0.00    +0.156 HD
ATOM     15  H   UNL     1      34.328 -11.848 -23.938  0.00  0.00    +0.159 HD
BRANCH  12  16
ATOM     16  C   UNL     1      33.027  -9.769 -23.766  0.00  0.00    +0.112 C 
BRANCH  16  18
ATOM     17  F   UNL     1      30.976  -5.152 -21.302  0.00  0.00    -0.204 F 
ATOM     18  C   UNL     1      32.476  -8.533 -23.105  0.00  0.00    -0.013 C 
ATOM     19  C   UNL     1      32.998  -8.119 -21.888  0.00  0.00    -0.001 C 
ATOM     20  C   UNL     1      31.457  -7.825 -23.724  0.00  0.00    -0.001 C 
ATOM     21  C   UNL     1      32.489  -6.973 -21.276  0.00  0.00    +0.029 C 
ATOM     22  C   UNL     1      30.947  -6.679 -23.112  0.00  0.00    +0.029 C 
ATOM     23  C   UNL     1      31.464  -6.253 -21.890  0.00  0.00    +0.140 C 
ENDBRANCH  16  18
ENDBRANCH  12  16
ENDBRANCH   3  10
BRANCH   2  24
ATOM     24  O   UNL     1      35.862 -19.439 -22.223  0.00  0.00    -0.451 OA
BRANCH  24  28
ATOM     25  N   UNL     1      35.283 -22.178 -18.502  0.00  0.00    -0.297 N 
ATOM     26  N   UNL     1      33.259 -21.528 -19.637  0.00  0.00    -0.229 NA
ATOM     27  C   UNL     1      35.526 -20.865 -20.292  0.00  0.00    +0.067 C 
ATOM     28  C   UNL     1      35.033 -20.121 -21.377  0.00  0.00    +0.150 C 
ATOM     29  C   UNL     1      34.596 -21.521 -19.490  0.00  0.00    +0.135 C 
ATOM     30  C   UNL     1      36.808 -21.148 -19.752  0.00  0.00    +0.022 C 
ATOM     31  C   UNL     1      36.627 -21.958 -18.651  0.00  0.00    +0.063 C 
ATOM     32  C   UNL     1      33.654 -20.094 -21.574  0.00  0.00    +0.058 C 
ATOM     33  C   UNL     1      32.840 -20.798 -20.696  0.00  0.00    +0.103 C 
ATOM     34  H   UNL     1      34.871 -22.724 -17.793  0.00  0.00    +0.154 HD
ENDBRANCH  24  28
ENDBRANCH   2  24
TORSDOF 5
ENDMDL
MODEL 6
REMARK VINA RESULT:     -12.4      5.453     12.717
REMARK  Name = 11560856
REMARK  5 active torsions:
REMARK  status: ('A' for Active; 'I' for Inactive)
REMARK    1  A    between atoms: C_2  and  O_24
REMARK    2  A    between atoms: C_3  and  N_10
REMARK    3  A    between atoms: C_12  and  C_16
REMARK    4  A    between atoms: C_16  and  C_18
REMARK    5  A    between atoms: O_24  and  C_28
REMARK                            x       y       z     vdW  Elec       q    Type
REMARK                         _______ _______ _______ _____ _____    ______ ____
ROOT
ATOM      1  F   UNL     1      32.692 -24.082 -16.724  0.00  0.00    -0.201 F 
ATOM      2  C   UNL     1      34.922 -23.360 -16.362  0.00  0.00    +0.173 C 
ATOM      3  C   UNL     1      34.896 -22.094 -18.824  0.00  0.00    +0.054 C 
ATOM      4  C   UNL     1      33.779 -23.420 -17.143  0.00  0.00    +0.176 C 
ATOM      5  C   UNL     1      36.052 -22.680 -16.785  0.00  0.00    +0.041 C 
ATOM      6  C   UNL     1      33.767 -22.782 -18.382  0.00  0.00    +0.047 C 
ATOM      7  C   UNL     1      36.039 -22.043 -18.025  0.00  0.00    +0.018 C 
ENDROOT
BRANCH   3  10
ATOM      8  O   UNL     1      37.189 -18.660 -22.367  0.00  0.00    -0.274 OA
ATOM      9  O   UNL     1      36.831 -20.135 -20.022  0.00  0.00    -0.252 OA
ATOM     10  N   UNL     1      34.882 -21.454 -20.064  0.00  0.00    -0.268 N 
ATOM     11  N   UNL     1      35.438 -20.122 -21.879  0.00  0.00    -0.239 N 
ATOM     12  C   UNL     1      36.141 -19.218 -22.680  0.00  0.00    +0.234 C 
ATOM     13  C   UNL     1      35.818 -20.536 -20.588  0.00  0.00    +0.310 C 
ATOM     14  H   UNL     1      34.122 -21.670 -20.649  0.00  0.00    +0.156 HD
ATOM     15  H   UNL     1      34.607 -20.500 -22.248  0.00  0.00    +0.159 HD
BRANCH  12  16
ATOM     16  C   UNL     1      35.442 -19.002 -24.009  0.00  0.00    +0.112 C 
BRANCH  16  18
ATOM     17  F   UNL     1      34.089 -13.630 -24.966  0.00  0.00    -0.204 F 
ATOM     18  C   UNL     1      35.079 -17.562 -24.265  0.00  0.00    -0.013 C 
ATOM     19  C   UNL     1      35.286 -16.618 -23.269  0.00  0.00    -0.001 C 
ATOM     20  C   UNL     1      34.543 -17.202 -25.493  0.00  0.00    -0.001 C 
ATOM     21  C   UNL     1      34.950 -15.285 -23.507  0.00  0.00    +0.029 C 
ATOM     22  C   UNL     1      34.207 -15.869 -25.731  0.00  0.00    +0.029 C 
ATOM     23  C   UNL     1      34.411 -14.911 -24.738  0.00  0.00    +0.140 C 
ENDBRANCH  16  18
ENDBRANCH  12  16
ENDBRANCH   3  10
BRANCH   2  24
ATOM     24  O   UNL     1      34.934 -23.991 -15.133  0.00  0.00    -0.451 OA
BRANCH  24  28
ATOM     25  N   UNL     1      38.694 -25.209 -12.672  0.00  0.00    -0.297 N 
ATOM     26  N   UNL     1      38.052 -26.747 -14.412  0.00  0.00    -0.229 NA
ATOM     27  C   UNL     1      36.895 -24.653 -13.872  0.00  0.00    +0.067 C 
ATOM     28  C   UNL     1      35.949 -24.872 -14.887  0.00  0.00    +0.150 C 
ATOM     29  C   UNL     1      37.888 -25.614 -13.703  0.00  0.00    +0.135 C 
ATOM     30  C   UNL     1      37.129 -23.645 -12.900  0.00  0.00    +0.022 C 
ATOM     31  C   UNL     1      38.242 -24.014 -12.176  0.00  0.00    +0.063 C 
ATOM     32  C   UNL     1      36.072 -26.032 -15.651  0.00  0.00    +0.058 C 
ATOM     33  C   UNL     1      37.115 -26.906 -15.375  0.00  0.00    +0.103 C 
ATOM     34  H   UNL     1      39.479 -25.702 -12.338  0.00  0.00    +0.154 HD
ENDBRANCH  24  28
ENDBRANCH   2  24
TORSDOF 5
ENDMDL
MODEL 7
REMARK VINA RESULT:     -12.0      4.050     10.920
REMARK  Name = 11560856
REMARK  5 active torsions:
REMARK  status: ('A' for Active; 'I' for Inactive)
REMARK    1  A    between atoms: C_2  and  O_24
REMARK    2  A    between atoms: C_3  and  N_10
REMARK    3  A    between atoms: C_12  and  C_16
REMARK    4  A    between atoms: C_16  and  C_18
REMARK    5  A    between atoms: O_24  and  C_28
REMARK                            x       y       z     vdW  Elec       q    Type
REMARK                         _______ _______ _______ _____ _____    ______ ____
ROOT
ATOM      1  F   UNL     1      36.925 -22.402 -19.000  0.00  0.00    -0.201 F 
ATOM      2  C   UNL     1      34.576 -22.371 -19.324  0.00  0.00    +0.173 C 
ATOM      3  C   UNL     1      34.823 -20.033 -20.787  0.00  0.00    +0.054 C 
ATOM      4  C   UNL     1      35.833 -21.821 -19.513  0.00  0.00    +0.176 C 
ATOM      5  C   UNL     1      33.440 -21.778 -19.848  0.00  0.00    +0.041 C 
ATOM      6  C   UNL     1      35.957 -20.644 -20.251  0.00  0.00    +0.047 C 
ATOM      7  C   UNL     1      33.564 -20.601 -20.586  0.00  0.00    +0.018 C 
ENDROOT
BRANCH   3  10
ATOM      8  O   UNL     1      34.979 -17.500 -25.599  0.00  0.00    -0.274 OA
ATOM      9  O   UNL     1      34.775 -19.589 -23.756  0.00  0.00    -0.252 OA
ATOM     10  N   UNL     1      34.948 -18.857 -21.526  0.00  0.00    -0.268 N 
ATOM     11  N   UNL     1      35.080 -17.338 -23.274  0.00  0.00    -0.239 N 
ATOM     12  C   UNL     1      35.100 -16.831 -24.576  0.00  0.00    +0.234 C 
ATOM     13  C   UNL     1      34.919 -18.694 -22.927  0.00  0.00    +0.310 C 
ATOM     14  H   UNL     1      35.072 -18.033 -21.003  0.00  0.00    +0.156 HD
ATOM     15  H   UNL     1      35.189 -16.694 -22.537  0.00  0.00    +0.159 HD
BRANCH  12  16
ATOM     16  C   UNL     1      35.294 -15.327 -24.578  0.00  0.00    +0.112 C 
BRANCH  16  18
ATOM     17  F   UNL     1      32.314 -12.697 -20.603  0.00  0.00    -0.204 F 
ATOM     18  C   UNL     1      34.496 -14.621 -23.513  0.00  0.00    -0.013 C 
ATOM     19  C   UNL     1      33.435 -13.806 -23.882  0.00  0.00    -0.001 C 
ATOM     20  C   UNL     1      34.833 -14.798 -22.179  0.00  0.00    -0.001 C 
ATOM     21  C   UNL     1      32.696 -13.153 -22.895  0.00  0.00    +0.029 C 
ATOM     22  C   UNL     1      34.093 -14.145 -21.192  0.00  0.00    +0.029 C 
ATOM     23  C   UNL     1      33.025 -13.324 -21.550  0.00  0.00    +0.140 C 
ENDBRANCH  16  18
ENDBRANCH  12  16
ENDBRANCH   3  10
BRANCH   2  24
ATOM     24  O   UNL     1      34.452 -23.537 -18.594  0.00  0.00    -0.451 OA
BRANCH  24  28
ATOM     25  N   UNL     1      31.665 -22.983 -14.906  0.00  0.00    -0.297 N 
ATOM     26  N   UNL     1      34.014 -23.186 -14.409  0.00  0.00    -0.229 NA
ATOM     27  C   UNL     1      33.030 -23.249 -16.653  0.00  0.00    +0.067 C 
ATOM     28  C   UNL     1      34.293 -23.422 -17.242  0.00  0.00    +0.150 C 
ATOM     29  C   UNL     1      32.977 -23.144 -15.266  0.00  0.00    +0.135 C 
ATOM     30  C   UNL     1      31.694 -23.146 -17.125  0.00  0.00    +0.022 C 
ATOM     31  C   UNL     1      30.876 -22.984 -16.026  0.00  0.00    +0.063 C 
ATOM     32  C   UNL     1      35.402 -23.474 -16.398  0.00  0.00    +0.058 C 
ATOM     33  C   UNL     1      35.205 -23.353 -15.028  0.00  0.00    +0.103 C 
ATOM     34  H   UNL     1      31.339 -22.883 -13.982  0.00  0.00    +0.154 HD
ENDBRANCH  24  28
ENDBRANCH   2  24
TORSDOF 5
ENDMDL
MODEL 8
REMARK VINA RESULT:     -12.0      4.654      7.458
REMARK  Name = 11560856
REMARK  5 active torsions:
REMARK  status: ('A' for Active; 'I' for Inactive)
REMARK    1  A    between atoms: C_2  and  O_24
REMARK    2  A    between atoms: C_3  and  N_10
REMARK    3  A    between atoms: C_12  and  C_16
REMARK    4  A    between atoms: C_16  and  C_18
REMARK    5  A    between atoms: O_24  and  C_28
REMARK                            x       y       z     vdW  Elec       q    Type
REMARK                         _______ _______ _______ _____ _____    ______ ____
ROOT
ATOM      1  F   UNL     1      38.331 -18.327 -22.354  0.00  0.00    -0.201 F 
ATOM      2  C   UNL     1      35.993 -18.676 -22.554  0.00  0.00    +0.173 C 
ATOM      3  C   UNL     1      36.109 -20.530 -20.501  0.00  0.00    +0.054 C 
ATOM      4  C   UNL     1      37.212 -18.946 -21.955  0.00  0.00    +0.176 C 
ATOM      5  C   UNL     1      34.831 -19.311 -22.151  0.00  0.00    +0.041 C 
ATOM      6  C   UNL     1      37.270 -19.880 -20.920  0.00  0.00    +0.047 C 
ATOM      7  C   UNL     1      34.890 -20.245 -21.116  0.00  0.00    +0.018 C 
ENDROOT
BRANCH   3  10
ATOM      8  O   UNL     1      37.933 -21.987 -15.587  0.00  0.00    -0.274 OA
ATOM      9  O   UNL     1      37.549 -20.422 -17.869  0.00  0.00    -0.252 OA
ATOM     10  N   UNL     1      36.168 -21.462 -19.465  0.00  0.00    -0.268 N 
ATOM     11  N   UNL     1      36.661 -22.530 -17.466  0.00  0.00    -0.239 N 
ATOM     12  C   UNL     1      37.205 -22.764 -16.200  0.00  0.00    +0.234 C 
ATOM     13  C   UNL     1      36.860 -21.369 -18.239  0.00  0.00    +0.310 C 
ATOM     14  H   UNL     1      35.660 -22.293 -19.607  0.00  0.00    +0.156 HD
ATOM     15  H   UNL     1      36.092 -23.235 -17.850  0.00  0.00    +0.159 HD
BRANCH  12  16
ATOM     16  C   UNL     1      36.783 -24.118 -15.662  0.00  0.00    +0.112 C 
BRANCH  16  18
ATOM     17  F   UNL     1      36.312 -24.235 -10.062  0.00  0.00    -0.204 F 
ATOM     18  C   UNL     1      36.656 -24.150 -14.161  0.00  0.00    -0.013 C 
ATOM     19  C   UNL     1      37.791 -24.335 -13.384  0.00  0.00    -0.001 C 
ATOM     20  C   UNL     1      35.408 -23.993 -13.578  0.00  0.00    -0.001 C 
ATOM     21  C   UNL     1      37.674 -24.365 -11.994  0.00  0.00    +0.029 C 
ATOM     22  C   UNL     1      35.290 -24.023 -12.188  0.00  0.00    +0.029 C 
ATOM     23  C   UNL     1      36.423 -24.207 -11.397  0.00  0.00    +0.140 C 
ENDBRANCH  16  18
ENDBRANCH  12  16
ENDBRANCH   3  10
BRANCH   2  24
ATOM     24  O   UNL     1      35.935 -17.750 -23.578  0.00  0.00    -0.451 OA
BRANCH  24  28
ATOM     25  N   UNL     1      33.366 -14.186 -25.119  0.00  0.00    -0.297 N 
ATOM     26  N   UNL     1      33.908 -14.135 -22.772  0.00  0.00    -0.229 NA
ATOM     27  C   UNL     1      34.598 -15.881 -24.348  0.00  0.00    +0.067 C 
ATOM     28  C   UNL     1      35.275 -16.579 -23.334  0.00  0.00    +0.150 C 
ATOM     29  C   UNL     1      33.956 -14.698 -23.993  0.00  0.00    +0.135 C 
ATOM     30  C   UNL     1      34.375 -16.070 -25.738  0.00  0.00    +0.022 C 
ATOM     31  C   UNL     1      33.613 -15.011 -26.185  0.00  0.00    +0.063 C 
ATOM     32  C   UNL     1      35.256 -16.039 -22.049  0.00  0.00    +0.058 C 
ATOM     33  C   UNL     1      34.576 -14.847 -21.836  0.00  0.00    +0.103 C 
ATOM     34  H   UNL     1      32.843 -13.352 -25.156  0.00  0.00    +0.154 HD
ENDBRANCH  24  28
ENDBRANCH   2  24
TORSDOF 5
ENDMDL
MODEL 9
REMARK VINA RESULT:     -11.8      4.644      7.539
REMARK  Name = 11560856
REMARK  5 active torsions:
REMARK  status: ('A' for Active; 'I' for Inactive)
REMARK    1  A    between atoms: C_2  and  O_24
REMARK    2  A    between atoms: C_3  and  N_10
REMARK    3  A    between atoms: C_12  and  C_16
REMARK    4  A    between atoms: C_16  and  C_18
REMARK    5  A    between atoms: O_24  and  C_28
REMARK                            x       y       z     vdW  Elec       q    Type
REMARK                         _______ _______ _______ _____ _____    ______ ____
ROOT
ATOM      1  F   UNL     1      33.831 -19.418 -23.115  0.00  0.00    -0.201 F 
ATOM      2  C   UNL     1      36.025 -18.642 -22.656  0.00  0.00    +0.173 C 
ATOM      3  C   UNL     1      36.206 -20.441 -20.559  0.00  0.00    +0.054 C 
ATOM      4  C   UNL     1      34.951 -19.474 -22.383  0.00  0.00    +0.176 C 
ATOM      5  C   UNL     1      37.186 -18.689 -21.904  0.00  0.00    +0.041 C 
ATOM      6  C   UNL     1      35.044 -20.380 -21.327  0.00  0.00    +0.047 C 
ATOM      7  C   UNL     1      37.278 -19.596 -20.848  0.00  0.00    +0.018 C 
ENDROOT
BRANCH   3  10
ATOM      8  O   UNL     1      38.031 -21.705 -15.592  0.00  0.00    -0.274 OA
ATOM      9  O   UNL     1      37.598 -20.207 -17.909  0.00  0.00    -0.252 OA
ATOM     10  N   UNL     1      36.298 -21.349 -19.504  0.00  0.00    -0.268 N 
ATOM     11  N   UNL     1      36.818 -22.351 -17.478  0.00  0.00    -0.239 N 
ATOM     12  C   UNL     1      37.354 -22.531 -16.200  0.00  0.00    +0.234 C 
ATOM     13  C   UNL     1      36.967 -21.196 -18.271  0.00  0.00    +0.310 C 
ATOM     14  H   UNL     1      35.838 -22.208 -19.637  0.00  0.00    +0.156 HD
ATOM     15  H   UNL     1      36.292 -23.093 -17.855  0.00  0.00    +0.159 HD
BRANCH  12  16
ATOM     16  C   UNL     1      36.997 -23.895 -15.641  0.00  0.00    +0.112 C 
BRANCH  16  18
ATOM     17  F   UNL     1      41.434 -26.720 -13.658  0.00  0.00    -0.204 F 
ATOM     18  C   UNL     1      38.185 -24.653 -15.110  0.00  0.00    -0.013 C 
ATOM     19  C   UNL     1      39.319 -24.785 -15.899  0.00  0.00    -0.001 C 
ATOM     20  C   UNL     1      38.129 -25.207 -13.839  0.00  0.00    -0.001 C 
ATOM     21  C   UNL     1      40.420 -25.487 -15.407  0.00  0.00    +0.029 C 
ATOM     22  C   UNL     1      39.230 -25.908 -13.347  0.00  0.00    +0.029 C 
ATOM     23  C   UNL     1      40.375 -26.047 -14.130  0.00  0.00    +0.140 C 
ENDBRANCH  16  18
ENDBRANCH  12  16
ENDBRANCH   3  10
BRANCH   2  24
ATOM     24  O   UNL     1      35.934 -17.745 -23.702  0.00  0.00    -0.451 OA
BRANCH  24  28
ATOM     25  N   UNL     1      33.454 -14.131 -25.273  0.00  0.00    -0.297 N 
ATOM     26  N   UNL     1      33.964 -14.093 -22.919  0.00  0.00    -0.229 NA
ATOM     27  C   UNL     1      34.643 -15.850 -24.488  0.00  0.00    +0.067 C 
ATOM     28  C   UNL     1      35.292 -16.562 -23.466  0.00  0.00    +0.150 C 
ATOM     29  C   UNL     1      34.018 -14.656 -24.140  0.00  0.00    +0.135 C 
ATOM     30  C   UNL     1      34.436 -16.033 -25.881  0.00  0.00    +0.022 C 
ATOM     31  C   UNL     1      33.700 -14.959 -26.336  0.00  0.00    +0.063 C 
ATOM     32  C   UNL     1      35.266 -16.023 -22.180  0.00  0.00    +0.058 C 
ATOM     33  C   UNL     1      34.606 -14.819 -21.974  0.00  0.00    +0.103 C 
ATOM     34  H   UNL     1      32.947 -13.287 -25.316  0.00  0.00    +0.154 HD
ENDBRANCH  24  28
ENDBRANCH   2  24
TORSDOF 5
ENDMDL
