MODEL 1
REMARK VINA RESULT:     -10.8      0.000      0.000
REMARK  Name = 53338808
REMARK  2 active torsions:
REMARK  status: ('A' for Active; 'I' for Inactive)
REMARK    1  A    between atoms: C_3  and  C_15
REMARK    2  A    between atoms: C_5  and  C_23
REMARK                            x       y       z     vdW  Elec       q    Type
REMARK                         _______ _______ _______ _____ _____    ______ ____
ROOT
ATOM      1  N   UNL     1      33.428 -22.173 -18.501  0.00  0.00    -0.228 N 
ATOM      2  N   UNL     1      32.342 -22.544 -17.770  0.00  0.00    -0.165 NA
ATOM      3  C   UNL     1      34.242 -23.357 -16.798  0.00  0.00    +0.056 A 
ATOM      4  C   UNL     1      34.605 -22.660 -17.923  0.00  0.00    +0.086 A 
ATOM      5  C   UNL     1      32.844 -23.250 -16.756  0.00  0.00    +0.104 A 
ATOM      6  C   UNL     1      35.841 -22.362 -18.564  0.00  0.00    +0.019 C 
ATOM      7  C   UNL     1      33.444 -21.410 -19.674  0.00  0.00    +0.100 C 
ATOM      8  C   UNL     1      35.845 -21.628 -19.692  0.00  0.00    +0.003 C 
ATOM      9  C   UNL     1      34.611 -21.131 -20.275  0.00  0.00    +0.021 C 
ENDROOT
BRANCH   3  15
ATOM     10  N   UNL     1      35.399 -25.325 -16.200  0.00  0.00    -0.146 NA
ATOM     11  N   UNL     1      37.708 -25.883 -13.534  0.00  0.00    -0.257 N 
ATOM     12  N   UNL     1      36.236 -26.031 -15.455  0.00  0.00    -0.129 NA
ATOM     13  N   UNL     1      38.114 -24.979 -12.623  0.00  0.00    -0.157 NA
ATOM     14  N   UNL     1      37.539 -22.669 -12.336  0.00  0.00    -0.341 N 
ATOM     15  C   UNL     1      35.165 -24.016 -15.919  0.00  0.00    +0.106 C 
ATOM     16  C   UNL     1      35.747 -23.310 -14.875  0.00  0.00    +0.027 C 
ATOM     17  C   UNL     1      36.626 -24.055 -14.094  0.00  0.00    +0.071 A 
ATOM     18  C   UNL     1      36.819 -25.381 -14.435  0.00  0.00    +0.180 A 
ATOM     19  C   UNL     1      37.452 -23.869 -12.968  0.00  0.00    +0.148 A 
ATOM     20  H   UNL     1      38.023 -26.815 -13.548  0.00  0.00    +0.191 HD
ATOM     21  H   UNL     1      38.126 -22.568 -11.551  0.00  0.00    +0.144 HD
ATOM     22  H   UNL     1      37.017 -21.902 -12.662  0.00  0.00    +0.144 HD
ENDBRANCH   3  15
BRANCH   5  23
ATOM     23  C   UNL     1      31.959 -23.810 -15.766  0.00  0.00    +0.019 C 
ATOM     24  C   UNL     1      32.053 -23.400 -14.436  0.00  0.00    +0.002 C 
ATOM     25  C   UNL     1      31.009 -24.761 -16.137  0.00  0.00    +0.002 C 
ATOM     26  C   UNL     1      31.196 -23.940 -13.477  0.00  0.00    +0.000 C 
ATOM     27  C   UNL     1      30.152 -25.302 -15.178  0.00  0.00    +0.000 C 
ATOM     28  C   UNL     1      30.246 -24.891 -13.848  0.00  0.00    +0.000 C 
ENDBRANCH   5  23
TORSDOF 2
ENDMDL
MODEL 2
REMARK VINA RESULT:     -10.2      2.175      5.322
REMARK  Name = 53338808
REMARK  2 active torsions:
REMARK  status: ('A' for Active; 'I' for Inactive)
REMARK    1  A    between atoms: C_3  and  C_15
REMARK    2  A    between atoms: C_5  and  C_23
REMARK                            x       y       z     vdW  Elec       q    Type
REMARK                         _______ _______ _______ _____ _____    ______ ____
ROOT
ATOM      1  N   UNL     1      35.847 -22.410 -17.944  0.00  0.00    -0.228 N 
ATOM      2  N   UNL     1      36.661 -22.841 -16.942  0.00  0.00    -0.165 NA
ATOM      3  C   UNL     1      34.499 -23.426 -16.490  0.00  0.00    +0.056 A 
ATOM      4  C   UNL     1      34.517 -22.757 -17.689  0.00  0.00    +0.086 A 
ATOM      5  C   UNL     1      35.841 -23.446 -16.081  0.00  0.00    +0.104 A 
ATOM      6  C   UNL     1      33.530 -22.381 -18.642  0.00  0.00    +0.019 C 
ATOM      7  C   UNL     1      36.218 -21.712 -19.100  0.00  0.00    +0.100 C 
ATOM      8  C   UNL     1      33.896 -21.710 -19.750  0.00  0.00    +0.003 C 
ATOM      9  C   UNL     1      35.284 -21.359 -19.997  0.00  0.00    +0.021 C 
ENDROOT
BRANCH   3  15
ATOM     10  N   UNL     1      33.525 -24.658 -14.730  0.00  0.00    -0.146 NA
ATOM     11  N   UNL     1      30.091 -25.423 -14.121  0.00  0.00    -0.257 N 
ATOM     12  N   UNL     1      32.503 -25.188 -14.074  0.00  0.00    -0.129 NA
ATOM     13  N   UNL     1      29.040 -25.055 -14.879  0.00  0.00    -0.157 NA
ATOM     14  N   UNL     1      28.936 -23.774 -16.902  0.00  0.00    -0.341 N 
ATOM     15  C   UNL     1      33.317 -23.952 -15.873  0.00  0.00    +0.106 C 
ATOM     16  C   UNL     1      32.075 -23.720 -16.450  0.00  0.00    +0.027 C 
ATOM     17  C   UNL     1      31.004 -24.280 -15.758  0.00  0.00    +0.071 A 
ATOM     18  C   UNL     1      31.286 -24.984 -14.603  0.00  0.00    +0.180 A 
ATOM     19  C   UNL     1      29.603 -24.360 -15.873  0.00  0.00    +0.148 A 
ATOM     20  H   UNL     1      30.003 -25.956 -13.298  0.00  0.00    +0.191 HD
ATOM     21  H   UNL     1      27.955 -23.847 -16.957  0.00  0.00    +0.144 HD
ATOM     22  H   UNL     1      29.431 -23.277 -17.591  0.00  0.00    +0.144 HD
ENDBRANCH   3  15
BRANCH   5  23
ATOM     23  C   UNL     1      36.374 -24.031 -14.877  0.00  0.00    +0.019 C 
ATOM     24  C   UNL     1      36.791 -25.362 -14.875  0.00  0.00    +0.002 C 
ATOM     25  C   UNL     1      36.474 -23.268 -13.714  0.00  0.00    +0.002 C 
ATOM     26  C   UNL     1      37.307 -25.930 -13.710  0.00  0.00    +0.000 C 
ATOM     27  C   UNL     1      36.990 -23.835 -12.549  0.00  0.00    +0.000 C 
ATOM     28  C   UNL     1      37.407 -25.166 -12.547  0.00  0.00    +0.000 C 
ENDBRANCH   5  23
TORSDOF 2
ENDMDL
MODEL 3
REMARK VINA RESULT:     -10.1      2.152      5.747
REMARK  Name = 53338808
REMARK  2 active torsions:
REMARK  status: ('A' for Active; 'I' for Inactive)
REMARK    1  A    between atoms: C_3  and  C_15
REMARK    2  A    between atoms: C_5  and  C_23
REMARK                            x       y       z     vdW  Elec       q    Type
REMARK                         _______ _______ _______ _____ _____    ______ ____
ROOT
ATOM      1  N   UNL     1      32.319 -24.648 -14.263  0.00  0.00    -0.228 N 
ATOM      2  N   UNL     1      33.534 -25.003 -13.764  0.00  0.00    -0.165 NA
ATOM      3  C   UNL     1      33.798 -23.970 -15.785  0.00  0.00    +0.056 A 
ATOM      4  C   UNL     1      32.456 -24.013 -15.502  0.00  0.00    +0.086 A 
ATOM      5  C   UNL     1      34.408 -24.591 -14.684  0.00  0.00    +0.104 A 
ATOM      6  C   UNL     1      31.276 -23.574 -16.166  0.00  0.00    +0.019 C 
ATOM      7  C   UNL     1      31.066 -24.855 -13.676  0.00  0.00    +0.100 C 
ATOM      8  C   UNL     1      30.075 -23.779 -15.593  0.00  0.00    +0.003 C 
ATOM      9  C   UNL     1      29.955 -24.439 -14.305  0.00  0.00    +0.021 C 
ENDROOT
BRANCH   3  15
ATOM     10  N   UNL     1      33.772 -23.780 -18.136  0.00  0.00    -0.146 NA
ATOM     11  N   UNL     1      35.855 -21.831 -20.283  0.00  0.00    -0.257 N 
ATOM     12  N   UNL     1      34.206 -23.308 -19.296  0.00  0.00    -0.129 NA
ATOM     13  N   UNL     1      36.861 -21.021 -19.905  0.00  0.00    -0.157 NA
ATOM     14  N   UNL     1      37.721 -20.495 -17.730  0.00  0.00    -0.341 N 
ATOM     15  C   UNL     1      34.358 -23.394 -16.973  0.00  0.00    +0.106 C 
ATOM     16  C   UNL     1      35.423 -22.508 -16.875  0.00  0.00    +0.027 C 
ATOM     17  C   UNL     1      35.877 -22.015 -18.095  0.00  0.00    +0.071 A 
ATOM     18  C   UNL     1      35.235 -22.448 -19.240  0.00  0.00    +0.180 A 
ATOM     19  C   UNL     1      36.870 -21.137 -18.572  0.00  0.00    +0.148 A 
ATOM     20  H   UNL     1      35.593 -21.964 -21.223  0.00  0.00    +0.191 HD
ATOM     21  H   UNL     1      38.406 -19.886 -18.092  0.00  0.00    +0.144 HD
ATOM     22  H   UNL     1      37.654 -20.637 -16.759  0.00  0.00    +0.144 HD
ENDBRANCH   3  15
BRANCH   5  23
ATOM     23  C   UNL     1      35.818 -24.809 -14.480  0.00  0.00    +0.019 C 
ATOM     24  C   UNL     1      36.525 -24.002 -13.589  0.00  0.00    +0.002 C 
ATOM     25  C   UNL     1      36.475 -25.825 -15.173  0.00  0.00    +0.002 C 
ATOM     26  C   UNL     1      37.890 -24.213 -13.390  0.00  0.00    +0.000 C 
ATOM     27  C   UNL     1      37.840 -26.035 -14.974  0.00  0.00    +0.000 C 
ATOM     28  C   UNL     1      38.547 -25.229 -14.083  0.00  0.00    +0.000 C 
ENDBRANCH   5  23
TORSDOF 2
ENDMDL
MODEL 4
REMARK VINA RESULT:     -10.1      2.295      6.151
REMARK  Name = 53338808
REMARK  2 active torsions:
REMARK  status: ('A' for Active; 'I' for Inactive)
REMARK    1  A    between atoms: C_3  and  C_15
REMARK    2  A    between atoms: C_5  and  C_23
REMARK                            x       y       z     vdW  Elec       q    Type
REMARK                         _______ _______ _______ _____ _____    ______ ____
ROOT
ATOM      1  N   UNL     1      32.006 -24.498 -14.842  0.00  0.00    -0.228 N 
ATOM      2  N   UNL     1      33.178 -24.908 -14.287  0.00  0.00    -0.165 NA
ATOM      3  C   UNL     1      33.600 -23.676 -16.164  0.00  0.00    +0.056 A 
ATOM      4  C   UNL     1      32.239 -23.741 -15.994  0.00  0.00    +0.086 A 
ATOM      5  C   UNL     1      34.121 -24.409 -15.087  0.00  0.00    +0.104 A 
ATOM      6  C   UNL     1      31.115 -23.231 -16.702  0.00  0.00    +0.019 C 
ATOM      7  C   UNL     1      30.710 -24.757 -14.380  0.00  0.00    +0.100 C 
ATOM      8  C   UNL     1      29.873 -23.486 -16.250  0.00  0.00    +0.003 C 
ATOM      9  C   UNL     1      29.652 -24.274 -15.050  0.00  0.00    +0.021 C 
ENDROOT
BRANCH   3  15
ATOM     10  N   UNL     1      35.608 -22.955 -17.170  0.00  0.00    -0.146 NA
ATOM     11  N   UNL     1      36.103 -21.097 -20.179  0.00  0.00    -0.257 N 
ATOM     12  N   UNL     1      36.313 -22.345 -18.112  0.00  0.00    -0.129 NA
ATOM     13  N   UNL     1      35.144 -20.641 -21.007  0.00  0.00    -0.157 NA
ATOM     14  N   UNL     1      32.757 -20.833 -20.902  0.00  0.00    -0.341 N 
ATOM     15  C   UNL     1      34.251 -22.984 -17.239  0.00  0.00    +0.106 C 
ATOM     16  C   UNL     1      33.492 -22.409 -18.249  0.00  0.00    +0.027 C 
ATOM     17  C   UNL     1      34.237 -21.768 -19.235  0.00  0.00    +0.071 A 
ATOM     18  C   UNL     1      35.613 -21.776 -19.106  0.00  0.00    +0.180 A 
ATOM     19  C   UNL     1      34.011 -21.053 -20.428  0.00  0.00    +0.148 A 
ATOM     20  H   UNL     1      37.064 -20.952 -20.334  0.00  0.00    +0.191 HD
ATOM     21  H   UNL     1      32.629 -20.329 -21.739  0.00  0.00    +0.144 HD
ATOM     22  H   UNL     1      31.977 -21.176 -20.411  0.00  0.00    +0.144 HD
ENDBRANCH   3  15
BRANCH   5  23
ATOM     23  C   UNL     1      35.512 -24.654 -14.795  0.00  0.00    +0.019 C 
ATOM     24  C   UNL     1      36.147 -25.777 -15.323  0.00  0.00    +0.002 C 
ATOM     25  C   UNL     1      36.221 -23.767 -13.986  0.00  0.00    +0.002 C 
ATOM     26  C   UNL     1      37.493 -26.014 -15.041  0.00  0.00    +0.000 C 
ATOM     27  C   UNL     1      37.566 -24.004 -13.704  0.00  0.00    +0.000 C 
ATOM     28  C   UNL     1      38.202 -25.127 -14.232  0.00  0.00    +0.000 C 
ENDBRANCH   5  23
TORSDOF 2
ENDMDL
MODEL 5
REMARK VINA RESULT:      -9.6      2.370      5.041
REMARK  Name = 53338808
REMARK  2 active torsions:
REMARK  status: ('A' for Active; 'I' for Inactive)
REMARK    1  A    between atoms: C_3  and  C_15
REMARK    2  A    between atoms: C_5  and  C_23
REMARK                            x       y       z     vdW  Elec       q    Type
REMARK                         _______ _______ _______ _____ _____    ______ ____
ROOT
ATOM      1  N   UNL     1      35.879 -21.940 -18.718  0.00  0.00    -0.228 N 
ATOM      2  N   UNL     1      36.536 -22.520 -17.676  0.00  0.00    -0.165 NA
ATOM      3  C   UNL     1      34.282 -22.783 -17.413  0.00  0.00    +0.056 A 
ATOM      4  C   UNL     1      34.496 -22.089 -18.578  0.00  0.00    +0.086 A 
ATOM      5  C   UNL     1      35.568 -23.019 -16.906  0.00  0.00    +0.104 A 
ATOM      6  C   UNL     1      33.656 -21.539 -19.587  0.00  0.00    +0.019 C 
ATOM      7  C   UNL     1      36.442 -21.273 -19.812  0.00  0.00    +0.100 C 
ATOM      8  C   UNL     1      34.207 -20.898 -20.635  0.00  0.00    +0.003 C 
ATOM      9  C   UNL     1      35.647 -20.755 -20.761  0.00  0.00    +0.021 C 
ENDROOT
BRANCH   3  15
ATOM     10  N   UNL     1      31.935 -22.643 -17.610  0.00  0.00    -0.146 NA
ATOM     11  N   UNL     1      29.392 -24.104 -15.573  0.00  0.00    -0.257 N 
ATOM     12  N   UNL     1      30.693 -22.913 -17.235  0.00  0.00    -0.129 NA
ATOM     13  N   UNL     1      29.580 -24.879 -14.488  0.00  0.00    -0.157 NA
ATOM     14  N   UNL     1      31.593 -25.636 -13.428  0.00  0.00    -0.341 N 
ATOM     15  C   UNL     1      32.987 -23.142 -16.910  0.00  0.00    +0.106 C 
ATOM     16  C   UNL     1      32.884 -23.947 -15.783  0.00  0.00    +0.027 C 
ATOM     17  C   UNL     1      31.578 -24.228 -15.393  0.00  0.00    +0.071 A 
ATOM     18  C   UNL     1      30.554 -23.690 -16.150  0.00  0.00    +0.180 A 
ATOM     19  C   UNL     1      30.912 -24.950 -14.383  0.00  0.00    +0.148 A 
ATOM     20  H   UNL     1      28.502 -23.861 -15.915  0.00  0.00    +0.191 HD
ATOM     21  H   UNL     1      31.101 -26.132 -12.734  0.00  0.00    +0.144 HD
ATOM     22  H   UNL     1      32.577 -25.637 -13.429  0.00  0.00    +0.144 HD
ENDBRANCH   3  15
BRANCH   5  23
ATOM     23  C   UNL     1      35.908 -23.715 -15.690  0.00  0.00    +0.019 C 
ATOM     24  C   UNL     1      36.115 -25.094 -15.712  0.00  0.00    +0.002 C 
ATOM     25  C   UNL     1      36.031 -23.010 -14.493  0.00  0.00    +0.002 C 
ATOM     26  C   UNL     1      36.445 -25.768 -14.536  0.00  0.00    +0.000 C 
ATOM     27  C   UNL     1      36.362 -23.684 -13.317  0.00  0.00    +0.000 C 
ATOM     28  C   UNL     1      36.568 -25.063 -13.339  0.00  0.00    +0.000 C 
ENDBRANCH   5  23
TORSDOF 2
ENDMDL
MODEL 6
REMARK VINA RESULT:      -8.7     12.407     15.666
REMARK  Name = 53338808
REMARK  2 active torsions:
REMARK  status: ('A' for Active; 'I' for Inactive)
REMARK    1  A    between atoms: C_3  and  C_15
REMARK    2  A    between atoms: C_5  and  C_23
REMARK                            x       y       z     vdW  Elec       q    Type
REMARK                         _______ _______ _______ _____ _____    ______ ____
ROOT
ATOM      1  N   UNL     1      33.227 -13.760 -24.669  0.00  0.00    -0.228 N 
ATOM      2  N   UNL     1      32.739 -13.803 -23.399  0.00  0.00    -0.165 NA
ATOM      3  C   UNL     1      33.360 -11.667 -23.917  0.00  0.00    +0.056 A 
ATOM      4  C   UNL     1      33.614 -12.459 -25.008  0.00  0.00    +0.086 A 
ATOM      5  C   UNL     1      32.825 -12.546 -22.963  0.00  0.00    +0.104 A 
ATOM      6  C   UNL     1      34.148 -12.236 -26.308  0.00  0.00    +0.019 C 
ATOM      7  C   UNL     1      33.352 -14.824 -25.569  0.00  0.00    +0.100 C 
ATOM      8  C   UNL     1      34.265 -13.266 -27.166  0.00  0.00    +0.003 C 
ATOM      9  C   UNL     1      33.856 -14.609 -26.794  0.00  0.00    +0.021 C 
ENDROOT
BRANCH   3  15
ATOM     10  N   UNL     1      34.919  -9.900 -24.035  0.00  0.00    -0.146 NA
ATOM     11  N   UNL     1      34.394  -6.382 -23.724  0.00  0.00    -0.257 N 
ATOM     12  N   UNL     1      35.273  -8.623 -24.004  0.00  0.00    -0.129 NA
ATOM     13  N   UNL     1      33.219  -5.762 -23.504  0.00  0.00    -0.157 NA
ATOM     14  N   UNL     1      31.007  -6.643 -23.228  0.00  0.00    -0.341 N 
ATOM     15  C   UNL     1      33.619 -10.257 -23.861  0.00  0.00    +0.106 C 
ATOM     16  C   UNL     1      32.573  -9.371 -23.643  0.00  0.00    +0.027 C 
ATOM     17  C   UNL     1      32.949  -8.031 -23.612  0.00  0.00    +0.071 A 
ATOM     18  C   UNL     1      34.286  -7.737 -23.797  0.00  0.00    +0.180 A 
ATOM     19  C   UNL     1      32.344  -6.771 -23.436  0.00  0.00    +0.148 A 
ATOM     20  H   UNL     1      35.248  -5.901 -23.822  0.00  0.00    +0.191 HD
ATOM     21  H   UNL     1      30.611  -5.749 -23.109  0.00  0.00    +0.144 HD
ATOM     22  H   UNL     1      30.434  -7.443 -23.196  0.00  0.00    +0.144 HD
ENDBRANCH   3  15
BRANCH   5  23
ATOM     23  C   UNL     1      32.388 -12.219 -21.629  0.00  0.00    +0.019 C 
ATOM     24  C   UNL     1      32.684 -13.077 -20.570  0.00  0.00    +0.002 C 
ATOM     25  C   UNL     1      31.669 -11.047 -21.397  0.00  0.00    +0.002 C 
ATOM     26  C   UNL     1      32.262 -12.761 -19.278  0.00  0.00    +0.000 C 
ATOM     27  C   UNL     1      31.248 -10.731 -20.106  0.00  0.00    +0.000 C 
ATOM     28  C   UNL     1      31.544 -11.588 -19.047  0.00  0.00    +0.000 C 
ENDBRANCH   5  23
TORSDOF 2
ENDMDL
