MODEL 1
REMARK VINA RESULT:     -12.2      0.000      0.000
REMARK  Name = 10157080
REMARK  5 active torsions:
REMARK  status: ('A' for Active; 'I' for Inactive)
REMARK    1  A    between atoms: C_3  and  O_8
REMARK    2  A    between atoms: C_6  and  O_18
REMARK    3  A    between atoms: O_8  and  C_13
REMARK    4  A    between atoms: O_18  and  C_20
REMARK    5  A    between atoms: C_19  and  N_25
REMARK                            x       y       z     vdW  Elec       q    Type
REMARK                         _______ _______ _______ _____ _____    ______ ____
ROOT
ATOM      1  N   UNL     1      34.803 -23.232 -17.107  0.00  0.00    -0.277 NA
ATOM      2  N   UNL     1      32.484 -23.207 -17.766  0.00  0.00    -0.319 NA
ATOM      3  C   UNL     1      34.389 -23.156 -15.832  0.00  0.00    +0.278 C 
ATOM      4  C   UNL     1      33.075 -23.100 -15.435  0.00  0.00    +0.156 C 
ATOM      5  C   UNL     1      32.152 -23.130 -16.461  0.00  0.00    +0.113 C 
ATOM      6  C   UNL     1      33.808 -23.253 -18.014  0.00  0.00    +0.317 C 
ATOM      7  C   UNL     1      30.696 -23.076 -16.141  0.00  0.00    +0.063 C 
ENDROOT
BRANCH   3   8
ATOM      8  O   UNL     1      35.377 -23.134 -14.863  0.00  0.00    -0.429 OA
BRANCH   8  13
ATOM      9  O   UNL     1      39.966 -24.613 -14.963  0.00  0.00    -0.435 OA
ATOM     10  O   UNL     1      39.307 -26.929 -15.057  0.00  0.00    -0.435 OA
ATOM     11  C   UNL     1      38.614 -24.766 -14.959  0.00  0.00    +0.179 C 
ATOM     12  C   UNL     1      38.237 -26.089 -15.012  0.00  0.00    +0.177 C 
ATOM     13  C   UNL     1      36.333 -24.104 -14.913  0.00  0.00    +0.151 C 
ATOM     14  C   UNL     1      37.683 -23.749 -14.908  0.00  0.00    +0.078 C 
ATOM     15  C   UNL     1      36.910 -26.467 -15.019  0.00  0.00    +0.043 C 
ATOM     16  C   UNL     1      35.948 -25.456 -14.968  0.00  0.00    +0.041 C 
ATOM     17  C   UNL     1      40.398 -25.987 -15.025  0.00  0.00    +0.429 C 
ENDBRANCH   8  13
ENDBRANCH   3   8
BRANCH   6  18
ATOM     18  O   UNL     1      34.183 -23.328 -19.335  0.00  0.00    -0.375 OA
BRANCH  18  20
ATOM     19  C   UNL     1      34.953 -19.749 -21.291  0.00  0.00    +0.057 C 
ATOM     20  C   UNL     1      34.439 -22.140 -19.984  0.00  0.00    +0.161 C 
ATOM     21  C   UNL     1      33.637 -20.147 -21.058  0.00  0.00    +0.018 C 
ATOM     22  C   UNL     1      36.010 -20.554 -20.867  0.00  0.00    +0.018 C 
ATOM     23  C   UNL     1      33.377 -21.350 -20.400  0.00  0.00    +0.040 C 
ATOM     24  C   UNL     1      35.752 -21.756 -20.209  0.00  0.00    +0.040 C 
BRANCH  19  25
ATOM     25  N   UNL     1      35.210 -18.557 -21.944  0.00  0.00    -0.246 N 
ATOM     26  N   UNL     1      35.529 -16.373 -22.258  0.00  0.00    -0.224 NA
ATOM     27  C   UNL     1      35.462 -18.394 -23.283  0.00  0.00    +0.092 C 
ATOM     28  C   UNL     1      35.261 -17.309 -21.375  0.00  0.00    +0.172 C 
ATOM     29  C   UNL     1      35.654 -17.043 -23.449  0.00  0.00    +0.117 C 
ENDBRANCH  19  25
ENDBRANCH  18  20
ENDBRANCH   6  18
TORSDOF 5
ENDMDL
MODEL 2
REMARK VINA RESULT:     -11.6      4.060      7.966
REMARK  Name = 10157080
REMARK  5 active torsions:
REMARK  status: ('A' for Active; 'I' for Inactive)
REMARK    1  A    between atoms: C_3  and  O_8
REMARK    2  A    between atoms: C_6  and  O_18
REMARK    3  A    between atoms: O_8  and  C_13
REMARK    4  A    between atoms: O_18  and  C_20
REMARK    5  A    between atoms: C_19  and  N_25
REMARK                            x       y       z     vdW  Elec       q    Type
REMARK                         _______ _______ _______ _____ _____    ______ ____
ROOT
ATOM      1  N   UNL     1      35.980 -17.596 -22.609  0.00  0.00    -0.277 NA
ATOM      2  N   UNL     1      34.720 -17.331 -24.646  0.00  0.00    -0.319 NA
ATOM      3  C   UNL     1      35.706 -18.909 -22.669  0.00  0.00    +0.278 C 
ATOM      4  C   UNL     1      34.963 -19.511 -23.655  0.00  0.00    +0.156 C 
ATOM      5  C   UNL     1      34.489 -18.660 -24.633  0.00  0.00    +0.113 C 
ATOM      6  C   UNL     1      35.461 -16.872 -23.619  0.00  0.00    +0.317 C 
ATOM      7  C   UNL     1      33.670 -19.210 -25.752  0.00  0.00    +0.063 C 
ENDROOT
BRANCH   3   8
ATOM      8  O   UNL     1      36.221 -19.694 -21.652  0.00  0.00    -0.429 OA
BRANCH   8  13
ATOM      9  O   UNL     1      35.145 -23.037 -18.347  0.00  0.00    -0.435 OA
ATOM     10  O   UNL     1      32.786 -22.577 -18.527  0.00  0.00    -0.435 OA
ATOM     11  C   UNL     1      34.876 -22.056 -19.252  0.00  0.00    +0.179 C 
ATOM     12  C   UNL     1      33.529 -21.793 -19.354  0.00  0.00    +0.177 C 
ATOM     13  C   UNL     1      35.339 -20.396 -20.887  0.00  0.00    +0.151 C 
ATOM     14  C   UNL     1      35.808 -21.373 -20.006  0.00  0.00    +0.078 C 
ATOM     15  C   UNL     1      33.040 -20.834 -20.217  0.00  0.00    +0.043 C 
ATOM     16  C   UNL     1      33.963 -20.127 -20.992  0.00  0.00    +0.041 C 
ATOM     17  C   UNL     1      33.815 -23.361 -17.891  0.00  0.00    +0.429 C 
ENDBRANCH   8  13
ENDBRANCH   3   8
BRANCH   6  18
ATOM     18  O   UNL     1      35.714 -15.520 -23.599  0.00  0.00    -0.375 OA
BRANCH  18  20
ATOM     19  C   UNL     1      33.021 -13.121 -21.545  0.00  0.00    +0.057 C 
ATOM     20  C   UNL     1      34.820 -14.724 -22.917  0.00  0.00    +0.161 C 
ATOM     21  C   UNL     1      33.227 -12.926 -22.911  0.00  0.00    +0.018 C 
ATOM     22  C   UNL     1      33.719 -14.122 -20.870  0.00  0.00    +0.018 C 
ATOM     23  C   UNL     1      34.132 -13.733 -23.602  0.00  0.00    +0.040 C 
ATOM     24  C   UNL     1      34.624 -14.929 -21.559  0.00  0.00    +0.040 C 
BRANCH  19  25
ATOM     25  N   UNL     1      32.125 -12.320 -20.860  0.00  0.00    -0.246 N 
ATOM     26  N   UNL     1      31.101 -11.313 -19.155  0.00  0.00    -0.224 NA
ATOM     27  C   UNL     1      31.125 -11.557 -21.408  0.00  0.00    +0.092 C 
ATOM     28  C   UNL     1      32.065 -12.137 -19.501  0.00  0.00    +0.172 C 
ATOM     29  C   UNL     1      30.511 -10.949 -20.339  0.00  0.00    +0.117 C 
ENDBRANCH  19  25
ENDBRANCH  18  20
ENDBRANCH   6  18
TORSDOF 5
ENDMDL
MODEL 3
REMARK VINA RESULT:     -11.4      2.530      5.487
REMARK  Name = 10157080
REMARK  5 active torsions:
REMARK  status: ('A' for Active; 'I' for Inactive)
REMARK    1  A    between atoms: C_3  and  O_8
REMARK    2  A    between atoms: C_6  and  O_18
REMARK    3  A    between atoms: O_8  and  C_13
REMARK    4  A    between atoms: O_18  and  C_20
REMARK    5  A    between atoms: C_19  and  N_25
REMARK                            x       y       z     vdW  Elec       q    Type
REMARK                         _______ _______ _______ _____ _____    ______ ____
ROOT
ATOM      1  N   UNL     1      33.536 -23.512 -16.606  0.00  0.00    -0.277 NA
ATOM      2  N   UNL     1      35.826 -23.034 -17.189  0.00  0.00    -0.319 NA
ATOM      3  C   UNL     1      33.897 -23.420 -15.316  0.00  0.00    +0.278 C 
ATOM      4  C   UNL     1      35.169 -23.147 -14.875  0.00  0.00    +0.156 C 
ATOM      5  C   UNL     1      36.107 -22.960 -15.871  0.00  0.00    +0.113 C 
ATOM      6  C   UNL     1      34.540 -23.310 -17.480  0.00  0.00    +0.317 C 
ATOM      7  C   UNL     1      37.520 -22.658 -15.502  0.00  0.00    +0.063 C 
ENDROOT
BRANCH   3   8
ATOM      8  O   UNL     1      32.898 -23.618 -14.379  0.00  0.00    -0.429 OA
BRANCH   8  13
ATOM      9  O   UNL     1      28.881 -22.026 -16.521  0.00  0.00    -0.435 OA
ATOM     10  O   UNL     1      27.795 -24.162 -16.264  0.00  0.00    -0.435 OA
ATOM     11  C   UNL     1      29.678 -22.939 -15.902  0.00  0.00    +0.179 C 
ATOM     12  C   UNL     1      29.058 -24.159 -15.755  0.00  0.00    +0.177 C 
ATOM     13  C   UNL     1      31.626 -23.785 -14.838  0.00  0.00    +0.151 C 
ATOM     14  C   UNL     1      30.964 -22.721 -15.453  0.00  0.00    +0.078 C 
ATOM     15  C   UNL     1      29.689 -25.227 -15.151  0.00  0.00    +0.043 C 
ATOM     16  C   UNL     1      30.993 -25.032 -14.688  0.00  0.00    +0.041 C 
ATOM     17  C   UNL     1      27.691 -22.808 -16.748  0.00  0.00    +0.429 C 
ENDBRANCH   8  13
ENDBRANCH   3   8
BRANCH   6  18
ATOM     18  O   UNL     1      34.218 -23.397 -18.815  0.00  0.00    -0.375 OA
BRANCH  18  20
ATOM     19  C   UNL     1      34.947 -20.053 -21.163  0.00  0.00    +0.057 C 
ATOM     20  C   UNL     1      34.460 -22.287 -19.594  0.00  0.00    +0.161 C 
ATOM     21  C   UNL     1      33.640 -20.380 -20.802  0.00  0.00    +0.018 C 
ATOM     22  C   UNL     1      36.009 -20.849 -20.734  0.00  0.00    +0.018 C 
ATOM     23  C   UNL     1      33.394 -21.504 -20.012  0.00  0.00    +0.040 C 
ATOM     24  C   UNL     1      35.764 -21.972 -19.944  0.00  0.00    +0.040 C 
BRANCH  19  25
ATOM     25  N   UNL     1      35.189 -18.939 -21.946  0.00  0.00    -0.246 N 
ATOM     26  N   UNL     1      35.370 -17.661 -23.764  0.00  0.00    -0.224 NA
ATOM     27  C   UNL     1      35.594 -17.703 -21.508  0.00  0.00    +0.092 C 
ATOM     28  C   UNL     1      35.071 -18.858 -23.311  0.00  0.00    +0.172 C 
ATOM     29  C   UNL     1      35.697 -16.937 -22.645  0.00  0.00    +0.117 C 
ENDBRANCH  19  25
ENDBRANCH  18  20
ENDBRANCH   6  18
TORSDOF 5
ENDMDL
MODEL 4
REMARK VINA RESULT:     -11.0      3.727      7.519
REMARK  Name = 10157080
REMARK  5 active torsions:
REMARK  status: ('A' for Active; 'I' for Inactive)
REMARK    1  A    between atoms: C_3  and  O_8
REMARK    2  A    between atoms: C_6  and  O_18
REMARK    3  A    between atoms: O_8  and  C_13
REMARK    4  A    between atoms: O_18  and  C_20
REMARK    5  A    between atoms: C_19  and  N_25
REMARK                            x       y       z     vdW  Elec       q    Type
REMARK                         _______ _______ _______ _____ _____    ______ ____
ROOT
ATOM      1  N   UNL     1      34.561 -24.386 -14.771  0.00  0.00    -0.277 NA
ATOM      2  N   UNL     1      35.055 -24.027 -12.439  0.00  0.00    -0.319 NA
ATOM      3  C   UNL     1      35.779 -23.896 -15.053  0.00  0.00    +0.278 C 
ATOM      4  C   UNL     1      36.683 -23.456 -14.117  0.00  0.00    +0.156 C 
ATOM      5  C   UNL     1      36.261 -23.546 -12.807  0.00  0.00    +0.113 C 
ATOM      6  C   UNL     1      34.267 -24.423 -13.458  0.00  0.00    +0.317 C 
ATOM      7  C   UNL     1      37.166 -23.096 -11.710  0.00  0.00    +0.063 C 
ENDROOT
BRANCH   3   8
ATOM      8  O   UNL     1      36.128 -23.841 -16.391  0.00  0.00    -0.429 OA
BRANCH   8  13
ATOM      9  O   UNL     1      35.131 -20.945 -20.116  0.00  0.00    -0.435 OA
ATOM     10  O   UNL     1      32.761 -21.319 -19.882  0.00  0.00    -0.435 OA
ATOM     11  C   UNL     1      34.839 -21.789 -19.088  0.00  0.00    +0.179 C 
ATOM     12  C   UNL     1      33.486 -22.003 -18.955  0.00  0.00    +0.177 C 
ATOM     13  C   UNL     1      35.263 -23.226 -17.245  0.00  0.00    +0.151 C 
ATOM     14  C   UNL     1      35.755 -22.388 -18.248  0.00  0.00    +0.078 C 
ATOM     15  C   UNL     1      32.974 -22.826 -17.973  0.00  0.00    +0.043 C 
ATOM     16  C   UNL     1      33.880 -23.445 -17.109  0.00  0.00    +0.041 C 
ATOM     17  C   UNL     1      33.809 -20.652 -20.614  0.00  0.00    +0.429 C 
ENDBRANCH   8  13
ENDBRANCH   3   8
BRANCH   6  18
ATOM     18  O   UNL     1      33.027 -24.915 -13.120  0.00  0.00    -0.375 OA
BRANCH  18  20
ATOM     19  C   UNL     1      29.810 -23.697 -15.441  0.00  0.00    +0.057 C 
ATOM     20  C   UNL     1      31.959 -24.510 -13.890  0.00  0.00    +0.161 C 
ATOM     21  C   UNL     1      29.999 -25.051 -15.168  0.00  0.00    +0.018 C 
ATOM     22  C   UNL     1      30.701 -22.752 -14.933  0.00  0.00    +0.018 C 
ATOM     23  C   UNL     1      31.080 -25.461 -14.388  0.00  0.00    +0.040 C 
ATOM     24  C   UNL     1      31.782 -23.160 -14.153  0.00  0.00    +0.040 C 
BRANCH  19  25
ATOM     25  N   UNL     1      28.737 -23.291 -16.215  0.00  0.00    -0.246 N 
ATOM     26  N   UNL     1      27.360 -23.137 -17.961  0.00  0.00    -0.224 NA
ATOM     27  C   UNL     1      27.757 -22.401 -15.854  0.00  0.00    +0.092 C 
ATOM     28  C   UNL     1      28.450 -23.703 -17.493  0.00  0.00    +0.172 C 
ATOM     29  C   UNL     1      26.924 -22.325 -16.945  0.00  0.00    +0.117 C 
ENDBRANCH  19  25
ENDBRANCH  18  20
ENDBRANCH   6  18
TORSDOF 5
ENDMDL
MODEL 5
REMARK VINA RESULT:     -10.6      3.605      9.893
REMARK  Name = 10157080
REMARK  5 active torsions:
REMARK  status: ('A' for Active; 'I' for Inactive)
REMARK    1  A    between atoms: C_3  and  O_8
REMARK    2  A    between atoms: C_6  and  O_18
REMARK    3  A    between atoms: O_8  and  C_13
REMARK    4  A    between atoms: O_18  and  C_20
REMARK    5  A    between atoms: C_19  and  N_25
REMARK                            x       y       z     vdW  Elec       q    Type
REMARK                         _______ _______ _______ _____ _____    ______ ____
ROOT
ATOM      1  N   UNL     1      36.795 -19.768 -20.676  0.00  0.00    -0.277 NA
ATOM      2  N   UNL     1      35.002 -21.227 -19.992  0.00  0.00    -0.319 NA
ATOM      3  C   UNL     1      35.883 -19.040 -21.340  0.00  0.00    +0.278 C 
ATOM      4  C   UNL     1      34.539 -19.321 -21.387  0.00  0.00    +0.156 C 
ATOM      5  C   UNL     1      34.150 -20.443 -20.684  0.00  0.00    +0.113 C 
ATOM      6  C   UNL     1      36.291 -20.837 -20.031  0.00  0.00    +0.317 C 
ATOM      7  C   UNL     1      32.712 -20.839 -20.669  0.00  0.00    +0.063 C 
ENDROOT
BRANCH   3   8
ATOM      8  O   UNL     1      36.353 -17.929 -22.017  0.00  0.00    -0.429 OA
BRANCH   8  13
ATOM      9  O   UNL     1      34.328 -14.631 -24.893  0.00  0.00    -0.435 OA
ATOM     10  O   UNL     1      33.725 -16.300 -26.525  0.00  0.00    -0.435 OA
ATOM     11  C   UNL     1      34.716 -15.881 -24.522  0.00  0.00    +0.179 C 
ATOM     12  C   UNL     1      34.372 -16.834 -25.453  0.00  0.00    +0.177 C 
ATOM     13  C   UNL     1      35.697 -17.555 -23.150  0.00  0.00    +0.151 C 
ATOM     14  C   UNL     1      35.380 -16.210 -23.359  0.00  0.00    +0.078 C 
ATOM     15  C   UNL     1      34.673 -18.169 -25.272  0.00  0.00    +0.043 C 
ATOM     16  C   UNL     1      35.345 -18.529 -24.103  0.00  0.00    +0.041 C 
ATOM     17  C   UNL     1      33.701 -14.904 -26.164  0.00  0.00    +0.429 C 
ENDBRANCH   8  13
ENDBRANCH   3   8
BRANCH   6  18
ATOM     18  O   UNL     1      37.190 -21.616 -19.339  0.00  0.00    -0.375 OA
BRANCH  18  20
ATOM     19  C   UNL     1      35.993 -23.046 -15.631  0.00  0.00    +0.057 C 
ATOM     20  C   UNL     1      36.793 -22.091 -18.108  0.00  0.00    +0.161 C 
ATOM     21  C   UNL     1      35.099 -23.050 -16.701  0.00  0.00    +0.018 C 
ATOM     22  C   UNL     1      37.290 -22.562 -15.807  0.00  0.00    +0.018 C 
ATOM     23  C   UNL     1      35.501 -22.569 -17.948  0.00  0.00    +0.040 C 
ATOM     24  C   UNL     1      37.692 -22.083 -17.053  0.00  0.00    +0.040 C 
BRANCH  19  25
ATOM     25  N   UNL     1      35.594 -23.521 -14.395  0.00  0.00    -0.246 N 
ATOM     26  N   UNL     1      34.299 -24.429 -12.823  0.00  0.00    -0.224 NA
ATOM     27  C   UNL     1      36.341 -23.538 -13.244  0.00  0.00    +0.092 C 
ATOM     28  C   UNL     1      34.374 -24.069 -14.085  0.00  0.00    +0.172 C 
ATOM     29  C   UNL     1      35.521 -24.100 -12.294  0.00  0.00    +0.117 C 
ENDBRANCH  19  25
ENDBRANCH  18  20
ENDBRANCH   6  18
TORSDOF 5
ENDMDL
MODEL 6
REMARK VINA RESULT:     -10.4      3.585      7.429
REMARK  Name = 10157080
REMARK  5 active torsions:
REMARK  status: ('A' for Active; 'I' for Inactive)
REMARK    1  A    between atoms: C_3  and  O_8
REMARK    2  A    between atoms: C_6  and  O_18
REMARK    3  A    between atoms: O_8  and  C_13
REMARK    4  A    between atoms: O_18  and  C_20
REMARK    5  A    between atoms: C_19  and  N_25
REMARK                            x       y       z     vdW  Elec       q    Type
REMARK                         _______ _______ _______ _____ _____    ______ ____
ROOT
ATOM      1  N   UNL     1      35.236 -23.646 -14.403  0.00  0.00    -0.277 NA
ATOM      2  N   UNL     1      35.776 -25.253 -12.690  0.00  0.00    -0.319 NA
ATOM      3  C   UNL     1      36.466 -23.840 -14.904  0.00  0.00    +0.278 C 
ATOM      4  C   UNL     1      37.400 -24.699 -14.378  0.00  0.00    +0.156 C 
ATOM      5  C   UNL     1      36.994 -25.390 -13.255  0.00  0.00    +0.113 C 
ATOM      6  C   UNL     1      34.959 -24.377 -13.307  0.00  0.00    +0.317 C 
ATOM      7  C   UNL     1      37.932 -26.350 -12.603  0.00  0.00    +0.063 C 
ENDROOT
BRANCH   3   8
ATOM      8  O   UNL     1      36.795 -23.112 -16.034  0.00  0.00    -0.429 OA
BRANCH   8  13
ATOM      9  O   UNL     1      35.067 -21.048 -20.036  0.00  0.00    -0.435 OA
ATOM     10  O   UNL     1      32.938 -22.149 -19.786  0.00  0.00    -0.435 OA
ATOM     11  C   UNL     1      35.023 -21.844 -18.932  0.00  0.00    +0.179 C 
ATOM     12  C   UNL     1      33.807 -22.472 -18.790  0.00  0.00    +0.177 C 
ATOM     13  C   UNL     1      35.813 -22.892 -16.952  0.00  0.00    +0.151 C 
ATOM     14  C   UNL     1      36.047 -22.034 -18.029  0.00  0.00    +0.078 C 
ATOM     15  C   UNL     1      33.548 -23.325 -17.736  0.00  0.00    +0.043 C 
ATOM     16  C   UNL     1      34.570 -23.534 -16.807  0.00  0.00    +0.041 C 
ATOM     17  C   UNL     1      33.743 -21.247 -20.572  0.00  0.00    +0.429 C 
ENDBRANCH   8  13
ENDBRANCH   3   8
BRANCH   6  18
ATOM     18  O   UNL     1      33.710 -24.209 -12.756  0.00  0.00    -0.375 OA
BRANCH  18  20
ATOM     19  C   UNL     1      30.514 -23.849 -15.379  0.00  0.00    +0.057 C 
ATOM     20  C   UNL     1      32.649 -24.090 -13.627  0.00  0.00    +0.161 C 
ATOM     21  C   UNL     1      31.211 -22.713 -14.969  0.00  0.00    +0.018 C 
ATOM     22  C   UNL     1      30.892 -25.107 -14.909  0.00  0.00    +0.018 C 
ATOM     23  C   UNL     1      32.285 -22.833 -14.087  0.00  0.00    +0.040 C 
ATOM     24  C   UNL     1      31.966 -25.228 -14.028  0.00  0.00    +0.040 C 
BRANCH  19  25
ATOM     25  N   UNL     1      29.449 -23.729 -16.253  0.00  0.00    -0.246 N 
ATOM     26  N   UNL     1      27.842 -24.315 -17.683  0.00  0.00    -0.224 NA
ATOM     27  C   UNL     1      28.811 -22.568 -16.612  0.00  0.00    +0.092 C 
ATOM     28  C   UNL     1      28.825 -24.750 -16.926  0.00  0.00    +0.172 C 
ATOM     29  C   UNL     1      27.829 -22.957 -17.491  0.00  0.00    +0.117 C 
ENDBRANCH  19  25
ENDBRANCH  18  20
ENDBRANCH   6  18
TORSDOF 5
ENDMDL
MODEL 7
REMARK VINA RESULT:     -10.4      2.102      2.994
REMARK  Name = 10157080
REMARK  5 active torsions:
REMARK  status: ('A' for Active; 'I' for Inactive)
REMARK    1  A    between atoms: C_3  and  O_8
REMARK    2  A    between atoms: C_6  and  O_18
REMARK    3  A    between atoms: O_8  and  C_13
REMARK    4  A    between atoms: O_18  and  C_20
REMARK    5  A    between atoms: C_19  and  N_25
REMARK                            x       y       z     vdW  Elec       q    Type
REMARK                         _______ _______ _______ _____ _____    ______ ____
ROOT
ATOM      1  N   UNL     1      35.032 -23.724 -17.266  0.00  0.00    -0.277 NA
ATOM      2  N   UNL     1      32.714 -23.097 -17.048  0.00  0.00    -0.319 NA
ATOM      3  C   UNL     1      35.115 -23.689 -15.926  0.00  0.00    +0.278 C 
ATOM      4  C   UNL     1      34.077 -23.375 -15.084  0.00  0.00    +0.156 C 
ATOM      5  C   UNL     1      32.882 -23.084 -15.710  0.00  0.00    +0.113 C 
ATOM      6  C   UNL     1      33.815 -23.421 -17.755  0.00  0.00    +0.317 C 
ATOM      7  C   UNL     1      31.689 -22.730 -14.887  0.00  0.00    +0.063 C 
ENDROOT
BRANCH   3   8
ATOM      8  O   UNL     1      36.347 -23.997 -15.376  0.00  0.00    -0.429 OA
BRANCH   8  13
ATOM      9  O   UNL     1      35.222 -25.436 -10.913  0.00  0.00    -0.435 OA
ATOM     10  O   UNL     1      36.741 -23.846  -9.926  0.00  0.00    -0.435 OA
ATOM     11  C   UNL     1      35.870 -24.690 -11.849  0.00  0.00    +0.179 C 
ATOM     12  C   UNL     1      36.737 -23.782 -11.285  0.00  0.00    +0.177 C 
ATOM     13  C   UNL     1      36.468 -23.935 -14.021  0.00  0.00    +0.151 C 
ATOM     14  C   UNL     1      35.713 -24.790 -13.216  0.00  0.00    +0.078 C 
ATOM     15  C   UNL     1      37.495 -22.925 -12.057  0.00  0.00    +0.043 C 
ATOM     16  C   UNL     1      37.355 -23.007 -13.444  0.00  0.00    +0.041 C 
ATOM     17  C   UNL     1      35.780 -24.896  -9.697  0.00  0.00    +0.429 C 
ENDBRANCH   8  13
ENDBRANCH   3   8
BRANCH   6  18
ATOM     18  O   UNL     1      33.681 -23.441 -19.124  0.00  0.00    -0.375 OA
BRANCH  18  20
ATOM     19  C   UNL     1      34.823 -20.025 -21.187  0.00  0.00    +0.057 C 
ATOM     20  C   UNL     1      34.060 -22.307 -19.810  0.00  0.00    +0.161 C 
ATOM     21  C   UNL     1      35.791 -20.918 -20.728  0.00  0.00    +0.018 C 
ATOM     22  C   UNL     1      33.472 -20.280 -20.954  0.00  0.00    +0.018 C 
ATOM     23  C   UNL     1      35.407 -22.067 -20.035  0.00  0.00    +0.040 C 
ATOM     24  C   UNL     1      33.087 -21.428 -20.262  0.00  0.00    +0.040 C 
BRANCH  19  25
ATOM     25  N   UNL     1      35.204 -18.887 -21.874  0.00  0.00    -0.246 N 
ATOM     26  N   UNL     1      35.811 -17.575 -23.571  0.00  0.00    -0.224 NA
ATOM     27  C   UNL     1      35.382 -17.633 -21.346  0.00  0.00    +0.092 C 
ATOM     28  C   UNL     1      35.476 -18.795 -23.217  0.00  0.00    +0.172 C 
ATOM     29  C   UNL     1      35.755 -16.846 -22.410  0.00  0.00    +0.117 C 
ENDBRANCH  19  25
ENDBRANCH  18  20
ENDBRANCH   6  18
TORSDOF 5
ENDMDL
MODEL 8
REMARK VINA RESULT:     -10.3      4.490     10.595
REMARK  Name = 10157080
REMARK  5 active torsions:
REMARK  status: ('A' for Active; 'I' for Inactive)
REMARK    1  A    between atoms: C_3  and  O_8
REMARK    2  A    between atoms: C_6  and  O_18
REMARK    3  A    between atoms: O_8  and  C_13
REMARK    4  A    between atoms: O_18  and  C_20
REMARK    5  A    between atoms: C_19  and  N_25
REMARK                            x       y       z     vdW  Elec       q    Type
REMARK                         _______ _______ _______ _____ _____    ______ ____
ROOT
ATOM      1  N   UNL     1      36.190 -16.934 -22.818  0.00  0.00    -0.277 NA
ATOM      2  N   UNL     1      35.414 -18.983 -23.821  0.00  0.00    -0.319 NA
ATOM      3  C   UNL     1      35.382 -16.272 -23.662  0.00  0.00    +0.278 C 
ATOM      4  C   UNL     1      34.573 -16.866 -24.599  0.00  0.00    +0.156 C 
ATOM      5  C   UNL     1      34.630 -18.245 -24.634  0.00  0.00    +0.113 C 
ATOM      6  C   UNL     1      36.157 -18.273 -22.950  0.00  0.00    +0.317 C 
ATOM      7  C   UNL     1      33.790 -18.991 -25.615  0.00  0.00    +0.063 C 
ENDROOT
BRANCH   3   8
ATOM      8  O   UNL     1      35.380 -14.892 -23.562  0.00  0.00    -0.429 OA
BRANCH   8  13
ATOM      9  O   UNL     1      31.941 -11.657 -22.581  0.00  0.00    -0.435 OA
ATOM     10  O   UNL     1      31.655 -12.512 -20.346  0.00  0.00    -0.435 OA
ATOM     11  C   UNL     1      32.773 -12.701 -22.317  0.00  0.00    +0.179 C 
ATOM     12  C   UNL     1      32.609 -13.189 -21.041  0.00  0.00    +0.177 C 
ATOM     13  C   UNL     1      34.460 -14.320 -22.735  0.00  0.00    +0.151 C 
ATOM     14  C   UNL     1      33.691 -13.246 -23.190  0.00  0.00    +0.078 C 
ATOM     15  C   UNL     1      33.356 -14.249 -20.567  0.00  0.00    +0.043 C 
ATOM     16  C   UNL     1      34.293 -14.819 -21.431  0.00  0.00    +0.041 C 
ATOM     17  C   UNL     1      31.235 -11.543 -21.329  0.00  0.00    +0.429 C 
ENDBRANCH   8  13
ENDBRANCH   3   8
BRANCH   6  18
ATOM     18  O   UNL     1      36.972 -18.994 -22.107  0.00  0.00    -0.375 OA
BRANCH  18  20
ATOM     19  C   UNL     1      35.121 -21.523 -19.387  0.00  0.00    +0.057 C 
ATOM     20  C   UNL     1      36.357 -19.833 -21.204  0.00  0.00    +0.161 C 
ATOM     21  C   UNL     1      36.506 -21.364 -19.360  0.00  0.00    +0.018 C 
ATOM     22  C   UNL     1      34.357 -20.832 -20.327  0.00  0.00    +0.018 C 
ATOM     23  C   UNL     1      37.129 -20.513 -20.274  0.00  0.00    +0.040 C 
ATOM     24  C   UNL     1      34.979 -19.981 -21.241  0.00  0.00    +0.040 C 
BRANCH  19  25
ATOM     25  N   UNL     1      34.504 -22.366 -18.480  0.00  0.00    -0.246 N 
ATOM     26  N   UNL     1      34.252 -23.751 -16.752  0.00  0.00    -0.224 NA
ATOM     27  C   UNL     1      33.175 -22.706 -18.451  0.00  0.00    +0.092 C 
ATOM     28  C   UNL     1      35.106 -23.024 -17.436  0.00  0.00    +0.172 C 
ATOM     29  C   UNL     1      33.047 -23.558 -17.380  0.00  0.00    +0.117 C 
ENDBRANCH  19  25
ENDBRANCH  18  20
ENDBRANCH   6  18
TORSDOF 5
ENDMDL
MODEL 9
REMARK VINA RESULT:     -10.3      4.487     10.649
REMARK  Name = 10157080
REMARK  5 active torsions:
REMARK  status: ('A' for Active; 'I' for Inactive)
REMARK    1  A    between atoms: C_3  and  O_8
REMARK    2  A    between atoms: C_6  and  O_18
REMARK    3  A    between atoms: O_8  and  C_13
REMARK    4  A    between atoms: O_18  and  C_20
REMARK    5  A    between atoms: C_19  and  N_25
REMARK                            x       y       z     vdW  Elec       q    Type
REMARK                         _______ _______ _______ _____ _____    ______ ____
ROOT
ATOM      1  N   UNL     1      35.784 -17.561 -21.373  0.00  0.00    -0.277 NA
ATOM      2  N   UNL     1      35.725 -18.443 -23.615  0.00  0.00    -0.319 NA
ATOM      3  C   UNL     1      35.209 -16.445 -21.850  0.00  0.00    +0.278 C 
ATOM      4  C   UNL     1      34.865 -16.241 -23.163  0.00  0.00    +0.156 C 
ATOM      5  C   UNL     1      35.150 -17.289 -24.014  0.00  0.00    +0.113 C 
ATOM      6  C   UNL     1      36.012 -18.510 -22.301  0.00  0.00    +0.317 C 
ATOM      7  C   UNL     1      34.816 -17.172 -25.463  0.00  0.00    +0.063 C 
ENDROOT
BRANCH   3   8
ATOM      8  O   UNL     1      34.953 -15.442 -20.932  0.00  0.00    -0.429 OA
BRANCH   8  13
ATOM      9  O   UNL     1      31.286 -12.389 -20.232  0.00  0.00    -0.435 OA
ATOM     10  O   UNL     1      31.627 -11.353 -22.381  0.00  0.00    -0.435 OA
ATOM     11  C   UNL     1      32.323 -12.945 -20.916  0.00  0.00    +0.179 C 
ATOM     12  C   UNL     1      32.518 -12.353 -22.142  0.00  0.00    +0.177 C 
ATOM     13  C   UNL     1      34.140 -14.420 -21.322  0.00  0.00    +0.151 C 
ATOM     14  C   UNL     1      33.119 -13.982 -20.476  0.00  0.00    +0.078 C 
ATOM     15  C   UNL     1      33.519 -12.766 -22.998  0.00  0.00    +0.043 C 
ATOM     16  C   UNL     1      34.340 -13.815 -22.576  0.00  0.00    +0.041 C 
ATOM     17  C   UNL     1      30.850 -11.380 -21.167  0.00  0.00    +0.429 C 
ENDBRANCH   8  13
ENDBRANCH   3   8
BRANCH   6  18
ATOM     18  O   UNL     1      36.603 -19.671 -21.859  0.00  0.00    -0.375 OA
BRANCH  18  20
ATOM     19  C   UNL     1      34.572 -21.853 -18.972  0.00  0.00    +0.057 C 
ATOM     20  C   UNL     1      35.929 -20.395 -20.901  0.00  0.00    +0.161 C 
ATOM     21  C   UNL     1      35.965 -21.779 -18.939  0.00  0.00    +0.018 C 
ATOM     22  C   UNL     1      33.863 -21.194 -19.975  0.00  0.00    +0.018 C 
ATOM     23  C   UNL     1      36.648 -21.045 -19.909  0.00  0.00    +0.040 C 
ATOM     24  C   UNL     1      34.544 -20.460 -20.945  0.00  0.00    +0.040 C 
BRANCH  19  25
ATOM     25  N   UNL     1      33.896 -22.581 -18.010  0.00  0.00    -0.246 N 
ATOM     26  N   UNL     1      33.550 -23.885 -16.235  0.00  0.00    -0.224 NA
ATOM     27  C   UNL     1      32.536 -22.722 -17.895  0.00  0.00    +0.092 C 
ATOM     28  C   UNL     1      34.458 -23.302 -16.986  0.00  0.00    +0.172 C 
ATOM     29  C   UNL     1      32.350 -23.527 -16.797  0.00  0.00    +0.117 C 
ENDBRANCH  19  25
ENDBRANCH  18  20
ENDBRANCH   6  18
TORSDOF 5
ENDMDL
