MODEL 1
REMARK VINA RESULT:     -12.5      0.000      0.000
REMARK  Name = 445756
REMARK  6 active torsions:
REMARK  status: ('A' for Active; 'I' for Inactive)
REMARK    1  A    between atoms: C_3  and  C_11
REMARK    2  A    between atoms: C_6  and  C_22
REMARK    3  A    between atoms: C_11  and  N_12
REMARK    4  A    between atoms: C_22  and  N_23
REMARK    5  A    between atoms: N_23  and  C_25
REMARK    6  A    between atoms: C_30  and  C_33
REMARK                            x       y       z     vdW  Elec       q    Type
REMARK                         _______ _______ _______ _____ _____    ______ ____
ROOT
ATOM      1  N   UNL     1      34.892 -15.529 -23.104  0.00  0.00    -0.261 N 
ATOM      2  N   UNL     1      34.293 -15.601 -20.965  0.00  0.00    -0.392 NA
ATOM      3  C   UNL     1      32.147 -12.710 -21.971  0.00  0.00    -0.017 C 
ATOM      4  C   UNL     1      33.982 -14.516 -22.945  0.00  0.00    +0.079 C 
ATOM      5  C   UNL     1      33.623 -14.582 -21.601  0.00  0.00    +0.128 C 
ATOM      6  C   UNL     1      35.045 -16.147 -21.895  0.00  0.00    +0.183 C 
ATOM      7  C   UNL     1      32.687 -13.663 -21.097  0.00  0.00    +0.084 C 
ATOM      8  C   UNL     1      32.527 -12.671 -23.315  0.00  0.00    -0.005 C 
ATOM      9  C   UNL     1      33.457 -13.577 -23.834  0.00  0.00    +0.017 C 
ATOM     10  C   UNL     1      35.567 -15.879 -24.334  0.00  0.00    +0.120 C 
ENDROOT
BRANCH   3  11
ATOM     11  C   UNL     1      31.149 -11.725 -21.457  0.00  0.00    +0.120 C 
BRANCH  11  12
ATOM     12  N   UNL     1      31.797 -10.520 -20.929  0.00  0.00    -0.260 N 
ATOM     13  N   UNL     1      32.649  -9.110 -19.466  0.00  0.00    -0.394 NA
ATOM     14  C   UNL     1      32.228  -9.470 -21.677  0.00  0.00    +0.079 C 
ATOM     15  C   UNL     1      32.061 -10.275 -19.623  0.00  0.00    +0.164 C 
ATOM     16  C   UNL     1      32.762  -8.593 -20.736  0.00  0.00    +0.128 C 
ATOM     17  C   UNL     1      32.207  -9.205 -23.046  0.00  0.00    +0.017 C 
ATOM     18  C   UNL     1      31.717 -11.224 -18.544  0.00  0.00    +0.084 C 
ATOM     19  C   UNL     1      33.311  -7.375 -21.170  0.00  0.00    +0.086 C 
ATOM     20  C   UNL     1      32.757  -7.987 -23.460  0.00  0.00    -0.003 C 
ATOM     21  C   UNL     1      33.300  -7.087 -22.540  0.00  0.00    -0.019 C 
ENDBRANCH  11  12
ENDBRANCH   3  11
BRANCH   6  22
ATOM     22  C   UNL     1      35.960 -17.291 -21.707  0.00  0.00    +0.164 C 
BRANCH  22  23
ATOM     23  N   UNL     1      35.441 -18.580 -22.150  0.00  0.00    -0.326 N 
ATOM     24  H   UNL     1      35.256 -18.705 -23.109  0.00  0.00    +0.147 HD
BRANCH  23  25
ATOM     25  C   UNL     1      35.196 -19.631 -21.292  0.00  0.00    +0.045 C 
ATOM     26  C   UNL     1      33.881 -20.082 -21.048  0.00  0.00    +0.014 C 
ATOM     27  C   UNL     1      36.250 -20.290 -20.626  0.00  0.00    +0.014 C 
ATOM     28  C   UNL     1      33.632 -21.144 -20.179  0.00  0.00    +0.004 C 
ATOM     29  C   UNL     1      36.002 -21.351 -19.756  0.00  0.00    +0.004 C 
ATOM     30  C   UNL     1      34.693 -21.778 -19.532  0.00  0.00    +0.031 C 
BRANCH  30  33
ATOM     31  N   UNL     1      34.792 -22.817 -17.279  0.00  0.00    -0.343 N 
ATOM     32  N   UNL     1      33.851 -23.982 -19.074  0.00  0.00    -0.285 NA
ATOM     33  C   UNL     1      34.434 -22.884 -18.624  0.00  0.00    +0.117 C 
ATOM     34  H   UNL     1      34.607 -23.578 -16.682  0.00  0.00    +0.144 HD
ATOM     35  H   UNL     1      35.230 -22.009 -16.926  0.00  0.00    +0.144 HD
ATOM     36  H   UNL     1      33.675 -24.732 -18.460  0.00  0.00    +0.188 HD
ENDBRANCH  30  33
ENDBRANCH  23  25
ENDBRANCH  22  23
ENDBRANCH   6  22
TORSDOF 6
ENDMDL
MODEL 2
REMARK VINA RESULT:     -11.2      1.189      2.065
REMARK  Name = 445756
REMARK  6 active torsions:
REMARK  status: ('A' for Active; 'I' for Inactive)
REMARK    1  A    between atoms: C_3  and  C_11
REMARK    2  A    between atoms: C_6  and  C_22
REMARK    3  A    between atoms: C_11  and  N_12
REMARK    4  A    between atoms: C_22  and  N_23
REMARK    5  A    between atoms: N_23  and  C_25
REMARK    6  A    between atoms: C_30  and  C_33
REMARK                            x       y       z     vdW  Elec       q    Type
REMARK                         _______ _______ _______ _____ _____    ______ ____
ROOT
ATOM      1  N   UNL     1      34.708 -15.467 -22.023  0.00  0.00    -0.261 N 
ATOM      2  N   UNL     1      34.278 -14.526 -23.990  0.00  0.00    -0.392 NA
ATOM      3  C   UNL     1      32.106 -12.308 -21.909  0.00  0.00    -0.017 C 
ATOM      4  C   UNL     1      33.829 -14.449 -21.758  0.00  0.00    +0.079 C 
ATOM      5  C   UNL     1      33.577 -13.876 -23.002  0.00  0.00    +0.128 C 
ATOM      6  C   UNL     1      34.945 -15.473 -23.370  0.00  0.00    +0.183 C 
ATOM      7  C   UNL     1      32.698 -12.783 -23.087  0.00  0.00    +0.084 C 
ATOM      8  C   UNL     1      32.380 -12.903 -20.676  0.00  0.00    -0.005 C 
ATOM      9  C   UNL     1      33.252 -13.992 -20.572  0.00  0.00    +0.017 C 
ATOM     10  C   UNL     1      35.279 -16.371 -21.051  0.00  0.00    +0.120 C 
ENDROOT
BRANCH   3  11
ATOM     11  C   UNL     1      31.169 -11.146 -21.976  0.00  0.00    +0.120 C 
BRANCH  11  12
ATOM     12  N   UNL     1      31.768  -9.933 -21.412  0.00  0.00    -0.260 N 
ATOM     13  N   UNL     1      32.375  -8.440 -19.909  0.00  0.00    -0.394 NA
ATOM     14  C   UNL     1      32.424  -8.978 -22.123  0.00  0.00    +0.079 C 
ATOM     15  C   UNL     1      31.756  -9.583 -20.103  0.00  0.00    +0.164 C 
ATOM     16  C   UNL     1      32.798  -8.047 -21.158  0.00  0.00    +0.128 C 
ATOM     17  C   UNL     1      32.721  -8.837 -23.479  0.00  0.00    +0.017 C 
ATOM     18  C   UNL     1      31.119 -10.411 -19.058  0.00  0.00    +0.084 C 
ATOM     19  C   UNL     1      33.512  -6.902 -21.551  0.00  0.00    +0.086 C 
ATOM     20  C   UNL     1      33.432  -7.692 -23.852  0.00  0.00    -0.003 C 
ATOM     21  C   UNL     1      33.821  -6.740 -22.907  0.00  0.00    -0.019 C 
ENDBRANCH  11  12
ENDBRANCH   3  11
BRANCH   6  22
ATOM     22  C   UNL     1      35.852 -16.451 -24.003  0.00  0.00    +0.164 C 
BRANCH  22  23
ATOM     23  N   UNL     1      35.374 -17.830 -24.007  0.00  0.00    -0.326 N 
ATOM     24  H   UNL     1      34.908 -18.161 -24.809  0.00  0.00    +0.147 HD
BRANCH  23  25
ATOM     25  C   UNL     1      35.541 -18.690 -22.943  0.00  0.00    +0.045 C 
ATOM     26  C   UNL     1      36.790 -18.819 -22.298  0.00  0.00    +0.014 C 
ATOM     27  C   UNL     1      34.470 -19.473 -22.464  0.00  0.00    +0.014 C 
ATOM     28  C   UNL     1      36.959 -19.691 -21.223  0.00  0.00    +0.004 C 
ATOM     29  C   UNL     1      34.639 -20.346 -21.389  0.00  0.00    +0.004 C 
ATOM     30  C   UNL     1      35.883 -20.455 -20.769  0.00  0.00    +0.031 C 
BRANCH  30  33
ATOM     31  N   UNL     1      36.952 -21.081 -18.617  0.00  0.00    -0.343 N 
ATOM     32  N   UNL     1      35.369 -22.491 -19.600  0.00  0.00    -0.285 NA
ATOM     33  C   UNL     1      36.060 -21.366 -19.649  0.00  0.00    +0.117 C 
ATOM     34  H   UNL     1      37.056 -21.712 -17.868  0.00  0.00    +0.144 HD
ATOM     35  H   UNL     1      37.478 -20.249 -18.636  0.00  0.00    +0.144 HD
ATOM     36  H   UNL     1      35.487 -23.109 -18.843  0.00  0.00    +0.188 HD
ENDBRANCH  30  33
ENDBRANCH  23  25
ENDBRANCH  22  23
ENDBRANCH   6  22
TORSDOF 6
ENDMDL
MODEL 3
REMARK VINA RESULT:     -11.1      3.517     11.459
REMARK  Name = 445756
REMARK  6 active torsions:
REMARK  status: ('A' for Active; 'I' for Inactive)
REMARK    1  A    between atoms: C_3  and  C_11
REMARK    2  A    between atoms: C_6  and  C_22
REMARK    3  A    between atoms: C_11  and  N_12
REMARK    4  A    between atoms: C_22  and  N_23
REMARK    5  A    between atoms: N_23  and  C_25
REMARK    6  A    between atoms: C_30  and  C_33
REMARK                            x       y       z     vdW  Elec       q    Type
REMARK                         _______ _______ _______ _____ _____    ______ ____
ROOT
ATOM      1  N   UNL     1      31.764 -11.172 -21.919  0.00  0.00    -0.261 N 
ATOM      2  N   UNL     1      32.989 -10.320 -23.566  0.00  0.00    -0.392 NA
ATOM      3  C   UNL     1      34.456 -13.757 -23.602  0.00  0.00    -0.017 C 
ATOM      4  C   UNL     1      32.583 -12.191 -22.331  0.00  0.00    +0.079 C 
ATOM      5  C   UNL     1      33.338 -11.634 -23.360  0.00  0.00    +0.128 C 
ATOM      6  C   UNL     1      32.044 -10.075 -22.686  0.00  0.00    +0.183 C 
ATOM      7  C   UNL     1      34.295 -12.427 -24.014  0.00  0.00    +0.084 C 
ATOM      8  C   UNL     1      33.683 -14.288 -22.567  0.00  0.00    -0.005 C 
ATOM      9  C   UNL     1      32.725 -13.513 -21.905  0.00  0.00    +0.017 C 
ATOM     10  C   UNL     1      30.780 -11.247 -20.862  0.00  0.00    +0.120 C 
ENDROOT
BRANCH   3  11
ATOM     11  C   UNL     1      35.467 -14.619 -24.285  0.00  0.00    +0.120 C 
BRANCH  11  12
ATOM     12  N   UNL     1      34.865 -15.846 -24.816  0.00  0.00    -0.260 N 
ATOM     13  N   UNL     1      33.663 -17.158 -26.116  0.00  0.00    -0.394 NA
ATOM     14  C   UNL     1      35.054 -17.094 -24.311  0.00  0.00    +0.079 C 
ATOM     15  C   UNL     1      34.036 -15.919 -25.885  0.00  0.00    +0.164 C 
ATOM     16  C   UNL     1      34.288 -17.906 -25.144  0.00  0.00    +0.128 C 
ATOM     17  C   UNL     1      35.798 -17.584 -23.237  0.00  0.00    +0.017 C 
ATOM     18  C   UNL     1      33.628 -14.732 -26.664  0.00  0.00    +0.084 C 
ATOM     19  C   UNL     1      34.252 -19.290 -24.906  0.00  0.00    +0.086 C 
ATOM     20  C   UNL     1      35.749 -18.965 -23.015  0.00  0.00    -0.003 C 
ATOM     21  C   UNL     1      34.991 -19.804 -23.834  0.00  0.00    -0.019 C 
ENDBRANCH  11  12
ENDBRANCH   3  11
BRANCH   6  22
ATOM     22  C   UNL     1      31.338  -8.790 -22.506  0.00  0.00    +0.164 C 
BRANCH  22  23
ATOM     23  N   UNL     1      32.198  -7.643 -22.238  0.00  0.00    -0.326 N 
ATOM     24  H   UNL     1      32.357  -7.387 -21.300  0.00  0.00    +0.147 HD
BRANCH  23  25
ATOM     25  C   UNL     1      32.796  -6.898 -23.231  0.00  0.00    +0.045 C 
ATOM     26  C   UNL     1      32.035  -6.058 -24.073  0.00  0.00    +0.014 C 
ATOM     27  C   UNL     1      34.190  -6.951 -23.444  0.00  0.00    +0.014 C 
ATOM     28  C   UNL     1      32.640  -5.307 -25.079  0.00  0.00    +0.004 C 
ATOM     29  C   UNL     1      34.795  -6.199 -24.450  0.00  0.00    +0.004 C 
ATOM     30  C   UNL     1      34.020  -5.378 -25.268  0.00  0.00    +0.031 C 
BRANCH  30  33
ATOM     31  N   UNL     1      35.958  -4.852 -26.730  0.00  0.00    -0.343 N 
ATOM     32  N   UNL     1      33.983  -3.614 -26.900  0.00  0.00    -0.285 NA
ATOM     33  C   UNL     1      34.651  -4.594 -26.319  0.00  0.00    +0.117 C 
ATOM     34  H   UNL     1      36.365  -4.309 -27.444  0.00  0.00    +0.144 HD
ATOM     35  H   UNL     1      36.473  -5.577 -26.307  0.00  0.00    +0.144 HD
ATOM     36  H   UNL     1      34.409  -3.082 -27.612  0.00  0.00    +0.188 HD
ENDBRANCH  30  33
ENDBRANCH  23  25
ENDBRANCH  22  23
ENDBRANCH   6  22
TORSDOF 6
ENDMDL
MODEL 4
REMARK VINA RESULT:     -11.0      2.563      5.315
REMARK  Name = 445756
REMARK  6 active torsions:
REMARK  status: ('A' for Active; 'I' for Inactive)
REMARK    1  A    between atoms: C_3  and  C_11
REMARK    2  A    between atoms: C_6  and  C_22
REMARK    3  A    between atoms: C_11  and  N_12
REMARK    4  A    between atoms: C_22  and  N_23
REMARK    5  A    between atoms: N_23  and  C_25
REMARK    6  A    between atoms: C_30  and  C_33
REMARK                            x       y       z     vdW  Elec       q    Type
REMARK                         _______ _______ _______ _____ _____    ______ ____
ROOT
ATOM      1  N   UNL     1      32.484 -11.862 -22.142  0.00  0.00    -0.261 N 
ATOM      2  N   UNL     1      33.507 -10.865 -23.845  0.00  0.00    -0.392 NA
ATOM      3  C   UNL     1      32.966  -7.814 -21.755  0.00  0.00    -0.017 C 
ATOM      4  C   UNL     1      32.539 -10.533 -21.809  0.00  0.00    +0.079 C 
ATOM      5  C   UNL     1      33.182  -9.932 -22.889  0.00  0.00    +0.128 C 
ATOM      6  C   UNL     1      33.074 -12.010 -23.366  0.00  0.00    +0.183 C 
ATOM      7  C   UNL     1      33.404  -8.545 -22.868  0.00  0.00    +0.084 C 
ATOM      8  C   UNL     1      32.324  -8.446 -20.688  0.00  0.00    -0.005 C 
ATOM      9  C   UNL     1      32.095  -9.826 -20.691  0.00  0.00    +0.017 C 
ATOM     10  C   UNL     1      31.905 -12.915 -21.339  0.00  0.00    +0.120 C 
ENDROOT
BRANCH   3  11
ATOM     11  C   UNL     1      33.192  -6.339 -21.712  0.00  0.00    +0.120 C 
BRANCH  11  12
ATOM     12  N   UNL     1      32.695  -5.676 -22.922  0.00  0.00    -0.260 N 
ATOM     13  N   UNL     1      31.323  -4.597 -24.266  0.00  0.00    -0.394 NA
ATOM     14  C   UNL     1      33.392  -5.533 -24.080  0.00  0.00    +0.079 C 
ATOM     15  C   UNL     1      31.472  -5.111 -23.066  0.00  0.00    +0.164 C 
ATOM     16  C   UNL     1      32.510  -4.851 -24.914  0.00  0.00    +0.128 C 
ATOM     17  C   UNL     1      34.673  -5.921 -24.474  0.00  0.00    +0.017 C 
ATOM     18  C   UNL     1      30.465  -5.095 -21.985  0.00  0.00    +0.084 C 
ATOM     19  C   UNL     1      32.914  -4.528 -26.220  0.00  0.00    +0.086 C 
ATOM     20  C   UNL     1      35.057  -5.593 -25.779  0.00  0.00    -0.003 C 
ATOM     21  C   UNL     1      34.195  -4.908 -26.638  0.00  0.00    -0.019 C 
ENDBRANCH  11  12
ENDBRANCH   3  11
BRANCH   6  22
ATOM     22  C   UNL     1      33.187 -13.325 -24.030  0.00  0.00    +0.164 C 
BRANCH  22  23
ATOM     23  N   UNL     1      34.532 -13.889 -24.064  0.00  0.00    -0.326 N 
ATOM     24  H   UNL     1      35.234 -13.395 -24.547  0.00  0.00    +0.147 HD
BRANCH  23  25
ATOM     25  C   UNL     1      34.867 -15.080 -23.457  0.00  0.00    +0.045 C 
ATOM     26  C   UNL     1      35.259 -16.202 -24.217  0.00  0.00    +0.014 C 
ATOM     27  C   UNL     1      34.828 -15.219 -22.053  0.00  0.00    +0.014 C 
ATOM     28  C   UNL     1      35.597 -17.408 -23.602  0.00  0.00    +0.004 C 
ATOM     29  C   UNL     1      35.166 -16.424 -21.438  0.00  0.00    +0.004 C 
ATOM     30  C   UNL     1      35.549 -17.518 -22.213  0.00  0.00    +0.031 C 
BRANCH  30  33
ATOM     31  N   UNL     1      37.152 -18.970 -20.993  0.00  0.00    -0.343 N 
ATOM     32  N   UNL     1      35.022 -19.763 -21.534  0.00  0.00    -0.285 NA
ATOM     33  C   UNL     1      35.900 -18.776 -21.571  0.00  0.00    +0.117 C 
ATOM     34  H   UNL     1      37.369 -19.830 -20.563  0.00  0.00    +0.144 HD
ATOM     35  H   UNL     1      37.821 -18.248 -21.012  0.00  0.00    +0.144 HD
ATOM     36  H   UNL     1      35.257 -20.615 -21.100  0.00  0.00    +0.188 HD
ENDBRANCH  30  33
ENDBRANCH  23  25
ENDBRANCH  22  23
ENDBRANCH   6  22
TORSDOF 6
ENDMDL
MODEL 5
REMARK VINA RESULT:     -10.9      3.521     11.842
REMARK  Name = 445756
REMARK  6 active torsions:
REMARK  status: ('A' for Active; 'I' for Inactive)
REMARK    1  A    between atoms: C_3  and  C_11
REMARK    2  A    between atoms: C_6  and  C_22
REMARK    3  A    between atoms: C_11  and  N_12
REMARK    4  A    between atoms: C_22  and  N_23
REMARK    5  A    between atoms: N_23  and  C_25
REMARK    6  A    between atoms: C_30  and  C_33
REMARK                            x       y       z     vdW  Elec       q    Type
REMARK                         _______ _______ _______ _____ _____    ______ ____
ROOT
ATOM      1  N   UNL     1      31.797 -11.255 -21.866  0.00  0.00    -0.261 N 
ATOM      2  N   UNL     1      32.987 -10.387 -23.530  0.00  0.00    -0.392 NA
ATOM      3  C   UNL     1      34.481 -13.812 -23.603  0.00  0.00    -0.017 C 
ATOM      4  C   UNL     1      32.618 -12.266 -22.295  0.00  0.00    +0.079 C 
ATOM      5  C   UNL     1      33.350 -11.699 -23.334  0.00  0.00    +0.128 C 
ATOM      6  C   UNL     1      32.055 -10.153 -22.634  0.00  0.00    +0.183 C 
ATOM      7  C   UNL     1      34.303 -12.482 -24.007  0.00  0.00    +0.084 C 
ATOM      8  C   UNL     1      33.730 -14.352 -22.557  0.00  0.00    -0.005 C 
ATOM      9  C   UNL     1      32.777 -13.588 -21.876  0.00  0.00    +0.017 C 
ATOM     10  C   UNL     1      30.833 -11.342 -20.792  0.00  0.00    +0.120 C 
ENDROOT
BRANCH   3  11
ATOM     11  C   UNL     1      35.488 -14.663 -24.305  0.00  0.00    +0.120 C 
BRANCH  11  12
ATOM     12  N   UNL     1      34.887 -15.892 -24.833  0.00  0.00    -0.260 N 
ATOM     13  N   UNL     1      33.675 -17.206 -26.122  0.00  0.00    -0.394 NA
ATOM     14  C   UNL     1      35.091 -17.141 -24.337  0.00  0.00    +0.079 C 
ATOM     15  C   UNL     1      34.042 -15.965 -25.890  0.00  0.00    +0.164 C 
ATOM     16  C   UNL     1      34.319 -17.954 -25.162  0.00  0.00    +0.128 C 
ATOM     17  C   UNL     1      35.854 -17.631 -23.276  0.00  0.00    +0.017 C 
ATOM     18  C   UNL     1      33.616 -14.778 -26.659  0.00  0.00    +0.084 C 
ATOM     19  C   UNL     1      34.295 -19.339 -24.930  0.00  0.00    +0.086 C 
ATOM     20  C   UNL     1      35.817 -19.012 -23.060  0.00  0.00    -0.003 C 
ATOM     21  C   UNL     1      35.052 -19.853 -23.871  0.00  0.00    -0.019 C 
ENDBRANCH  11  12
ENDBRANCH   3  11
BRANCH   6  22
ATOM     22  C   UNL     1      31.342  -8.875 -22.438  0.00  0.00    +0.164 C 
BRANCH  22  23
ATOM     23  N   UNL     1      32.192  -7.733 -22.118  0.00  0.00    -0.326 N 
ATOM     24  H   UNL     1      32.703  -7.752 -21.276  0.00  0.00    +0.147 HD
BRANCH  23  25
ATOM     25  C   UNL     1      32.313  -6.629 -22.935  0.00  0.00    +0.045 C 
ATOM     26  C   UNL     1      33.326  -6.554 -23.915  0.00  0.00    +0.014 C 
ATOM     27  C   UNL     1      31.431  -5.535 -22.817  0.00  0.00    +0.014 C 
ATOM     28  C   UNL     1      33.449  -5.437 -24.739  0.00  0.00    +0.004 C 
ATOM     29  C   UNL     1      31.554  -4.417 -23.641  0.00  0.00    +0.004 C 
ATOM     30  C   UNL     1      32.564  -4.368 -24.602  0.00  0.00    +0.031 C 
BRANCH  30  33
ATOM     31  N   UNL     1      33.642  -3.154 -26.481  0.00  0.00    -0.343 N 
ATOM     32  N   UNL     1      31.905  -2.157 -25.277  0.00  0.00    -0.285 NA
ATOM     33  C   UNL     1      32.694  -3.201 -25.461  0.00  0.00    +0.117 C 
ATOM     34  H   UNL     1      33.712  -2.354 -27.052  0.00  0.00    +0.144 HD
ATOM     35  H   UNL     1      34.241  -3.921 -26.633  0.00  0.00    +0.144 HD
ATOM     36  H   UNL     1      31.992  -1.366 -25.858  0.00  0.00    +0.188 HD
ENDBRANCH  30  33
ENDBRANCH  23  25
ENDBRANCH  22  23
ENDBRANCH   6  22
TORSDOF 6
ENDMDL
MODEL 6
REMARK VINA RESULT:     -10.8      4.622      8.300
REMARK  Name = 445756
REMARK  6 active torsions:
REMARK  status: ('A' for Active; 'I' for Inactive)
REMARK    1  A    between atoms: C_3  and  C_11
REMARK    2  A    between atoms: C_6  and  C_22
REMARK    3  A    between atoms: C_11  and  N_12
REMARK    4  A    between atoms: C_22  and  N_23
REMARK    5  A    between atoms: N_23  and  C_25
REMARK    6  A    between atoms: C_30  and  C_33
REMARK                            x       y       z     vdW  Elec       q    Type
REMARK                         _______ _______ _______ _____ _____    ______ ____
ROOT
ATOM      1  N   UNL     1      33.334 -22.124 -18.659  0.00  0.00    -0.261 N 
ATOM      2  N   UNL     1      35.533 -22.417 -18.538  0.00  0.00    -0.392 NA
ATOM      3  C   UNL     1      35.522 -20.021 -21.406  0.00  0.00    -0.017 C 
ATOM      4  C   UNL     1      33.862 -21.341 -19.652  0.00  0.00    +0.079 C 
ATOM      5  C   UNL     1      35.237 -21.541 -19.556  0.00  0.00    +0.128 C 
ATOM      6  C   UNL     1      34.370 -22.747 -18.022  0.00  0.00    +0.183 C 
ATOM      7  C   UNL     1      36.091 -20.870 -20.448  0.00  0.00    +0.084 C 
ATOM      8  C   UNL     1      34.139 -19.840 -21.477  0.00  0.00    -0.005 C 
ATOM      9  C   UNL     1      33.274 -20.498 -20.597  0.00  0.00    +0.017 C 
ATOM     10  C   UNL     1      31.930 -22.263 -18.344  0.00  0.00    +0.120 C 
ENDROOT
BRANCH   3  11
ATOM     11  C   UNL     1      36.411 -19.297 -22.363  0.00  0.00    +0.120 C 
BRANCH  11  12
ATOM     12  N   UNL     1      35.642 -18.590 -23.392  0.00  0.00    -0.260 N 
ATOM     13  N   UNL     1      34.514 -18.250 -25.254  0.00  0.00    -0.394 NA
ATOM     14  C   UNL     1      35.295 -17.276 -23.347  0.00  0.00    +0.079 C 
ATOM     15  C   UNL     1      35.165 -19.138 -24.535  0.00  0.00    +0.164 C 
ATOM     16  C   UNL     1      34.585 -17.083 -24.529  0.00  0.00    +0.128 C 
ATOM     17  C   UNL     1      35.523 -16.263 -22.415  0.00  0.00    +0.017 C 
ATOM     18  C   UNL     1      35.370 -20.557 -24.890  0.00  0.00    +0.084 C 
ATOM     19  C   UNL     1      34.065 -15.809 -24.814  0.00  0.00    +0.086 C 
ATOM     20  C   UNL     1      34.999 -15.001 -22.717  0.00  0.00    -0.003 C 
ATOM     21  C   UNL     1      34.282 -14.776 -23.894  0.00  0.00    -0.019 C 
ENDBRANCH  11  12
ENDBRANCH   3  11
BRANCH   6  22
ATOM     22  C   UNL     1      34.156 -23.674 -16.892  0.00  0.00    +0.164 C 
BRANCH  22  23
ATOM     23  N   UNL     1      35.010 -23.447 -15.732  0.00  0.00    -0.326 N 
ATOM     24  H   UNL     1      34.700 -22.822 -15.038  0.00  0.00    +0.147 HD
BRANCH  23  25
ATOM     25  C   UNL     1      36.232 -24.062 -15.562  0.00  0.00    +0.045 C 
ATOM     26  C   UNL     1      36.319 -25.428 -15.218  0.00  0.00    +0.014 C 
ATOM     27  C   UNL     1      37.437 -23.347 -15.723  0.00  0.00    +0.014 C 
ATOM     28  C   UNL     1      37.555 -26.050 -15.044  0.00  0.00    +0.004 C 
ATOM     29  C   UNL     1      38.673 -23.969 -15.548  0.00  0.00    +0.004 C 
ATOM     30  C   UNL     1      38.732 -25.320 -15.208  0.00  0.00    +0.031 C 
BRANCH  30  33
ATOM     31  N   UNL     1      40.424 -26.440 -13.777  0.00  0.00    -0.343 N 
ATOM     32  N   UNL     1      40.837 -26.114 -16.054  0.00  0.00    -0.285 NA
ATOM     33  C   UNL     1      40.021 -25.968 -15.025  0.00  0.00    +0.117 C 
ATOM     34  H   UNL     1      41.302 -26.876 -13.676  0.00  0.00    +0.144 HD
ATOM     35  H   UNL     1      39.832 -26.339 -12.997  0.00  0.00    +0.144 HD
ATOM     36  H   UNL     1      41.710 -26.553 -15.932  0.00  0.00    +0.188 HD
ENDBRANCH  30  33
ENDBRANCH  23  25
ENDBRANCH  22  23
ENDBRANCH   6  22
TORSDOF 6
ENDMDL
MODEL 7
REMARK VINA RESULT:     -10.7      3.312      6.373
REMARK  Name = 445756
REMARK  6 active torsions:
REMARK  status: ('A' for Active; 'I' for Inactive)
REMARK    1  A    between atoms: C_3  and  C_11
REMARK    2  A    between atoms: C_6  and  C_22
REMARK    3  A    between atoms: C_11  and  N_12
REMARK    4  A    between atoms: C_22  and  N_23
REMARK    5  A    between atoms: N_23  and  C_25
REMARK    6  A    between atoms: C_30  and  C_33
REMARK                            x       y       z     vdW  Elec       q    Type
REMARK                         _______ _______ _______ _____ _____    ______ ____
ROOT
ATOM      1  N   UNL     1      35.639 -20.826 -20.322  0.00  0.00    -0.261 N 
ATOM      2  N   UNL     1      33.808 -20.567 -21.555  0.00  0.00    -0.392 NA
ATOM      3  C   UNL     1      35.861 -17.893 -23.170  0.00  0.00    -0.017 C 
ATOM      4  C   UNL     1      35.928 -19.810 -21.196  0.00  0.00    +0.079 C 
ATOM      5  C   UNL     1      34.769 -19.667 -21.955  0.00  0.00    +0.128 C 
ATOM      6  C   UNL     1      34.362 -21.245 -20.575  0.00  0.00    +0.183 C 
ATOM      7  C   UNL     1      34.728 -18.691 -22.965  0.00  0.00    +0.084 C 
ATOM      8  C   UNL     1      37.009 -18.061 -22.392  0.00  0.00    -0.005 C 
ATOM      9  C   UNL     1      37.068 -19.028 -21.384  0.00  0.00    +0.017 C 
ATOM     10  C   UNL     1      36.529 -21.358 -19.314  0.00  0.00    +0.120 C 
ENDROOT
BRANCH   3  11
ATOM     11  C   UNL     1      35.840 -16.850 -24.238  0.00  0.00    +0.120 C 
BRANCH  11  12
ATOM     12  N   UNL     1      34.842 -15.811 -23.964  0.00  0.00    -0.260 N 
ATOM     13  N   UNL     1      33.270 -14.312 -24.336  0.00  0.00    -0.394 NA
ATOM     14  C   UNL     1      34.548 -15.310 -22.735  0.00  0.00    +0.079 C 
ATOM     15  C   UNL     1      34.067 -15.198 -24.891  0.00  0.00    +0.164 C 
ATOM     16  C   UNL     1      33.556 -14.368 -22.991  0.00  0.00    +0.128 C 
ATOM     17  C   UNL     1      35.038 -15.579 -21.456  0.00  0.00    +0.017 C 
ATOM     18  C   UNL     1      34.139 -15.516 -26.332  0.00  0.00    +0.084 C 
ATOM     19  C   UNL     1      33.008 -13.642 -21.920  0.00  0.00    +0.086 C 
ATOM     20  C   UNL     1      34.481 -14.846 -20.402  0.00  0.00    -0.003 C 
ATOM     21  C   UNL     1      33.484 -13.895 -20.628  0.00  0.00    -0.019 C 
ENDBRANCH  11  12
ENDBRANCH   3  11
BRANCH   6  22
ATOM     22  C   UNL     1      33.726 -22.335 -19.808  0.00  0.00    +0.164 C 
BRANCH  22  23
ATOM     23  N   UNL     1      32.833 -21.903 -18.739  0.00  0.00    -0.326 N 
ATOM     24  H   UNL     1      32.330 -21.064 -18.861  0.00  0.00    +0.147 HD
BRANCH  23  25
ATOM     25  C   UNL     1      32.659 -22.608 -17.568  0.00  0.00    +0.045 C 
ATOM     26  C   UNL     1      31.376 -22.786 -17.007  0.00  0.00    +0.014 C 
ATOM     27  C   UNL     1      33.757 -23.175 -16.888  0.00  0.00    +0.014 C 
ATOM     28  C   UNL     1      31.200 -23.498 -15.821  0.00  0.00    +0.004 C 
ATOM     29  C   UNL     1      33.582 -23.887 -15.702  0.00  0.00    +0.004 C 
ATOM     30  C   UNL     1      32.303 -24.048 -15.168  0.00  0.00    +0.031 C 
BRANCH  30  33
ATOM     31  N   UNL     1      30.859 -25.217 -13.522  0.00  0.00    -0.343 N 
ATOM     32  N   UNL     1      33.164 -25.065 -13.168  0.00  0.00    -0.285 NA
ATOM     33  C   UNL     1      32.120 -24.789 -13.931  0.00  0.00    +0.117 C 
ATOM     34  H   UNL     1      30.758 -25.719 -12.680  0.00  0.00    +0.144 HD
ATOM     35  H   UNL     1      30.069 -25.020 -14.074  0.00  0.00    +0.144 HD
ATOM     36  H   UNL     1      33.042 -25.567 -12.329  0.00  0.00    +0.188 HD
ENDBRANCH  30  33
ENDBRANCH  23  25
ENDBRANCH  22  23
ENDBRANCH   6  22
TORSDOF 6
ENDMDL
MODEL 8
REMARK VINA RESULT:     -10.6      5.257     12.873
REMARK  Name = 445756
REMARK  6 active torsions:
REMARK  status: ('A' for Active; 'I' for Inactive)
REMARK    1  A    between atoms: C_3  and  C_11
REMARK    2  A    between atoms: C_6  and  C_22
REMARK    3  A    between atoms: C_11  and  N_12
REMARK    4  A    between atoms: C_22  and  N_23
REMARK    5  A    between atoms: N_23  and  C_25
REMARK    6  A    between atoms: C_30  and  C_33
REMARK                            x       y       z     vdW  Elec       q    Type
REMARK                         _______ _______ _______ _____ _____    ______ ____
ROOT
ATOM      1  N   UNL     1      34.879 -22.378 -18.931  0.00  0.00    -0.261 N 
ATOM      2  N   UNL     1      36.810 -21.370 -18.492  0.00  0.00    -0.392 NA
ATOM      3  C   UNL     1      36.272 -22.875 -15.113  0.00  0.00    -0.017 C 
ATOM      4  C   UNL     1      35.155 -22.671 -17.620  0.00  0.00    +0.079 C 
ATOM      5  C   UNL     1      36.365 -22.030 -17.370  0.00  0.00    +0.128 C 
ATOM      6  C   UNL     1      35.896 -21.599 -19.408  0.00  0.00    +0.183 C 
ATOM      7  C   UNL     1      36.942 -22.130 -16.093  0.00  0.00    +0.084 C 
ATOM      8  C   UNL     1      35.059 -23.507 -15.395  0.00  0.00    -0.005 C 
ATOM      9  C   UNL     1      34.471 -23.419 -16.661  0.00  0.00    +0.017 C 
ATOM     10  C   UNL     1      33.719 -22.818 -19.674  0.00  0.00    +0.120 C 
ENDROOT
BRANCH   3  11
ATOM     11  C   UNL     1      36.867 -22.995 -13.749  0.00  0.00    +0.120 C 
BRANCH  11  12
ATOM     12  N   UNL     1      37.476 -24.312 -13.535  0.00  0.00    -0.260 N 
ATOM     13  N   UNL     1      37.802 -26.320 -12.690  0.00  0.00    -0.394 NA
ATOM     14  C   UNL     1      38.559 -24.792 -14.202  0.00  0.00    +0.079 C 
ATOM     15  C   UNL     1      37.052 -25.241 -12.646  0.00  0.00    +0.164 C 
ATOM     16  C   UNL     1      38.747 -26.058 -13.654  0.00  0.00    +0.128 C 
ATOM     17  C   UNL     1      39.373 -24.262 -15.204  0.00  0.00    +0.017 C 
ATOM     18  C   UNL     1      35.889 -25.031 -11.760  0.00  0.00    +0.084 C 
ATOM     19  C   UNL     1      39.805 -26.856 -14.122  0.00  0.00    +0.086 C 
ATOM     20  C   UNL     1      40.421 -25.069 -15.656  0.00  0.00    -0.003 C 
ATOM     21  C   UNL     1      40.635 -26.344 -15.127  0.00  0.00    -0.019 C 
ENDBRANCH  11  12
ENDBRANCH   3  11
BRANCH   6  22
ATOM     22  C   UNL     1      35.918 -21.099 -20.798  0.00  0.00    +0.164 C 
BRANCH  22  23
ATOM     23  N   UNL     1      36.340 -19.711 -20.951  0.00  0.00    -0.326 N 
ATOM     24  H   UNL     1      36.977 -19.341 -20.297  0.00  0.00    +0.147 HD
BRANCH  23  25
ATOM     25  C   UNL     1      35.890 -18.892 -21.964  0.00  0.00    +0.045 C 
ATOM     26  C   UNL     1      35.908 -17.487 -21.829  0.00  0.00    +0.014 C 
ATOM     27  C   UNL     1      35.393 -19.430 -23.170  0.00  0.00    +0.014 C 
ATOM     28  C   UNL     1      35.451 -16.659 -22.854  0.00  0.00    +0.004 C 
ATOM     29  C   UNL     1      34.935 -18.601 -24.194  0.00  0.00    +0.004 C 
ATOM     30  C   UNL     1      34.964 -17.216 -24.036  0.00  0.00    +0.031 C 
BRANCH  30  33
ATOM     31  N   UNL     1      34.383 -14.974 -24.930  0.00  0.00    -0.343 N 
ATOM     32  N   UNL     1      34.135 -16.875 -26.266  0.00  0.00    -0.285 NA
ATOM     33  C   UNL     1      34.486 -16.352 -25.104  0.00  0.00    +0.117 C 
ATOM     34  H   UNL     1      34.056 -14.407 -25.667  0.00  0.00    +0.144 HD
ATOM     35  H   UNL     1      34.637 -14.565 -24.071  0.00  0.00    +0.144 HD
ATOM     36  H   UNL     1      33.810 -16.291 -26.990  0.00  0.00    +0.188 HD
ENDBRANCH  30  33
ENDBRANCH  23  25
ENDBRANCH  22  23
ENDBRANCH   6  22
TORSDOF 6
ENDMDL
MODEL 9
REMARK VINA RESULT:     -10.5      5.081     12.457
REMARK  Name = 445756
REMARK  6 active torsions:
REMARK  status: ('A' for Active; 'I' for Inactive)
REMARK    1  A    between atoms: C_3  and  C_11
REMARK    2  A    between atoms: C_6  and  C_22
REMARK    3  A    between atoms: C_11  and  N_12
REMARK    4  A    between atoms: C_22  and  N_23
REMARK    5  A    between atoms: N_23  and  C_25
REMARK    6  A    between atoms: C_30  and  C_33
REMARK                            x       y       z     vdW  Elec       q    Type
REMARK                         _______ _______ _______ _____ _____    ______ ____
ROOT
ATOM      1  N   UNL     1      34.485 -21.738 -19.521  0.00  0.00    -0.261 N 
ATOM      2  N   UNL     1      36.483 -22.104 -18.620  0.00  0.00    -0.392 NA
ATOM      3  C   UNL     1      34.457 -23.911 -16.051  0.00  0.00    -0.017 C 
ATOM      4  C   UNL     1      34.246 -22.471 -18.387  0.00  0.00    +0.079 C 
ATOM      5  C   UNL     1      35.510 -22.686 -17.843  0.00  0.00    +0.128 C 
ATOM      6  C   UNL     1      35.835 -21.544 -19.617  0.00  0.00    +0.183 C 
ATOM      7  C   UNL     1      35.625 -23.421 -16.651  0.00  0.00    +0.084 C 
ATOM      8  C   UNL     1      33.204 -23.679 -16.622  0.00  0.00    -0.005 C 
ATOM      9  C   UNL     1      33.070 -22.950 -17.808  0.00  0.00    +0.017 C 
ATOM     10  C   UNL     1      33.484 -21.258 -20.448  0.00  0.00    +0.120 C 
ENDROOT
BRANCH   3  11
ATOM     11  C   UNL     1      34.557 -24.696 -14.784  0.00  0.00    +0.120 C 
BRANCH  11  12
ATOM     12  N   UNL     1      35.948 -25.026 -14.457  0.00  0.00    -0.260 N 
ATOM     13  N   UNL     1      37.895 -26.055 -14.530  0.00  0.00    -0.394 NA
ATOM     14  C   UNL     1      36.704 -24.394 -13.521  0.00  0.00    +0.079 C 
ATOM     15  C   UNL     1      36.683 -26.005 -15.037  0.00  0.00    +0.164 C 
ATOM     16  C   UNL     1      37.927 -25.058 -13.583  0.00  0.00    +0.128 C 
ATOM     17  C   UNL     1      36.450 -23.336 -12.647  0.00  0.00    +0.017 C 
ATOM     18  C   UNL     1      36.152 -26.882 -16.100  0.00  0.00    +0.084 C 
ATOM     19  C   UNL     1      38.968 -24.654 -12.731  0.00  0.00    +0.086 C 
ATOM     20  C   UNL     1      37.499 -22.949 -11.806  0.00  0.00    -0.003 C 
ATOM     21  C   UNL     1      38.736 -23.595 -11.846  0.00  0.00    -0.019 C 
ENDBRANCH  11  12
ENDBRANCH   3  11
BRANCH   6  22
ATOM     22  C   UNL     1      36.443 -20.786 -20.729  0.00  0.00    +0.164 C 
BRANCH  22  23
ATOM     23  N   UNL     1      36.275 -19.339 -20.659  0.00  0.00    -0.326 N 
ATOM     24  H   UNL     1      36.455 -18.888 -19.802  0.00  0.00    +0.147 HD
BRANCH  23  25
ATOM     25  C   UNL     1      35.876 -18.572 -21.732  0.00  0.00    +0.045 C 
ATOM     26  C   UNL     1      35.638 -19.152 -22.996  0.00  0.00    +0.014 C 
ATOM     27  C   UNL     1      35.694 -17.178 -21.604  0.00  0.00    +0.014 C 
ATOM     28  C   UNL     1      35.236 -18.375 -24.082  0.00  0.00    +0.004 C 
ATOM     29  C   UNL     1      35.292 -16.401 -22.690  0.00  0.00    +0.004 C 
ATOM     30  C   UNL     1      35.064 -16.999 -23.929  0.00  0.00    +0.031 C 
BRANCH  30  33
ATOM     31  N   UNL     1      34.218 -14.873 -24.894  0.00  0.00    -0.343 N 
ATOM     32  N   UNL     1      34.665 -16.700 -26.280  0.00  0.00    -0.285 NA
ATOM     33  C   UNL     1      34.646 -16.188 -25.062  0.00  0.00    +0.117 C 
ATOM     34  H   UNL     1      33.939 -14.342 -25.675  0.00  0.00    +0.144 HD
ATOM     35  H   UNL     1      34.194 -14.474 -23.994  0.00  0.00    +0.144 HD
ATOM     36  H   UNL     1      34.382 -16.153 -27.049  0.00  0.00    +0.188 HD
ENDBRANCH  30  33
ENDBRANCH  23  25
ENDBRANCH  22  23
ENDBRANCH   6  22
TORSDOF 6
ENDMDL
