MODEL 1
REMARK VINA RESULT:     -11.9      0.000      0.000
REMARK  Name = 42628060
REMARK  6 active torsions:
REMARK  status: ('A' for Active; 'I' for Inactive)
REMARK    1  A    between atoms: N_2  and  C_6
REMARK    2  A    between atoms: C_3  and  C_19
REMARK    3  A    between atoms: C_9  and  N_13
REMARK    4  A    between atoms: C_19  and  N_20
REMARK    5  A    between atoms: C_21  and  N_27
REMARK    6  A    between atoms: C_28  and  C_32
REMARK                            x       y       z     vdW  Elec       q    Type
REMARK                         _______ _______ _______ _____ _____    ______ ____
ROOT
ATOM      1  O   UNL     1      33.919 -20.162 -21.020  0.00  0.00    -0.277 OA
ATOM      2  N   UNL     1      35.943 -19.423 -21.954  0.00  0.00    -0.284 N 
ATOM      3  C   UNL     1      35.128 -20.268 -21.203  0.00  0.00    +0.205 C 
ATOM      4  H   UNL     1      36.898 -19.658 -21.989  0.00  0.00    +0.155 HD
ENDROOT
BRANCH   2   6
ATOM      5  F   UNL     1      35.230 -19.550 -24.644  0.00  0.00    -0.203 F 
ATOM      6  C   UNL     1      35.558 -18.267 -22.673  0.00  0.00    +0.078 C 
ATOM      7  C   UNL     1      35.207 -18.365 -24.019  0.00  0.00    +0.155 C 
ATOM      8  C   UNL     1      35.532 -17.027 -22.034  0.00  0.00    +0.018 C 
ATOM      9  C   UNL     1      34.802 -15.984 -24.086  0.00  0.00    +0.061 C 
ATOM     10  C   UNL     1      34.828 -17.223 -24.726  0.00  0.00    +0.046 C 
ATOM     11  C   UNL     1      35.153 -15.885 -22.740  0.00  0.00    +0.017 C 
BRANCH   9  13
ATOM     12  O   UNL     1      33.695 -15.961 -26.758  0.00  0.00    -0.269 OA
ATOM     13  N   UNL     1      34.409 -14.796 -24.821  0.00  0.00    -0.233 N 
ATOM     14  C   UNL     1      33.915 -14.916 -26.145  0.00  0.00    +0.257 C 
ATOM     15  C   UNL     1      34.494 -13.535 -24.227  0.00  0.00    +0.072 C 
ATOM     16  C   UNL     1      33.576 -13.639 -26.848  0.00  0.00    +0.059 C 
ATOM     17  C   UNL     1      34.154 -12.411 -24.865  0.00  0.00    +0.017 C 
ATOM     18  C   UNL     1      33.688 -12.467 -26.218  0.00  0.00    +0.006 C 
ENDBRANCH   9  13
ENDBRANCH   2   6
BRANCH   3  19
ATOM     19  C   UNL     1      35.952 -21.391 -20.598  0.00  0.00    +0.010 C 
BRANCH  19  20
ATOM     20  N   UNL     1      35.611 -21.537 -19.191  0.00  0.00    +0.394 N 
ATOM     21  C   UNL     1      36.170 -22.236 -17.038  0.00  0.00    +0.049 C 
ATOM     22  C   UNL     1      34.843 -22.887 -17.437  0.00  0.00    -0.005 C 
ATOM     23  C   UNL     1      36.788 -21.772 -18.352  0.00  0.00    -0.057 C 
ATOM     24  C   UNL     1      34.740 -22.687 -18.944  0.00  0.00    -0.075 C 
ATOM     25  H   UNL     1      35.150 -20.659 -18.955  0.00  0.00    -0.079 HD
BRANCH  21  27
ATOM     26  O   UNL     1      35.679 -23.369 -14.446  0.00  0.00    -0.270 OA
ATOM     27  N   UNL     1      37.034 -23.126 -16.313  0.00  0.00    -0.304 N 
ATOM     28  C   UNL     1      36.713 -23.628 -15.058  0.00  0.00    +0.252 C 
ATOM     29  H   UNL     1      37.889 -23.392 -16.724  0.00  0.00    +0.150 HD
BRANCH  28  32
ATOM     30 CL   UNL     1      41.235 -26.686 -14.165  0.00  0.00    -0.075 Cl
ATOM     31  S   UNL     1      39.135 -24.927 -15.310  0.00  0.00    -0.071 S 
ATOM     32  C   UNL     1      37.726 -24.516 -14.429  0.00  0.00    +0.084 C 
ATOM     33  C   UNL     1      37.710 -25.094 -13.179  0.00  0.00    +0.012 C 
ATOM     34  C   UNL     1      38.871 -25.884 -12.941  0.00  0.00    +0.019 C 
ATOM     35  C   UNL     1      39.730 -25.880 -14.018  0.00  0.00    +0.087 C 
ENDBRANCH  28  32
ENDBRANCH  21  27
ENDBRANCH  19  20
ENDBRANCH   3  19
TORSDOF 6
ENDMDL
MODEL 2
REMARK VINA RESULT:     -11.9      7.572     13.863
REMARK  Name = 42628060
REMARK  6 active torsions:
REMARK  status: ('A' for Active; 'I' for Inactive)
REMARK    1  A    between atoms: N_2  and  C_6
REMARK    2  A    between atoms: C_3  and  C_19
REMARK    3  A    between atoms: C_9  and  N_13
REMARK    4  A    between atoms: C_19  and  N_20
REMARK    5  A    between atoms: C_21  and  N_27
REMARK    6  A    between atoms: C_28  and  C_32
REMARK                            x       y       z     vdW  Elec       q    Type
REMARK                         _______ _______ _______ _____ _____    ______ ____
ROOT
ATOM      1  O   UNL     1      32.743 -13.749 -23.769  0.00  0.00    -0.277 OA
ATOM      2  N   UNL     1      34.890 -14.480 -24.380  0.00  0.00    -0.284 N 
ATOM      3  C   UNL     1      33.788 -13.627 -24.400  0.00  0.00    +0.205 C 
ATOM      4  H   UNL     1      35.645 -14.228 -24.958  0.00  0.00    +0.155 HD
ENDROOT
BRANCH   2   6
ATOM      5  F   UNL     1      35.274 -16.950 -25.611  0.00  0.00    -0.203 F 
ATOM      6  C   UNL     1      35.048 -15.666 -23.625  0.00  0.00    +0.078 C 
ATOM      7  C   UNL     1      35.239 -16.887 -24.272  0.00  0.00    +0.155 C 
ATOM      8  C   UNL     1      35.011 -15.614 -22.232  0.00  0.00    +0.018 C 
ATOM      9  C   UNL     1      35.356 -18.002 -22.132  0.00  0.00    +0.061 C 
ATOM     10  C   UNL     1      35.393 -18.055 -23.525  0.00  0.00    +0.046 C 
ATOM     11  C   UNL     1      35.166 -16.782 -21.485  0.00  0.00    +0.017 C 
BRANCH   9  13
ATOM     12  O   UNL     1      37.863 -19.003 -21.092  0.00  0.00    -0.269 OA
ATOM     13  N   UNL     1      35.516 -19.216 -21.356  0.00  0.00    -0.233 N 
ATOM     14  C   UNL     1      36.810 -19.622 -20.937  0.00  0.00    +0.257 C 
ATOM     15  C   UNL     1      34.403 -19.981 -20.998  0.00  0.00    +0.072 C 
ATOM     16  C   UNL     1      36.891 -20.910 -20.179  0.00  0.00    +0.059 C 
ATOM     17  C   UNL     1      34.500 -21.112 -20.292  0.00  0.00    +0.017 C 
ATOM     18  C   UNL     1      35.784 -21.591 -19.877  0.00  0.00    +0.006 C 
ENDBRANCH   9  13
ENDBRANCH   2   6
BRANCH   3  19
ATOM     19  C   UNL     1      34.039 -12.469 -25.352  0.00  0.00    +0.010 C 
BRANCH  19  20
ATOM     20  N   UNL     1      34.608 -11.351 -24.614  0.00  0.00    +0.394 N 
ATOM     21  C   UNL     1      34.374  -9.251 -23.630  0.00  0.00    +0.049 C 
ATOM     22  C   UNL     1      35.539  -9.201 -24.622  0.00  0.00    -0.005 C 
ATOM     23  C   UNL     1      33.580 -10.494 -24.019  0.00  0.00    -0.057 C 
ATOM     24  C   UNL     1      35.391 -10.459 -25.469  0.00  0.00    -0.075 C 
ATOM     25  H   UNL     1      35.187 -11.794 -23.901  0.00  0.00    -0.079 HD
BRANCH  21  27
ATOM     26  O   UNL     1      33.485  -7.738 -21.357  0.00  0.00    -0.270 OA
ATOM     27  N   UNL     1      33.569  -8.061 -23.653  0.00  0.00    -0.304 N 
ATOM     28  C   UNL     1      33.184  -7.392 -22.497  0.00  0.00    +0.252 C 
ATOM     29  H   UNL     1      33.277  -7.705 -24.524  0.00  0.00    +0.150 HD
BRANCH  28  32
ATOM     30 CL   UNL     1      30.985  -2.739 -24.526  0.00  0.00    -0.075 Cl
ATOM     31  S   UNL     1      32.624  -5.164 -24.027  0.00  0.00    -0.071 S 
ATOM     32  C   UNL     1      32.330  -6.191 -22.689  0.00  0.00    +0.084 C 
ATOM     33  C   UNL     1      31.277  -5.748 -21.919  0.00  0.00    +0.012 C 
ATOM     34  C   UNL     1      30.705  -4.549 -22.434  0.00  0.00    +0.019 C 
ATOM     35  C   UNL     1      31.341  -4.122 -23.578  0.00  0.00    +0.087 C 
ENDBRANCH  28  32
ENDBRANCH  21  27
ENDBRANCH  19  20
ENDBRANCH   3  19
TORSDOF 6
ENDMDL
MODEL 3
REMARK VINA RESULT:     -11.8      7.579     13.892
REMARK  Name = 42628060
REMARK  6 active torsions:
REMARK  status: ('A' for Active; 'I' for Inactive)
REMARK    1  A    between atoms: N_2  and  C_6
REMARK    2  A    between atoms: C_3  and  C_19
REMARK    3  A    between atoms: C_9  and  N_13
REMARK    4  A    between atoms: C_19  and  N_20
REMARK    5  A    between atoms: C_21  and  N_27
REMARK    6  A    between atoms: C_28  and  C_32
REMARK                            x       y       z     vdW  Elec       q    Type
REMARK                         _______ _______ _______ _____ _____    ______ ____
ROOT
ATOM      1  O   UNL     1      32.777 -13.702 -23.687  0.00  0.00    -0.277 OA
ATOM      2  N   UNL     1      34.867 -14.513 -24.387  0.00  0.00    -0.284 N 
ATOM      3  C   UNL     1      33.795 -13.623 -24.367  0.00  0.00    +0.205 C 
ATOM      4  H   UNL     1      35.603 -14.293 -25.002  0.00  0.00    +0.155 HD
ENDROOT
BRANCH   2   6
ATOM      5  F   UNL     1      34.945 -14.452 -21.603  0.00  0.00    -0.203 F 
ATOM      6  C   UNL     1      35.021 -15.695 -23.625  0.00  0.00    +0.078 C 
ATOM      7  C   UNL     1      35.056 -15.630 -22.232  0.00  0.00    +0.155 C 
ATOM      8  C   UNL     1      35.139 -16.927 -24.269  0.00  0.00    +0.018 C 
ATOM      9  C   UNL     1      35.327 -18.028 -22.127  0.00  0.00    +0.061 C 
ATOM     10  C   UNL     1      35.209 -16.797 -21.483  0.00  0.00    +0.046 C 
ATOM     11  C   UNL     1      35.292 -18.094 -23.520  0.00  0.00    +0.017 C 
BRANCH   9  13
ATOM     12  O   UNL     1      37.820 -18.985 -21.015  0.00  0.00    -0.269 OA
ATOM     13  N   UNL     1      35.487 -19.242 -21.349  0.00  0.00    -0.233 N 
ATOM     14  C   UNL     1      36.775 -19.624 -20.892  0.00  0.00    +0.257 C 
ATOM     15  C   UNL     1      34.378 -20.028 -21.027  0.00  0.00    +0.072 C 
ATOM     16  C   UNL     1      36.858 -20.912 -20.136  0.00  0.00    +0.059 C 
ATOM     17  C   UNL     1      34.475 -21.159 -20.321  0.00  0.00    +0.017 C 
ATOM     18  C   UNL     1      35.755 -21.616 -19.869  0.00  0.00    +0.006 C 
ENDBRANCH   9  13
ENDBRANCH   2   6
BRANCH   3  19
ATOM     19  C   UNL     1      34.039 -12.485 -25.344  0.00  0.00    +0.010 C 
BRANCH  19  20
ATOM     20  N   UNL     1      34.650 -11.367 -24.641  0.00  0.00    +0.394 N 
ATOM     21  C   UNL     1      34.484  -9.249 -23.682  0.00  0.00    +0.049 C 
ATOM     22  C   UNL     1      35.618  -9.235 -24.710  0.00  0.00    -0.005 C 
ATOM     23  C   UNL     1      33.657 -10.483 -24.028  0.00  0.00    -0.057 C 
ATOM     24  C   UNL     1      35.423 -10.502 -25.533  0.00  0.00    -0.075 C 
ATOM     25  H   UNL     1      35.243 -11.810 -23.940  0.00  0.00    -0.079 HD
BRANCH  21  27
ATOM     26  O   UNL     1      32.961  -8.166 -21.502  0.00  0.00    -0.270 OA
ATOM     27  N   UNL     1      33.699  -8.045 -23.698  0.00  0.00    -0.304 N 
ATOM     28  C   UNL     1      32.991  -7.595 -22.591  0.00  0.00    +0.252 C 
ATOM     29  H   UNL     1      33.662  -7.517 -24.529  0.00  0.00    +0.150 HD
BRANCH  28  32
ATOM     30 CL   UNL     1      30.997  -2.864 -24.651  0.00  0.00    -0.075 Cl
ATOM     31  S   UNL     1      32.500  -5.377 -24.158  0.00  0.00    -0.071 S 
ATOM     32  C   UNL     1      32.207  -6.346 -22.778  0.00  0.00    +0.084 C 
ATOM     33  C   UNL     1      31.225  -5.814 -21.971  0.00  0.00    +0.012 C 
ATOM     34  C   UNL     1      30.707  -4.595 -22.494  0.00  0.00    +0.019 C 
ATOM     35  C   UNL     1      31.311  -4.242 -23.680  0.00  0.00    +0.087 C 
ENDBRANCH  28  32
ENDBRANCH  21  27
ENDBRANCH  19  20
ENDBRANCH   3  19
TORSDOF 6
ENDMDL
MODEL 4
REMARK VINA RESULT:     -11.5      5.028     12.213
REMARK  Name = 42628060
REMARK  6 active torsions:
REMARK  status: ('A' for Active; 'I' for Inactive)
REMARK    1  A    between atoms: N_2  and  C_6
REMARK    2  A    between atoms: C_3  and  C_19
REMARK    3  A    between atoms: C_9  and  N_13
REMARK    4  A    between atoms: C_19  and  N_20
REMARK    5  A    between atoms: C_21  and  N_27
REMARK    6  A    between atoms: C_28  and  C_32
REMARK                            x       y       z     vdW  Elec       q    Type
REMARK                         _______ _______ _______ _____ _____    ______ ____
ROOT
ATOM      1  O   UNL     1      36.829 -20.305 -20.066  0.00  0.00    -0.277 OA
ATOM      2  N   UNL     1      35.025 -21.621 -19.340  0.00  0.00    -0.284 N 
ATOM      3  C   UNL     1      35.687 -20.734 -20.188  0.00  0.00    +0.205 C 
ATOM      4  H   UNL     1      34.103 -21.855 -19.591  0.00  0.00    +0.155 HD
ENDROOT
BRANCH   2   6
ATOM      5  F   UNL     1      33.387 -23.132 -17.668  0.00  0.00    -0.203 F 
ATOM      6  C   UNL     1      35.525 -22.223 -18.162  0.00  0.00    +0.078 C 
ATOM      7  C   UNL     1      34.678 -22.973 -17.346  0.00  0.00    +0.155 C 
ATOM      8  C   UNL     1      36.867 -22.064 -17.815  0.00  0.00    +0.018 C 
ATOM      9  C   UNL     1      36.516 -23.406 -15.838  0.00  0.00    +0.061 C 
ATOM     10  C   UNL     1      35.174 -23.565 -16.184  0.00  0.00    +0.046 C 
ATOM     11  C   UNL     1      37.363 -22.656 -16.653  0.00  0.00    +0.017 C 
BRANCH   9  13
ATOM     12  O   UNL     1      37.299 -26.178 -15.576  0.00  0.00    -0.269 OA
ATOM     13  N   UNL     1      37.031 -24.020 -14.630  0.00  0.00    -0.233 N 
ATOM     14  C   UNL     1      37.343 -25.404 -14.618  0.00  0.00    +0.257 C 
ATOM     15  C   UNL     1      37.244 -23.255 -13.480  0.00  0.00    +0.072 C 
ATOM     16  C   UNL     1      37.825 -25.968 -13.319  0.00  0.00    +0.059 C 
ATOM     17  C   UNL     1      37.707 -23.777 -12.340  0.00  0.00    +0.017 C 
ATOM     18  C   UNL     1      38.000 -25.176 -12.258  0.00  0.00    +0.006 C 
ENDBRANCH   9  13
ENDBRANCH   2   6
BRANCH   3  19
ATOM     19  C   UNL     1      34.780 -20.332 -21.339  0.00  0.00    +0.010 C 
BRANCH  19  20
ATOM     20  N   UNL     1      35.477 -19.385 -22.196  0.00  0.00    +0.394 N 
ATOM     21  C   UNL     1      35.752 -17.216 -23.007  0.00  0.00    +0.049 C 
ATOM     22  C   UNL     1      35.559 -18.164 -24.194  0.00  0.00    -0.005 C 
ATOM     23  C   UNL     1      35.242 -17.995 -21.798  0.00  0.00    -0.057 C 
ATOM     24  C   UNL     1      35.029 -19.457 -23.587  0.00  0.00    -0.075 C 
ATOM     25  H   UNL     1      36.458 -19.643 -22.103  0.00  0.00    -0.079 HD
BRANCH  21  27
ATOM     26  O   UNL     1      34.966 -15.399 -20.927  0.00  0.00    -0.270 OA
ATOM     27  N   UNL     1      35.068 -15.964 -23.175  0.00  0.00    -0.304 N 
ATOM     28  C   UNL     1      34.726 -15.145 -22.106  0.00  0.00    +0.252 C 
ATOM     29  H   UNL     1      34.832 -15.674 -24.086  0.00  0.00    +0.150 HD
BRANCH  28  32
ATOM     30 CL   UNL     1      31.164 -10.914 -22.022  0.00  0.00    -0.075 Cl
ATOM     31  S   UNL     1      32.693 -13.396 -21.456  0.00  0.00    -0.071 S 
ATOM     32  C   UNL     1      33.998 -13.895 -22.445  0.00  0.00    +0.084 C 
ATOM     33  C   UNL     1      34.220 -13.022 -23.488  0.00  0.00    +0.012 C 
ATOM     34  C   UNL     1      33.306 -11.930 -23.474  0.00  0.00    +0.019 C 
ATOM     35  C   UNL     1      32.421 -12.008 -22.422  0.00  0.00    +0.087 C 
ENDBRANCH  28  32
ENDBRANCH  21  27
ENDBRANCH  19  20
ENDBRANCH   3  19
TORSDOF 6
ENDMDL
MODEL 5
REMARK VINA RESULT:     -11.0      5.304     11.827
REMARK  Name = 42628060
REMARK  6 active torsions:
REMARK  status: ('A' for Active; 'I' for Inactive)
REMARK    1  A    between atoms: N_2  and  C_6
REMARK    2  A    between atoms: C_3  and  C_19
REMARK    3  A    between atoms: C_9  and  N_13
REMARK    4  A    between atoms: C_19  and  N_20
REMARK    5  A    between atoms: C_21  and  N_27
REMARK    6  A    between atoms: C_28  and  C_32
REMARK                            x       y       z     vdW  Elec       q    Type
REMARK                         _______ _______ _______ _____ _____    ______ ____
ROOT
ATOM      1  O   UNL     1      36.716 -19.558 -20.678  0.00  0.00    -0.277 OA
ATOM      2  N   UNL     1      35.083 -21.222 -20.398  0.00  0.00    -0.284 N 
ATOM      3  C   UNL     1      35.730 -20.180 -21.059  0.00  0.00    +0.205 C 
ATOM      4  H   UNL     1      34.298 -21.605 -20.852  0.00  0.00    +0.155 HD
ENDROOT
BRANCH   2   6
ATOM      5  F   UNL     1      33.221 -22.648 -18.893  0.00  0.00    -0.203 F 
ATOM      6  C   UNL     1      35.423 -21.794 -19.149  0.00  0.00    +0.078 C 
ATOM      7  C   UNL     1      34.467 -22.502 -18.420  0.00  0.00    +0.155 C 
ATOM      8  C   UNL     1      36.715 -21.647 -18.646  0.00  0.00    +0.018 C 
ATOM      9  C   UNL     1      36.097 -22.916 -16.686  0.00  0.00    +0.061 C 
ATOM     10  C   UNL     1      34.805 -23.063 -17.188  0.00  0.00    +0.046 C 
ATOM     11  C   UNL     1      37.053 -22.209 -17.414  0.00  0.00    +0.017 C 
BRANCH   9  13
ATOM     12  O   UNL     1      35.799 -25.706 -15.981  0.00  0.00    -0.269 OA
ATOM     13  N   UNL     1      36.448 -23.499 -15.405  0.00  0.00    -0.233 N 
ATOM     14  C   UNL     1      36.215 -24.879 -15.169  0.00  0.00    +0.257 C 
ATOM     15  C   UNL     1      37.035 -22.717 -14.407  0.00  0.00    +0.072 C 
ATOM     16  C   UNL     1      36.563 -25.389 -13.806  0.00  0.00    +0.059 C 
ATOM     17  C   UNL     1      37.367 -23.206 -13.208  0.00  0.00    +0.017 C 
ATOM     18  C   UNL     1      37.117 -24.582 -12.899  0.00  0.00    +0.006 C 
ENDBRANCH   9  13
ENDBRANCH   2   6
BRANCH   3  19
ATOM     19  C   UNL     1      35.033 -19.881 -22.376  0.00  0.00    +0.010 C 
BRANCH  19  20
ATOM     20  N   UNL     1      35.516 -18.613 -22.902  0.00  0.00    +0.394 N 
ATOM     21  C   UNL     1      35.407 -16.286 -22.985  0.00  0.00    +0.049 C 
ATOM     22  C   UNL     1      35.269 -16.835 -24.407  0.00  0.00    -0.005 C 
ATOM     23  C   UNL     1      35.110 -17.475 -22.076  0.00  0.00    -0.057 C 
ATOM     24  C   UNL     1      34.982 -18.322 -24.232  0.00  0.00    -0.075 C 
ATOM     25  H   UNL     1      36.530 -18.723 -22.919  0.00  0.00    -0.079 HD
BRANCH  21  27
ATOM     26  O   UNL     1      34.699 -15.219 -20.415  0.00  0.00    -0.270 OA
ATOM     27  N   UNL     1      34.535 -15.173 -22.729  0.00  0.00    -0.304 N 
ATOM     28  C   UNL     1      34.248 -14.724 -21.445  0.00  0.00    +0.252 C 
ATOM     29  H   UNL     1      34.124 -14.709 -23.494  0.00  0.00    +0.150 HD
BRANCH  28  32
ATOM     30 CL   UNL     1      31.292 -10.198 -22.618  0.00  0.00    -0.075 Cl
ATOM     31  S   UNL     1      33.142 -12.519 -22.684  0.00  0.00    -0.071 S 
ATOM     32  C   UNL     1      33.307 -13.578 -21.348  0.00  0.00    +0.084 C 
ATOM     33  C   UNL     1      32.499 -13.211 -20.294  0.00  0.00    +0.012 C 
ATOM     34  C   UNL     1      31.734 -12.045 -20.588  0.00  0.00    +0.019 C 
ATOM     35  C   UNL     1      31.986 -11.566 -21.854  0.00  0.00    +0.087 C 
ENDBRANCH  28  32
ENDBRANCH  21  27
ENDBRANCH  19  20
ENDBRANCH   3  19
TORSDOF 6
ENDMDL
MODEL 6
REMARK VINA RESULT:     -10.8      3.662      6.257
REMARK  Name = 42628060
REMARK  6 active torsions:
REMARK  status: ('A' for Active; 'I' for Inactive)
REMARK    1  A    between atoms: N_2  and  C_6
REMARK    2  A    between atoms: C_3  and  C_19
REMARK    3  A    between atoms: C_9  and  N_13
REMARK    4  A    between atoms: C_19  and  N_20
REMARK    5  A    between atoms: C_21  and  N_27
REMARK    6  A    between atoms: C_28  and  C_32
REMARK                            x       y       z     vdW  Elec       q    Type
REMARK                         _______ _______ _______ _____ _____    ______ ____
ROOT
ATOM      1  O   UNL     1      35.496 -15.514 -26.015  0.00  0.00    -0.277 OA
ATOM      2  N   UNL     1      33.836 -15.287 -24.370  0.00  0.00    -0.284 N 
ATOM      3  C   UNL     1      34.677 -15.986 -25.233  0.00  0.00    +0.205 C 
ATOM      4  H   UNL     1      33.235 -15.832 -23.813  0.00  0.00    +0.155 HD
ENDROOT
BRANCH   2   6
ATOM      5  F   UNL     1      32.754 -14.164 -22.061  0.00  0.00    -0.203 F 
ATOM      6  C   UNL     1      33.746 -13.885 -24.201  0.00  0.00    +0.078 C 
ATOM      7  C   UNL     1      33.198 -13.355 -23.033  0.00  0.00    +0.155 C 
ATOM      8  C   UNL     1      34.204 -13.033 -25.206  0.00  0.00    +0.018 C 
ATOM      9  C   UNL     1      33.568 -11.120 -23.874  0.00  0.00    +0.061 C 
ATOM     10  C   UNL     1      33.110 -11.972 -22.869  0.00  0.00    +0.046 C 
ATOM     11  C   UNL     1      34.115 -11.650 -25.042  0.00  0.00    +0.017 C 
BRANCH   9  13
ATOM     12  O   UNL     1      35.725  -9.243 -24.309  0.00  0.00    -0.269 OA
ATOM     13  N   UNL     1      33.475  -9.683 -23.705  0.00  0.00    -0.233 N 
ATOM     14  C   UNL     1      34.620  -8.872 -23.911  0.00  0.00    +0.257 C 
ATOM     15  C   UNL     1      32.260  -9.087 -23.360  0.00  0.00    +0.072 C 
ATOM     16  C   UNL     1      34.450  -7.405 -23.671  0.00  0.00    +0.059 C 
ATOM     17  C   UNL     1      32.125  -7.769 -23.183  0.00  0.00    +0.017 C 
ATOM     18  C   UNL     1      33.257  -6.906 -23.337  0.00  0.00    +0.006 C 
ENDBRANCH   9  13
ENDBRANCH   2   6
BRANCH   3  19
ATOM     19  C   UNL     1      34.447 -17.481 -25.094  0.00  0.00    +0.010 C 
BRANCH  19  20
ATOM     20  N   UNL     1      35.340 -18.015 -24.076  0.00  0.00    +0.394 N 
ATOM     21  C   UNL     1      35.734 -19.464 -22.292  0.00  0.00    +0.049 C 
ATOM     22  C   UNL     1      36.068 -18.036 -21.850  0.00  0.00    -0.005 C 
ATOM     23  C   UNL     1      34.872 -19.295 -23.539  0.00  0.00    -0.057 C 
ATOM     24  C   UNL     1      35.448 -17.137 -22.912  0.00  0.00    -0.075 C 
ATOM     25  H   UNL     1      36.233 -18.114 -24.558  0.00  0.00    -0.079 HD
BRANCH  21  27
ATOM     26  O   UNL     1      36.985 -21.053 -20.255  0.00  0.00    -0.270 OA
ATOM     27  N   UNL     1      35.071 -20.225 -21.270  0.00  0.00    -0.304 N 
ATOM     28  C   UNL     1      35.761 -20.969 -20.321  0.00  0.00    +0.252 C 
ATOM     29  H   UNL     1      34.086 -20.220 -21.242  0.00  0.00    +0.150 HD
BRANCH  28  32
ATOM     30 CL   UNL     1      34.111 -23.884 -15.919  0.00  0.00    -0.075 Cl
ATOM     31  S   UNL     1      35.665 -22.366 -17.943  0.00  0.00    -0.071 S 
ATOM     32  C   UNL     1      34.928 -21.722 -19.348  0.00  0.00    +0.084 C 
ATOM     33  C   UNL     1      33.580 -22.000 -19.398  0.00  0.00    +0.012 C 
ATOM     34  C   UNL     1      33.147 -22.752 -18.268  0.00  0.00    +0.019 C 
ATOM     35  C   UNL     1      34.180 -23.019 -17.397  0.00  0.00    +0.087 C 
ENDBRANCH  28  32
ENDBRANCH  21  27
ENDBRANCH  19  20
ENDBRANCH   3  19
TORSDOF 6
ENDMDL
MODEL 7
REMARK VINA RESULT:     -10.6      4.949     12.184
REMARK  Name = 42628060
REMARK  6 active torsions:
REMARK  status: ('A' for Active; 'I' for Inactive)
REMARK    1  A    between atoms: N_2  and  C_6
REMARK    2  A    between atoms: C_3  and  C_19
REMARK    3  A    between atoms: C_9  and  N_13
REMARK    4  A    between atoms: C_19  and  N_20
REMARK    5  A    between atoms: C_21  and  N_27
REMARK    6  A    between atoms: C_28  and  C_32
REMARK                            x       y       z     vdW  Elec       q    Type
REMARK                         _______ _______ _______ _____ _____    ______ ____
ROOT
ATOM      1  O   UNL     1      32.984 -21.942 -18.962  0.00  0.00    -0.277 OA
ATOM      2  N   UNL     1      35.308 -21.645 -19.135  0.00  0.00    -0.284 N 
ATOM      3  C   UNL     1      33.984 -21.559 -19.562  0.00  0.00    +0.205 C 
ATOM      4  H   UNL     1      35.987 -21.289 -19.751  0.00  0.00    +0.155 HD
ENDROOT
BRANCH   2   6
ATOM      5  F   UNL     1      37.791 -20.920 -18.100  0.00  0.00    -0.203 F 
ATOM      6  C   UNL     1      35.788 -22.185 -17.919  0.00  0.00    +0.078 C 
ATOM      7  C   UNL     1      37.036 -21.801 -17.428  0.00  0.00    +0.155 C 
ATOM      8  C   UNL     1      35.013 -23.104 -17.211  0.00  0.00    +0.018 C 
ATOM      9  C   UNL     1      36.733 -23.254 -15.521  0.00  0.00    +0.061 C 
ATOM     10  C   UNL     1      37.508 -22.336 -16.229  0.00  0.00    +0.046 C 
ATOM     11  C   UNL     1      35.485 -23.638 -16.012  0.00  0.00    +0.017 C 
BRANCH   9  13
ATOM     12  O   UNL     1      38.026 -25.825 -15.234  0.00  0.00    -0.269 OA
ATOM     13  N   UNL     1      37.223 -23.811 -14.275  0.00  0.00    -0.233 N 
ATOM     14  C   UNL     1      37.805 -25.105 -14.260  0.00  0.00    +0.257 C 
ATOM     15  C   UNL     1      37.148 -23.073 -13.091  0.00  0.00    +0.072 C 
ATOM     16  C   UNL     1      38.243 -25.622 -12.926  0.00  0.00    +0.059 C 
ATOM     17  C   UNL     1      37.577 -23.546 -11.917  0.00  0.00    +0.017 C 
ATOM     18  C   UNL     1      38.135 -24.862 -11.834  0.00  0.00    +0.006 C 
ENDBRANCH   9  13
ENDBRANCH   2   6
BRANCH   3  19
ATOM     19  C   UNL     1      33.915 -20.908 -20.933  0.00  0.00    +0.010 C 
BRANCH  19  20
ATOM     20  N   UNL     1      34.906 -19.846 -21.014  0.00  0.00    +0.394 N 
ATOM     21  C   UNL     1      35.532 -17.717 -21.729  0.00  0.00    +0.049 C 
ATOM     22  C   UNL     1      36.561 -18.729 -22.239  0.00  0.00    -0.005 C 
ATOM     23  C   UNL     1      34.311 -18.553 -21.360  0.00  0.00    -0.057 C 
ATOM     24  C   UNL     1      35.902 -20.091 -22.057  0.00  0.00    -0.075 C 
ATOM     25  H   UNL     1      35.328 -19.829 -20.086  0.00  0.00    -0.079 HD
BRANCH  21  27
ATOM     26  O   UNL     1      34.779 -15.002 -21.176  0.00  0.00    -0.270 OA
ATOM     27  N   UNL     1      35.223 -16.699 -22.694  0.00  0.00    -0.304 N 
ATOM     28  C   UNL     1      34.866 -15.405 -22.334  0.00  0.00    +0.252 C 
ATOM     29  H   UNL     1      35.266 -16.927 -23.651  0.00  0.00    +0.150 HD
BRANCH  28  32
ATOM     30 CL   UNL     1      33.564 -13.375 -27.312  0.00  0.00    -0.075 Cl
ATOM     31  S   UNL     1      34.213 -15.122 -25.000  0.00  0.00    -0.071 S 
ATOM     32  C   UNL     1      34.552 -14.477 -23.451  0.00  0.00    +0.084 C 
ATOM     33  C   UNL     1      34.484 -13.101 -23.437  0.00  0.00    +0.012 C 
ATOM     34  C   UNL     1      34.150 -12.570 -24.716  0.00  0.00    +0.019 C 
ATOM     35  C   UNL     1      33.975 -13.559 -25.658  0.00  0.00    +0.087 C 
ENDBRANCH  28  32
ENDBRANCH  21  27
ENDBRANCH  19  20
ENDBRANCH   3  19
TORSDOF 6
ENDMDL
MODEL 8
REMARK VINA RESULT:     -10.6      4.947     11.837
REMARK  Name = 42628060
REMARK  6 active torsions:
REMARK  status: ('A' for Active; 'I' for Inactive)
REMARK    1  A    between atoms: N_2  and  C_6
REMARK    2  A    between atoms: C_3  and  C_19
REMARK    3  A    between atoms: C_9  and  N_13
REMARK    4  A    between atoms: C_19  and  N_20
REMARK    5  A    between atoms: C_21  and  N_27
REMARK    6  A    between atoms: C_28  and  C_32
REMARK                            x       y       z     vdW  Elec       q    Type
REMARK                         _______ _______ _______ _____ _____    ______ ____
ROOT
ATOM      1  O   UNL     1      36.872 -18.922 -22.465  0.00  0.00    -0.277 OA
ATOM      2  N   UNL     1      34.858 -20.064 -22.068  0.00  0.00    -0.284 N 
ATOM      3  C   UNL     1      35.730 -19.241 -22.780  0.00  0.00    +0.205 C 
ATOM      4  H   UNL     1      33.972 -20.209 -22.471  0.00  0.00    +0.155 HD
ENDROOT
BRANCH   2   6
ATOM      5  F   UNL     1      32.791 -21.225 -20.605  0.00  0.00    -0.203 F 
ATOM      6  C   UNL     1      35.099 -20.715 -20.836  0.00  0.00    +0.078 C 
ATOM      7  C   UNL     1      34.042 -21.286 -20.127  0.00  0.00    +0.155 C 
ATOM      8  C   UNL     1      36.396 -20.783 -20.327  0.00  0.00    +0.018 C 
ATOM      9  C   UNL     1      35.579 -21.994 -18.403  0.00  0.00    +0.061 C 
ATOM     10  C   UNL     1      34.282 -21.926 -18.911  0.00  0.00    +0.046 C 
ATOM     11  C   UNL     1      36.637 -21.423 -19.111  0.00  0.00    +0.017 C 
BRANCH   9  13
ATOM     12  O   UNL     1      38.043 -21.844 -16.895  0.00  0.00    -0.269 OA
ATOM     13  N   UNL     1      35.830 -22.659 -17.139  0.00  0.00    -0.233 N 
ATOM     14  C   UNL     1      37.099 -22.538 -16.516  0.00  0.00    +0.257 C 
ATOM     15  C   UNL     1      34.823 -23.401 -16.517  0.00  0.00    +0.072 C 
ATOM     16  C   UNL     1      37.288 -23.292 -15.238  0.00  0.00    +0.059 C 
ATOM     17  C   UNL     1      35.007 -24.039 -15.357  0.00  0.00    +0.017 C 
ATOM     18  C   UNL     1      36.280 -23.987 -14.704  0.00  0.00    +0.006 C 
ENDBRANCH   9  13
ENDBRANCH   2   6
BRANCH   3  19
ATOM     19  C   UNL     1      35.066 -18.752 -24.055  0.00  0.00    +0.010 C 
BRANCH  19  20
ATOM     20  N   UNL     1      35.423 -17.359 -24.283  0.00  0.00    +0.394 N 
ATOM     21  C   UNL     1      35.197 -15.102 -23.746  0.00  0.00    +0.049 C 
ATOM     22  C   UNL     1      34.913 -15.283 -25.240  0.00  0.00    -0.005 C 
ATOM     23  C   UNL     1      35.068 -16.500 -23.151  0.00  0.00    -0.057 C 
ATOM     24  C   UNL     1      34.718 -16.783 -25.427  0.00  0.00    -0.075 C 
ATOM     25  H   UNL     1      36.431 -17.384 -24.435  0.00  0.00    -0.079 HD
BRANCH  21  27
ATOM     26  O   UNL     1      34.374 -12.561 -24.800  0.00  0.00    -0.270 OA
ATOM     27  N   UNL     1      34.313 -14.159 -23.119  0.00  0.00    -0.304 N 
ATOM     28  C   UNL     1      33.968 -12.947 -23.706  0.00  0.00    +0.252 C 
ATOM     29  H   UNL     1      33.935 -14.380 -22.237  0.00  0.00    +0.150 HD
BRANCH  28  32
ATOM     30 CL   UNL     1      30.428 -11.073 -19.892  0.00  0.00    -0.075 Cl
ATOM     31  S   UNL     1      32.255 -12.720 -21.554  0.00  0.00    -0.071 S 
ATOM     32  C   UNL     1      33.064 -12.071 -22.917  0.00  0.00    +0.084 C 
ATOM     33  C   UNL     1      32.755 -10.744 -23.118  0.00  0.00    +0.012 C 
ATOM     34  C   UNL     1      31.843 -10.253 -22.140  0.00  0.00    +0.019 C 
ATOM     35  C   UNL     1      31.489 -11.223 -21.229  0.00  0.00    +0.087 C 
ENDBRANCH  28  32
ENDBRANCH  21  27
ENDBRANCH  19  20
ENDBRANCH   3  19
TORSDOF 6
ENDMDL
MODEL 9
REMARK VINA RESULT:     -10.4      5.071     11.386
REMARK  Name = 42628060
REMARK  6 active torsions:
REMARK  status: ('A' for Active; 'I' for Inactive)
REMARK    1  A    between atoms: N_2  and  C_6
REMARK    2  A    between atoms: C_3  and  C_19
REMARK    3  A    between atoms: C_9  and  N_13
REMARK    4  A    between atoms: C_19  and  N_20
REMARK    5  A    between atoms: C_21  and  N_27
REMARK    6  A    between atoms: C_28  and  C_32
REMARK                            x       y       z     vdW  Elec       q    Type
REMARK                         _______ _______ _______ _____ _____    ______ ____
ROOT
ATOM      1  O   UNL     1      35.367 -17.898 -21.413  0.00  0.00    -0.277 OA
ATOM      2  N   UNL     1      35.491 -20.168 -22.001  0.00  0.00    -0.284 N 
ATOM      3  C   UNL     1      35.679 -18.799 -22.185  0.00  0.00    +0.205 C 
ATOM      4  H   UNL     1      35.799 -20.751 -22.732  0.00  0.00    +0.155 HD
ENDROOT
BRANCH   2   6
ATOM      5  F   UNL     1      37.020 -21.700 -20.247  0.00  0.00    -0.203 F 
ATOM      6  C   UNL     1      34.910 -20.817 -20.887  0.00  0.00    +0.078 C 
ATOM      7  C   UNL     1      35.703 -21.577 -20.027  0.00  0.00    +0.155 C 
ATOM      8  C   UNL     1      33.541 -20.698 -20.649  0.00  0.00    +0.018 C 
ATOM      9  C   UNL     1      33.758 -22.097 -18.692  0.00  0.00    +0.061 C 
ATOM     10  C   UNL     1      35.127 -22.217 -18.929  0.00  0.00    +0.046 C 
ATOM     11  C   UNL     1      32.964 -21.338 -19.551  0.00  0.00    +0.017 C 
BRANCH   9  13
ATOM     12  O   UNL     1      35.213 -23.478 -16.608  0.00  0.00    -0.269 OA
ATOM     13  N   UNL     1      33.159 -22.763 -17.551  0.00  0.00    -0.233 N 
ATOM     14  C   UNL     1      33.982 -23.442 -16.617  0.00  0.00    +0.257 C 
ATOM     15  C   UNL     1      31.777 -22.723 -17.353  0.00  0.00    +0.072 C 
ATOM     16  C   UNL     1      33.280 -24.140 -15.495  0.00  0.00    +0.059 C 
ATOM     17  C   UNL     1      31.176 -23.328 -16.323  0.00  0.00    +0.017 C 
ATOM     18  C   UNL     1      31.953 -24.064 -15.372  0.00  0.00    +0.006 C 
ENDBRANCH   9  13
ENDBRANCH   2   6
BRANCH   3  19
ATOM     19  C   UNL     1      36.341 -18.535 -23.526  0.00  0.00    +0.010 C 
BRANCH  19  20
ATOM     20  N   UNL     1      35.881 -17.258 -24.050  0.00  0.00    +0.394 N 
ATOM     21  C   UNL     1      34.900 -15.170 -23.711  0.00  0.00    +0.049 C 
ATOM     22  C   UNL     1      34.120 -15.909 -24.802  0.00  0.00    -0.005 C 
ATOM     23  C   UNL     1      35.697 -16.257 -22.997  0.00  0.00    -0.057 C 
ATOM     24  C   UNL     1      34.576 -17.360 -24.703  0.00  0.00    -0.075 C 
ATOM     25  H   UNL     1      36.610 -16.983 -24.707  0.00  0.00    -0.079 HD
BRANCH  21  27
ATOM     26  O   UNL     1      33.688 -12.614 -24.198  0.00  0.00    -0.270 OA
ATOM     27  N   UNL     1      34.049 -14.439 -22.813  0.00  0.00    -0.304 N 
ATOM     28  C   UNL     1      33.504 -13.202 -23.134  0.00  0.00    +0.252 C 
ATOM     29  H   UNL     1      33.844 -14.832 -21.933  0.00  0.00    +0.150 HD
BRANCH  28  32
ATOM     30 CL   UNL     1      31.383 -11.698 -18.252  0.00  0.00    -0.075 Cl
ATOM     31  S   UNL     1      32.980 -12.914 -20.440  0.00  0.00    -0.071 S 
ATOM     32  C   UNL     1      32.667 -12.563 -22.086  0.00  0.00    +0.084 C 
ATOM     33  C   UNL     1      31.618 -11.683 -22.237  0.00  0.00    +0.012 C 
ATOM     34  C   UNL     1      31.065 -11.290 -20.984  0.00  0.00    +0.019 C 
ATOM     35  C   UNL     1      31.712 -11.886 -19.924  0.00  0.00    +0.087 C 
ENDBRANCH  28  32
ENDBRANCH  21  27
ENDBRANCH  19  20
ENDBRANCH   3  19
TORSDOF 6
ENDMDL
