MODEL 1
REMARK VINA RESULT:     -11.3      0.000      0.000
REMARK  Name = 11711595
REMARK  10 active torsions:
REMARK  status: ('A' for Active; 'I' for Inactive)
REMARK    1  A    between atoms: C_1  and  C_9
REMARK    2  A    between atoms: C_3  and  C_17
REMARK    3  A    between atoms: C_5  and  O_7
REMARK    4  A    between atoms: C_9  and  C_10
REMARK    5  A    between atoms: C_10  and  C_12
REMARK    6  A    between atoms: C_10  and  C_15
REMARK    7  A    between atoms: C_12  and  O_13
REMARK    8  A    between atoms: C_17  and  N_19
REMARK    9  A    between atoms: C_20  and  C_23
REMARK   10  A    between atoms: C_26  and  C_32
REMARK                            x       y       z     vdW  Elec       q    Type
REMARK                         _______ _______ _______ _____ _____    ______ ____
ROOT
ATOM      1  C   UNL     1      35.050 -24.156 -14.932  0.00  0.00    -0.022 C 
ATOM      2  C   UNL     1      34.318 -23.831 -16.075  0.00  0.00    -0.004 C 
ATOM      3  C   UNL     1      32.937 -23.653 -15.991  0.00  0.00    +0.031 C 
ATOM      4  C   UNL     1      34.401 -24.302 -13.706  0.00  0.00    -0.001 C 
ATOM      5  C   UNL     1      32.288 -23.799 -14.764  0.00  0.00    +0.136 C 
ATOM      6  C   UNL     1      33.020 -24.123 -13.622  0.00  0.00    +0.036 C 
ENDROOT
BRANCH   5   7
ATOM      7  O   UNL     1      30.940 -23.629 -14.665  0.00  0.00    -0.472 OA
ATOM      8  C   UNL     1      30.139 -24.809 -14.623  0.00  0.00    +0.252 C 
ENDBRANCH   5   7
BRANCH   1   9
ATOM      9  C   UNL     1      36.545 -24.349 -15.023  0.00  0.00    +0.037 C 
BRANCH   9  10
ATOM     10  C   UNL     1      37.048 -25.576 -14.239  0.00  0.00    +0.103 C 
BRANCH  10  12
ATOM     11  O   UNL     1      36.567 -27.080 -16.093  0.00  0.00    -0.250 OA
ATOM     12  C   UNL     1      37.331 -26.715 -15.209  0.00  0.00    +0.314 C 
BRANCH  12  13
ATOM     13  O   UNL     1      38.548 -27.283 -15.008  0.00  0.00    -0.480 OA
ATOM     14  H   UNL     1      39.212 -26.815 -14.540  0.00  0.00    +0.295 HD
ENDBRANCH  12  13
ENDBRANCH  10  12
BRANCH  10  15
ATOM     15  C   UNL     1      38.323 -25.219 -13.453  0.00  0.00    +0.011 C 
ATOM     16  C   UNL     1      38.023 -24.726 -12.043  0.00  0.00    +0.001 C 
ENDBRANCH  10  15
ENDBRANCH   9  10
ENDBRANCH   1   9
BRANCH   3  17
ATOM     17  C   UNL     1      32.170 -23.307 -17.224  0.00  0.00    +0.120 C 
BRANCH  17  19
ATOM     18  O   UNL     1      33.902 -23.946 -19.422  0.00  0.00    -0.270 OA
ATOM     19  N   UNL     1      32.877 -22.372 -18.061  0.00  0.00    -0.297 N 
ATOM     20  C   UNL     1      33.696 -22.777 -19.106  0.00  0.00    +0.248 C 
ATOM     21  H   UNL     1      32.776 -21.409 -17.886  0.00  0.00    +0.150 HD
BRANCH  20  23
ATOM     22  F   UNL     1      36.472 -22.292 -18.914  0.00  0.00    -0.204 F 
ATOM     23  C   UNL     1      34.377 -21.692 -19.859  0.00  0.00    +0.081 C 
ATOM     24  C   UNL     1      35.752 -21.502 -19.724  0.00  0.00    +0.144 C 
ATOM     25  C   UNL     1      33.638 -20.865 -20.704  0.00  0.00    +0.007 C 
ATOM     26  C   UNL     1      35.650 -19.656 -21.278  0.00  0.00    +0.074 C 
ATOM     27  C   UNL     1      36.389 -20.484 -20.433  0.00  0.00    +0.034 C 
ATOM     28  C   UNL     1      34.275 -19.846 -21.413  0.00  0.00    +0.004 C 
BRANCH  26  32
ATOM     29  F   UNL     1      37.694 -18.657 -22.018  0.00  0.00    -0.166 F 
ATOM     30  F   UNL     1      35.995 -18.530 -23.360  0.00  0.00    -0.166 F 
ATOM     31  F   UNL     1      36.038 -17.326 -21.549  0.00  0.00    -0.166 F 
ATOM     32  C   UNL     1      36.331 -18.567 -22.037  0.00  0.00    +0.419 C 
ENDBRANCH  26  32
ENDBRANCH  20  23
ENDBRANCH  17  19
ENDBRANCH   3  17
TORSDOF 10
ENDMDL
MODEL 2
REMARK VINA RESULT:     -10.9      2.046      4.995
REMARK  Name = 11711595
REMARK  10 active torsions:
REMARK  status: ('A' for Active; 'I' for Inactive)
REMARK    1  A    between atoms: C_1  and  C_9
REMARK    2  A    between atoms: C_3  and  C_17
REMARK    3  A    between atoms: C_5  and  O_7
REMARK    4  A    between atoms: C_9  and  C_10
REMARK    5  A    between atoms: C_10  and  C_12
REMARK    6  A    between atoms: C_10  and  C_15
REMARK    7  A    between atoms: C_12  and  O_13
REMARK    8  A    between atoms: C_17  and  N_19
REMARK    9  A    between atoms: C_20  and  C_23
REMARK   10  A    between atoms: C_26  and  C_32
REMARK                            x       y       z     vdW  Elec       q    Type
REMARK                         _______ _______ _______ _____ _____    ______ ____
ROOT
ATOM      1  C   UNL     1      31.316 -22.949 -15.282  0.00  0.00    -0.022 C 
ATOM      2  C   UNL     1      32.358 -23.192 -16.177  0.00  0.00    -0.004 C 
ATOM      3  C   UNL     1      33.572 -23.700 -15.714  0.00  0.00    +0.031 C 
ATOM      4  C   UNL     1      31.488 -23.214 -13.923  0.00  0.00    -0.001 C 
ATOM      5  C   UNL     1      33.744 -23.964 -14.354  0.00  0.00    +0.136 C 
ATOM      6  C   UNL     1      32.702 -23.721 -13.460  0.00  0.00    +0.036 C 
ENDROOT
BRANCH   5   7
ATOM      7  O   UNL     1      34.923 -24.460 -13.885  0.00  0.00    -0.472 OA
ATOM      8  C   UNL     1      35.150 -24.368 -12.480  0.00  0.00    +0.252 C 
ENDBRANCH   5   7
BRANCH   1   9
ATOM      9  C   UNL     1      30.002 -22.400 -15.784  0.00  0.00    +0.037 C 
BRANCH   9  10
ATOM     10  C   UNL     1      28.910 -23.476 -15.931  0.00  0.00    +0.103 C 
BRANCH  10  12
ATOM     11  O   UNL     1      27.717 -24.017 -17.984  0.00  0.00    -0.250 OA
ATOM     12  C   UNL     1      28.067 -23.178 -17.163  0.00  0.00    +0.314 C 
BRANCH  12  13
ATOM     13  O   UNL     1      27.714 -21.870 -17.252  0.00  0.00    -0.480 OA
ATOM     14  H   UNL     1      27.379 -21.422 -16.501  0.00  0.00    +0.295 HD
ENDBRANCH  12  13
ENDBRANCH  10  12
BRANCH  10  15
ATOM     15  C   UNL     1      29.552 -24.871 -16.053  0.00  0.00    +0.011 C 
ATOM     16  C   UNL     1      29.219 -25.774 -14.872  0.00  0.00    +0.001 C 
ENDBRANCH  10  15
ENDBRANCH   9  10
ENDBRANCH   1   9
BRANCH   3  17
ATOM     17  C   UNL     1      34.676 -23.953 -16.686  0.00  0.00    +0.120 C 
BRANCH  17  19
ATOM     18  O   UNL     1      34.030 -23.940 -19.483  0.00  0.00    -0.270 OA
ATOM     19  N   UNL     1      34.856 -22.858 -17.605  0.00  0.00    -0.297 N 
ATOM     20  C   UNL     1      34.513 -22.945 -18.947  0.00  0.00    +0.248 C 
ATOM     21  H   UNL     1      35.237 -22.016 -17.268  0.00  0.00    +0.150 HD
BRANCH  20  23
ATOM     22  F   UNL     1      37.123 -21.975 -19.418  0.00  0.00    -0.204 F 
ATOM     23  C   UNL     1      34.785 -21.738 -19.770  0.00  0.00    +0.081 C 
ATOM     24  C   UNL     1      36.097 -21.308 -19.968  0.00  0.00    +0.144 C 
ATOM     25  C   UNL     1      33.726 -21.037 -20.345  0.00  0.00    +0.007 C 
ATOM     26  C   UNL     1      35.291 -19.474 -21.317  0.00  0.00    +0.074 C 
ATOM     27  C   UNL     1      36.351 -20.176 -20.741  0.00  0.00    +0.034 C 
ATOM     28  C   UNL     1      33.979 -19.904 -21.118  0.00  0.00    +0.004 C 
BRANCH  26  32
ATOM     29  F   UNL     1      34.885 -18.248 -23.332  0.00  0.00    -0.166 F 
ATOM     30  F   UNL     1      35.224 -17.092 -21.528  0.00  0.00    -0.166 F 
ATOM     31  F   UNL     1      36.881 -18.136 -22.473  0.00  0.00    -0.166 F 
ATOM     32  C   UNL     1      35.562 -18.263 -22.145  0.00  0.00    +0.419 C 
ENDBRANCH  26  32
ENDBRANCH  20  23
ENDBRANCH  17  19
ENDBRANCH   3  17
TORSDOF 10
ENDMDL
MODEL 3
REMARK VINA RESULT:     -10.2      6.219     10.086
REMARK  Name = 11711595
REMARK  10 active torsions:
REMARK  status: ('A' for Active; 'I' for Inactive)
REMARK    1  A    between atoms: C_1  and  C_9
REMARK    2  A    between atoms: C_3  and  C_17
REMARK    3  A    between atoms: C_5  and  O_7
REMARK    4  A    between atoms: C_9  and  C_10
REMARK    5  A    between atoms: C_10  and  C_12
REMARK    6  A    between atoms: C_10  and  C_15
REMARK    7  A    between atoms: C_12  and  O_13
REMARK    8  A    between atoms: C_17  and  N_19
REMARK    9  A    between atoms: C_20  and  C_23
REMARK   10  A    between atoms: C_26  and  C_32
REMARK                            x       y       z     vdW  Elec       q    Type
REMARK                         _______ _______ _______ _____ _____    ______ ____
ROOT
ATOM      1  C   UNL     1      35.453 -18.807 -22.504  0.00  0.00    -0.022 C 
ATOM      2  C   UNL     1      35.618 -17.434 -22.694  0.00  0.00    -0.004 C 
ATOM      3  C   UNL     1      35.323 -16.860 -23.931  0.00  0.00    +0.031 C 
ATOM      4  C   UNL     1      34.994 -19.605 -23.552  0.00  0.00    -0.001 C 
ATOM      5  C   UNL     1      34.864 -17.660 -24.979  0.00  0.00    +0.136 C 
ATOM      6  C   UNL     1      34.699 -19.031 -24.789  0.00  0.00    +0.036 C 
ENDROOT
BRANCH   5   7
ATOM      7  O   UNL     1      34.572 -17.116 -26.193  0.00  0.00    -0.472 OA
ATOM      8  C   UNL     1      33.337 -16.412 -26.308  0.00  0.00    +0.252 C 
ENDBRANCH   5   7
BRANCH   1   9
ATOM      9  C   UNL     1      35.772 -19.427 -21.165  0.00  0.00    +0.037 C 
BRANCH   9  10
ATOM     10  C   UNL     1      35.004 -20.736 -20.904  0.00  0.00    +0.103 C 
BRANCH  10  12
ATOM     11  O   UNL     1      35.514 -22.723 -19.591  0.00  0.00    -0.250 OA
ATOM     12  C   UNL     1      35.718 -21.537 -19.824  0.00  0.00    +0.314 C 
BRANCH  12  13
ATOM     13  O   UNL     1      36.637 -20.802 -19.148  0.00  0.00    -0.480 OA
ATOM     14  H   UNL     1      36.569 -19.867 -19.132  0.00  0.00    +0.295 HD
ENDBRANCH  12  13
ENDBRANCH  10  12
BRANCH  10  15
ATOM     15  C   UNL     1      33.560 -20.427 -20.467  0.00  0.00    +0.011 C 
ATOM     16  C   UNL     1      32.991 -21.487 -19.531  0.00  0.00    +0.001 C 
ENDBRANCH  10  15
ENDBRANCH   9  10
ENDBRANCH   1   9
BRANCH   3  17
ATOM     17  C   UNL     1      35.506 -15.391 -24.116  0.00  0.00    +0.120 C 
BRANCH  17  19
ATOM     18  O   UNL     1      33.105 -13.868 -24.514  0.00  0.00    -0.270 OA
ATOM     19  N   UNL     1      34.800 -14.624 -23.122  0.00  0.00    -0.297 N 
ATOM     20  C   UNL     1      33.641 -13.916 -23.409  0.00  0.00    +0.248 C 
ATOM     21  H   UNL     1      35.153 -14.600 -22.204  0.00  0.00    +0.150 HD
BRANCH  20  23
ATOM     22  F   UNL     1      32.935 -11.188 -23.614  0.00  0.00    -0.204 F 
ATOM     23  C   UNL     1      33.047 -13.152 -22.282  0.00  0.00    +0.081 C 
ATOM     24  C   UNL     1      32.718 -11.807 -22.443  0.00  0.00    +0.144 C 
ATOM     25  C   UNL     1      32.817 -13.785 -21.060  0.00  0.00    +0.007 C 
ATOM     26  C   UNL     1      31.929 -11.725 -20.162  0.00  0.00    +0.074 C 
ATOM     27  C   UNL     1      32.159 -11.092 -21.384  0.00  0.00    +0.034 C 
ATOM     28  C   UNL     1      32.258 -13.071 -20.000  0.00  0.00    +0.004 C 
BRANCH  26  32
ATOM     29  F   UNL     1      31.881  -9.723 -18.852  0.00  0.00    -0.166 F 
ATOM     30  F   UNL     1      29.991 -10.739 -19.166  0.00  0.00    -0.166 F 
ATOM     31  F   UNL     1      31.476 -11.601 -17.831  0.00  0.00    -0.166 F 
ATOM     32  C   UNL     1      31.331 -10.961 -19.029  0.00  0.00    +0.419 C 
ENDBRANCH  26  32
ENDBRANCH  20  23
ENDBRANCH  17  19
ENDBRANCH   3  17
TORSDOF 10
ENDMDL
MODEL 4
REMARK VINA RESULT:     -10.2      9.808     14.819
REMARK  Name = 11711595
REMARK  10 active torsions:
REMARK  status: ('A' for Active; 'I' for Inactive)
REMARK    1  A    between atoms: C_1  and  C_9
REMARK    2  A    between atoms: C_3  and  C_17
REMARK    3  A    between atoms: C_5  and  O_7
REMARK    4  A    between atoms: C_9  and  C_10
REMARK    5  A    between atoms: C_10  and  C_12
REMARK    6  A    between atoms: C_10  and  C_15
REMARK    7  A    between atoms: C_12  and  O_13
REMARK    8  A    between atoms: C_17  and  N_19
REMARK    9  A    between atoms: C_20  and  C_23
REMARK   10  A    between atoms: C_26  and  C_32
REMARK                            x       y       z     vdW  Elec       q    Type
REMARK                         _______ _______ _______ _____ _____    ______ ____
ROOT
ATOM      1  C   UNL     1      33.136  -8.259 -22.692  0.00  0.00    -0.022 C 
ATOM      2  C   UNL     1      33.712  -9.112 -23.635  0.00  0.00    -0.004 C 
ATOM      3  C   UNL     1      33.425 -10.477 -23.609  0.00  0.00    +0.031 C 
ATOM      4  C   UNL     1      32.274  -8.772 -21.724  0.00  0.00    -0.001 C 
ATOM      5  C   UNL     1      32.561 -10.989 -22.639  0.00  0.00    +0.136 C 
ATOM      6  C   UNL     1      31.986 -10.137 -21.697  0.00  0.00    +0.036 C 
ENDROOT
BRANCH   5   7
ATOM      7  O   UNL     1      32.270 -12.319 -22.599  0.00  0.00    -0.472 OA
ATOM      8  C   UNL     1      32.157 -12.919 -21.310  0.00  0.00    +0.252 C 
ENDBRANCH   5   7
BRANCH   1   9
ATOM      9  C   UNL     1      33.448  -6.782 -22.721  0.00  0.00    +0.037 C 
BRANCH   9  10
ATOM     10  C   UNL     1      32.545  -5.989 -23.685  0.00  0.00    +0.103 C 
BRANCH  10  12
ATOM     11  O   UNL     1      30.810  -4.308 -23.378  0.00  0.00    -0.250 OA
ATOM     12  C   UNL     1      31.615  -5.089 -22.884  0.00  0.00    +0.314 C 
BRANCH  12  13
ATOM     13  O   UNL     1      31.750  -5.255 -21.543  0.00  0.00    -0.480 OA
ATOM     14  H   UNL     1      32.301  -5.936 -21.209  0.00  0.00    +0.295 HD
ENDBRANCH  12  13
ENDBRANCH  10  12
BRANCH  10  15
ATOM     15  C   UNL     1      33.403  -5.145 -24.645  0.00  0.00    +0.011 C 
ATOM     16  C   UNL     1      34.690  -5.850 -25.055  0.00  0.00    +0.001 C 
ENDBRANCH  10  15
ENDBRANCH   9  10
ENDBRANCH   1   9
BRANCH   3  17
ATOM     17  C   UNL     1      34.050 -11.374 -24.625  0.00  0.00    +0.120 C 
BRANCH  17  19
ATOM     18  O   UNL     1      33.622 -13.974 -25.763  0.00  0.00    -0.270 OA
ATOM     19  N   UNL     1      34.455 -12.636 -24.062  0.00  0.00    -0.297 N 
ATOM     20  C   UNL     1      34.203 -13.849 -24.688  0.00  0.00    +0.248 C 
ATOM     21  H   UNL     1      34.929 -12.640 -23.199  0.00  0.00    +0.150 HD
BRANCH  20  23
ATOM     22  F   UNL     1      34.870 -16.254 -26.012  0.00  0.00    -0.204 F 
ATOM     23  C   UNL     1      34.660 -15.064 -23.966  0.00  0.00    +0.081 C 
ATOM     24  C   UNL     1      34.977 -16.223 -24.675  0.00  0.00    +0.144 C 
ATOM     25  C   UNL     1      34.775 -15.044 -22.576  0.00  0.00    +0.007 C 
ATOM     26  C   UNL     1      35.522 -17.341 -22.605  0.00  0.00    +0.074 C 
ATOM     27  C   UNL     1      35.407 -17.361 -23.995  0.00  0.00    +0.034 C 
ATOM     28  C   UNL     1      35.205 -16.182 -21.895  0.00  0.00    +0.004 C 
BRANCH  26  32
ATOM     29  F   UNL     1      37.052 -18.334 -21.057  0.00  0.00    -0.166 F 
ATOM     30  F   UNL     1      35.027 -19.110 -21.073  0.00  0.00    -0.166 F 
ATOM     31  F   UNL     1      36.372 -19.558 -22.721  0.00  0.00    -0.166 F 
ATOM     32  C   UNL     1      35.983 -18.559 -21.877  0.00  0.00    +0.419 C 
ENDBRANCH  26  32
ENDBRANCH  20  23
ENDBRANCH  17  19
ENDBRANCH   3  17
TORSDOF 10
ENDMDL
MODEL 5
REMARK VINA RESULT:     -10.1     10.973     14.272
REMARK  Name = 11711595
REMARK  10 active torsions:
REMARK  status: ('A' for Active; 'I' for Inactive)
REMARK    1  A    between atoms: C_1  and  C_9
REMARK    2  A    between atoms: C_3  and  C_17
REMARK    3  A    between atoms: C_5  and  O_7
REMARK    4  A    between atoms: C_9  and  C_10
REMARK    5  A    between atoms: C_10  and  C_12
REMARK    6  A    between atoms: C_10  and  C_15
REMARK    7  A    between atoms: C_12  and  O_13
REMARK    8  A    between atoms: C_17  and  N_19
REMARK    9  A    between atoms: C_20  and  C_23
REMARK   10  A    between atoms: C_26  and  C_32
REMARK                            x       y       z     vdW  Elec       q    Type
REMARK                         _______ _______ _______ _____ _____    ______ ____
ROOT
ATOM      1  C   UNL     1      33.773 -13.636 -22.741  0.00  0.00    -0.022 C 
ATOM      2  C   UNL     1      32.881 -12.569 -22.864  0.00  0.00    -0.004 C 
ATOM      3  C   UNL     1      32.122 -12.165 -21.765  0.00  0.00    +0.031 C 
ATOM      4  C   UNL     1      33.904 -14.297 -21.520  0.00  0.00    -0.001 C 
ATOM      5  C   UNL     1      32.254 -12.827 -20.544  0.00  0.00    +0.136 C 
ATOM      6  C   UNL     1      33.145 -13.893 -20.422  0.00  0.00    +0.036 C 
ENDROOT
BRANCH   5   7
ATOM      7  O   UNL     1      31.520 -12.446 -19.462  0.00  0.00    -0.472 OA
ATOM      8  C   UNL     1      31.909 -11.239 -18.808  0.00  0.00    +0.252 C 
ENDBRANCH   5   7
BRANCH   1   9
ATOM      9  C   UNL     1      34.594 -14.073 -23.930  0.00  0.00    +0.037 C 
BRANCH   9  10
ATOM     10  C   UNL     1      34.295 -15.516 -24.377  0.00  0.00    +0.103 C 
BRANCH  10  12
ATOM     11  O   UNL     1      33.865 -16.423 -26.596  0.00  0.00    -0.250 OA
ATOM     12  C   UNL     1      33.743 -15.504 -25.796  0.00  0.00    +0.314 C 
BRANCH  12  13
ATOM     13  O   UNL     1      33.067 -14.362 -26.085  0.00  0.00    -0.480 OA
ATOM     14  H   UNL     1      32.138 -14.326 -25.970  0.00  0.00    +0.295 HD
ENDBRANCH  12  13
ENDBRANCH  10  12
BRANCH  10  15
ATOM     15  C   UNL     1      35.576 -16.369 -24.315  0.00  0.00    +0.011 C 
ATOM     16  C   UNL     1      35.368 -17.687 -23.578  0.00  0.00    +0.001 C 
ENDBRANCH  10  15
ENDBRANCH   9  10
ENDBRANCH   1   9
BRANCH   3  17
ATOM     17  C   UNL     1      31.174 -11.022 -21.915  0.00  0.00    +0.120 C 
BRANCH  17  19
ATOM     18  O   UNL     1      32.393  -8.598 -20.976  0.00  0.00    -0.270 OA
ATOM     19  N   UNL     1      31.718  -9.963 -22.726  0.00  0.00    -0.297 N 
ATOM     20  C   UNL     1      32.291  -8.822 -22.179  0.00  0.00    +0.248 C 
ATOM     21  H   UNL     1      31.682 -10.051 -23.705  0.00  0.00    +0.150 HD
BRANCH  20  23
ATOM     22  F   UNL     1      30.566  -7.382 -23.890  0.00  0.00    -0.204 F 
ATOM     23  C   UNL     1      32.782  -7.811 -23.150  0.00  0.00    +0.081 C 
ATOM     24  C   UNL     1      31.881  -7.130 -23.969  0.00  0.00    +0.144 C 
ATOM     25  C   UNL     1      34.148  -7.541 -23.240  0.00  0.00    +0.007 C 
ATOM     26  C   UNL     1      33.710  -5.910 -24.968  0.00  0.00    +0.074 C 
ATOM     27  C   UNL     1      32.344  -6.180 -24.878  0.00  0.00    +0.034 C 
ATOM     28  C   UNL     1      34.612  -6.591 -24.150  0.00  0.00    +0.004 C 
BRANCH  26  32
ATOM     29  F   UNL     1      33.727  -3.635 -25.708  0.00  0.00    -0.166 F 
ATOM     30  F   UNL     1      35.565  -4.762 -25.948  0.00  0.00    -0.166 F 
ATOM     31  F   UNL     1      33.859  -5.186 -27.228  0.00  0.00    -0.166 F 
ATOM     32  C   UNL     1      34.206  -4.893 -25.940  0.00  0.00    +0.419 C 
ENDBRANCH  26  32
ENDBRANCH  20  23
ENDBRANCH  17  19
ENDBRANCH   3  17
TORSDOF 10
ENDMDL
MODEL 6
REMARK VINA RESULT:     -10.1      6.426     10.208
REMARK  Name = 11711595
REMARK  10 active torsions:
REMARK  status: ('A' for Active; 'I' for Inactive)
REMARK    1  A    between atoms: C_1  and  C_9
REMARK    2  A    between atoms: C_3  and  C_17
REMARK    3  A    between atoms: C_5  and  O_7
REMARK    4  A    between atoms: C_9  and  C_10
REMARK    5  A    between atoms: C_10  and  C_12
REMARK    6  A    between atoms: C_10  and  C_15
REMARK    7  A    between atoms: C_12  and  O_13
REMARK    8  A    between atoms: C_17  and  N_19
REMARK    9  A    between atoms: C_20  and  C_23
REMARK   10  A    between atoms: C_26  and  C_32
REMARK                            x       y       z     vdW  Elec       q    Type
REMARK                         _______ _______ _______ _____ _____    ______ ____
ROOT
ATOM      1  C   UNL     1      34.987 -18.755 -22.578  0.00  0.00    -0.022 C 
ATOM      2  C   UNL     1      35.291 -17.396 -22.671  0.00  0.00    -0.004 C 
ATOM      3  C   UNL     1      35.186 -16.740 -23.898  0.00  0.00    +0.031 C 
ATOM      4  C   UNL     1      34.580 -19.457 -23.712  0.00  0.00    -0.001 C 
ATOM      5  C   UNL     1      34.778 -17.443 -25.032  0.00  0.00    +0.136 C 
ATOM      6  C   UNL     1      34.475 -18.801 -24.939  0.00  0.00    +0.036 C 
ENDROOT
BRANCH   5   7
ATOM      7  O   UNL     1      34.671 -16.818 -26.238  0.00  0.00    -0.472 OA
ATOM      8  C   UNL     1      33.502 -16.031 -26.458  0.00  0.00    +0.252 C 
ENDBRANCH   5   7
BRANCH   1   9
ATOM      9  C   UNL     1      35.101 -19.465 -21.250  0.00  0.00    +0.037 C 
BRANCH   9  10
ATOM     10  C   UNL     1      36.443 -20.197 -21.065  0.00  0.00    +0.103 C 
BRANCH  10  12
ATOM     11  O   UNL     1      37.923 -18.665 -19.885  0.00  0.00    -0.250 OA
ATOM     12  C   UNL     1      37.565 -19.175 -20.940  0.00  0.00    +0.314 C 
BRANCH  12  13
ATOM     13  O   UNL     1      38.155 -18.897 -22.130  0.00  0.00    -0.480 OA
ATOM     14  H   UNL     1      38.499 -19.592 -22.656  0.00  0.00    +0.295 HD
ENDBRANCH  12  13
ENDBRANCH  10  12
BRANCH  10  15
ATOM     15  C   UNL     1      36.395 -21.088 -19.810  0.00  0.00    +0.011 C 
ATOM     16  C   UNL     1      35.248 -22.090 -19.846  0.00  0.00    +0.001 C 
ENDBRANCH  10  15
ENDBRANCH   9  10
ENDBRANCH   1   9
BRANCH   3  17
ATOM     17  C   UNL     1      35.515 -15.287 -23.978  0.00  0.00    +0.120 C 
BRANCH  17  19
ATOM     18  O   UNL     1      33.064 -13.864 -24.437  0.00  0.00    -0.270 OA
ATOM     19  N   UNL     1      34.780 -14.507 -23.016  0.00  0.00    -0.297 N 
ATOM     20  C   UNL     1      33.598 -13.850 -23.331  0.00  0.00    +0.248 C 
ATOM     21  H   UNL     1      35.130 -14.435 -22.099  0.00  0.00    +0.150 HD
BRANCH  20  23
ATOM     22  F   UNL     1      33.225 -14.887 -20.731  0.00  0.00    -0.204 F 
ATOM     23  C   UNL     1      32.975 -13.065 -22.235  0.00  0.00    +0.081 C 
ATOM     24  C   UNL     1      32.818 -13.631 -20.970  0.00  0.00    +0.144 C 
ATOM     25  C   UNL     1      32.548 -11.759 -22.473  0.00  0.00    +0.007 C 
ATOM     26  C   UNL     1      31.808 -11.585 -20.180  0.00  0.00    +0.074 C 
ATOM     27  C   UNL     1      32.234 -12.892 -19.942  0.00  0.00    +0.034 C 
ATOM     28  C   UNL     1      31.964 -11.019 -21.445  0.00  0.00    +0.004 C 
BRANCH  26  32
ATOM     29  F   UNL     1      29.822 -10.711 -19.170  0.00  0.00    -0.166 F 
ATOM     30  F   UNL     1      31.428 -11.299 -17.836  0.00  0.00    -0.166 F 
ATOM     31  F   UNL     1      31.627  -9.503 -19.046  0.00  0.00    -0.166 F 
ATOM     32  C   UNL     1      31.183 -10.793 -19.080  0.00  0.00    +0.419 C 
ENDBRANCH  26  32
ENDBRANCH  20  23
ENDBRANCH  17  19
ENDBRANCH   3  17
TORSDOF 10
ENDMDL
MODEL 7
REMARK VINA RESULT:     -10.1      1.516      2.134
REMARK  Name = 11711595
REMARK  10 active torsions:
REMARK  status: ('A' for Active; 'I' for Inactive)
REMARK    1  A    between atoms: C_1  and  C_9
REMARK    2  A    between atoms: C_3  and  C_17
REMARK    3  A    between atoms: C_5  and  O_7
REMARK    4  A    between atoms: C_9  and  C_10
REMARK    5  A    between atoms: C_10  and  C_12
REMARK    6  A    between atoms: C_10  and  C_15
REMARK    7  A    between atoms: C_12  and  O_13
REMARK    8  A    between atoms: C_17  and  N_19
REMARK    9  A    between atoms: C_20  and  C_23
REMARK   10  A    between atoms: C_26  and  C_32
REMARK                            x       y       z     vdW  Elec       q    Type
REMARK                         _______ _______ _______ _____ _____    ______ ____
ROOT
ATOM      1  C   UNL     1      35.751 -24.881 -14.913  0.00  0.00    -0.022 C 
ATOM      2  C   UNL     1      34.938 -24.512 -15.986  0.00  0.00    -0.004 C 
ATOM      3  C   UNL     1      33.687 -23.942 -15.750  0.00  0.00    +0.031 C 
ATOM      4  C   UNL     1      35.312 -24.679 -13.605  0.00  0.00    -0.001 C 
ATOM      5  C   UNL     1      33.248 -23.740 -14.440  0.00  0.00    +0.136 C 
ATOM      6  C   UNL     1      34.061 -24.108 -13.368  0.00  0.00    +0.036 C 
ENDROOT
BRANCH   5   7
ATOM      7  O   UNL     1      32.029 -23.185 -14.192  0.00  0.00    -0.472 OA
ATOM      8  C   UNL     1      31.030 -24.038 -13.636  0.00  0.00    +0.252 C 
ENDBRANCH   5   7
BRANCH   1   9
ATOM      9  C   UNL     1      37.105 -25.498 -15.169  0.00  0.00    +0.037 C 
BRANCH   9  10
ATOM     10  C   UNL     1      38.269 -24.668 -14.597  0.00  0.00    +0.103 C 
BRANCH  10  12
ATOM     11  O   UNL     1      38.530 -26.333 -12.839  0.00  0.00    -0.250 OA
ATOM     12  C   UNL     1      38.605 -25.164 -13.197  0.00  0.00    +0.314 C 
BRANCH  12  13
ATOM     13  O   UNL     1      39.027 -24.168 -12.376  0.00  0.00    -0.480 OA
ATOM     14  H   UNL     1      38.564 -23.354 -12.350  0.00  0.00    +0.295 HD
ENDBRANCH  12  13
ENDBRANCH  10  12
BRANCH  10  15
ATOM     15  C   UNL     1      39.503 -24.781 -15.510  0.00  0.00    +0.011 C 
ATOM     16  C   UNL     1      40.623 -25.603 -14.884  0.00  0.00    +0.001 C 
ENDBRANCH  10  15
ENDBRANCH   9  10
ENDBRANCH   1   9
BRANCH   3  17
ATOM     17  C   UNL     1      32.831 -23.555 -16.909  0.00  0.00    +0.120 C 
BRANCH  17  19
ATOM     18  O   UNL     1      33.945 -24.049 -19.508  0.00  0.00    -0.270 OA
ATOM     19  N   UNL     1      33.475 -22.592 -17.766  0.00  0.00    -0.297 N 
ATOM     20  C   UNL     1      33.987 -22.926 -19.013  0.00  0.00    +0.248 C 
ATOM     21  H   UNL     1      33.557 -21.662 -17.455  0.00  0.00    +0.150 HD
BRANCH  20  23
ATOM     22  F   UNL     1      32.557 -21.114 -20.640  0.00  0.00    -0.204 F 
ATOM     23  C   UNL     1      34.646 -21.826 -19.762  0.00  0.00    +0.081 C 
ATOM     24  C   UNL     1      33.886 -20.962 -20.550  0.00  0.00    +0.144 C 
ATOM     25  C   UNL     1      36.028 -21.658 -19.677  0.00  0.00    +0.007 C 
ATOM     26  C   UNL     1      35.889 -19.761 -21.166  0.00  0.00    +0.074 C 
ATOM     27  C   UNL     1      34.507 -19.929 -21.252  0.00  0.00    +0.034 C 
ATOM     28  C   UNL     1      36.650 -20.626 -20.379  0.00  0.00    +0.004 C 
BRANCH  26  32
ATOM     29  F   UNL     1      35.989 -17.431 -21.702  0.00  0.00    -0.166 F 
ATOM     30  F   UNL     1      37.874 -18.499 -21.603  0.00  0.00    -0.166 F 
ATOM     31  F   UNL     1      36.518 -18.845 -23.268  0.00  0.00    -0.166 F 
ATOM     32  C   UNL     1      36.554 -18.656 -21.916  0.00  0.00    +0.419 C 
ENDBRANCH  26  32
ENDBRANCH  20  23
ENDBRANCH  17  19
ENDBRANCH   3  17
TORSDOF 10
ENDMDL
MODEL 8
REMARK VINA RESULT:      -9.9     10.668     14.418
REMARK  Name = 11711595
REMARK  10 active torsions:
REMARK  status: ('A' for Active; 'I' for Inactive)
REMARK    1  A    between atoms: C_1  and  C_9
REMARK    2  A    between atoms: C_3  and  C_17
REMARK    3  A    between atoms: C_5  and  O_7
REMARK    4  A    between atoms: C_9  and  C_10
REMARK    5  A    between atoms: C_10  and  C_12
REMARK    6  A    between atoms: C_10  and  C_15
REMARK    7  A    between atoms: C_12  and  O_13
REMARK    8  A    between atoms: C_17  and  N_19
REMARK    9  A    between atoms: C_20  and  C_23
REMARK   10  A    between atoms: C_26  and  C_32
REMARK                            x       y       z     vdW  Elec       q    Type
REMARK                         _______ _______ _______ _____ _____    ______ ____
ROOT
ATOM      1  C   UNL     1      33.655 -13.335 -22.842  0.00  0.00    -0.022 C 
ATOM      2  C   UNL     1      32.782 -12.253 -22.963  0.00  0.00    -0.004 C 
ATOM      3  C   UNL     1      32.031 -11.836 -21.863  0.00  0.00    +0.031 C 
ATOM      4  C   UNL     1      33.776 -14.000 -21.622  0.00  0.00    -0.001 C 
ATOM      5  C   UNL     1      32.153 -12.502 -20.643  0.00  0.00    +0.136 C 
ATOM      6  C   UNL     1      33.026 -13.583 -20.522  0.00  0.00    +0.036 C 
ENDROOT
BRANCH   5   7
ATOM      7  O   UNL     1      31.427 -12.108 -19.559  0.00  0.00    -0.472 OA
ATOM      8  C   UNL     1      31.955 -11.036 -18.780  0.00  0.00    +0.252 C 
ENDBRANCH   5   7
BRANCH   1   9
ATOM      9  C   UNL     1      34.467 -13.786 -24.033  0.00  0.00    +0.037 C 
BRANCH   9  10
ATOM     10  C   UNL     1      34.237 -15.263 -24.400  0.00  0.00    +0.103 C 
BRANCH  10  12
ATOM     11  O   UNL     1      33.923 -16.309 -26.577  0.00  0.00    -0.250 OA
ATOM     12  C   UNL     1      33.728 -15.356 -25.832  0.00  0.00    +0.314 C 
BRANCH  12  13
ATOM     13  O   UNL     1      33.002 -14.270 -26.202  0.00  0.00    -0.480 OA
ATOM     14  H   UNL     1      33.098 -13.462 -25.737  0.00  0.00    +0.295 HD
ENDBRANCH  12  13
ENDBRANCH  10  12
BRANCH  10  15
ATOM     15  C   UNL     1      35.547 -16.059 -24.251  0.00  0.00    +0.011 C 
ATOM     16  C   UNL     1      35.518 -17.020 -23.069  0.00  0.00    +0.001 C 
ENDBRANCH  10  15
ENDBRANCH   9  10
ENDBRANCH   1   9
BRANCH   3  17
ATOM     17  C   UNL     1      31.102 -10.677 -22.010  0.00  0.00    +0.120 C 
BRANCH  17  19
ATOM     18  O   UNL     1      32.390  -8.276 -21.105  0.00  0.00    -0.270 OA
ATOM     19  N   UNL     1      31.657  -9.635 -22.836  0.00  0.00    -0.297 N 
ATOM     20  C   UNL     1      32.263  -8.504 -22.305  0.00  0.00    +0.248 C 
ATOM     21  H   UNL     1      31.604  -9.727 -23.814  0.00  0.00    +0.150 HD
BRANCH  20  23
ATOM     22  F   UNL     1      34.893  -8.555 -23.334  0.00  0.00    -0.204 F 
ATOM     23  C   UNL     1      32.761  -7.508 -23.289  0.00  0.00    +0.081 C 
ATOM     24  C   UNL     1      34.071  -7.585 -23.762  0.00  0.00    +0.144 C 
ATOM     25  C   UNL     1      31.915  -6.496 -23.741  0.00  0.00    +0.007 C 
ATOM     26  C   UNL     1      33.689  -5.638 -25.138  0.00  0.00    +0.074 C 
ATOM     27  C   UNL     1      34.535  -6.651 -24.686  0.00  0.00    +0.034 C 
ATOM     28  C   UNL     1      32.379  -5.561 -24.666  0.00  0.00    +0.004 C 
BRANCH  26  32
ATOM     29  F   UNL     1      33.758  -4.873 -27.405  0.00  0.00    -0.166 F 
ATOM     30  F   UNL     1      33.799  -3.358 -25.852  0.00  0.00    -0.166 F 
ATOM     31  F   UNL     1      35.548  -4.602 -26.199  0.00  0.00    -0.166 F 
ATOM     32  C   UNL     1      34.185  -4.638 -26.128  0.00  0.00    +0.419 C 
ENDBRANCH  26  32
ENDBRANCH  20  23
ENDBRANCH  17  19
ENDBRANCH   3  17
TORSDOF 10
ENDMDL
MODEL 9
REMARK VINA RESULT:      -9.8     10.077     14.676
REMARK  Name = 11711595
REMARK  10 active torsions:
REMARK  status: ('A' for Active; 'I' for Inactive)
REMARK    1  A    between atoms: C_1  and  C_9
REMARK    2  A    between atoms: C_3  and  C_17
REMARK    3  A    between atoms: C_5  and  O_7
REMARK    4  A    between atoms: C_9  and  C_10
REMARK    5  A    between atoms: C_10  and  C_12
REMARK    6  A    between atoms: C_10  and  C_15
REMARK    7  A    between atoms: C_12  and  O_13
REMARK    8  A    between atoms: C_17  and  N_19
REMARK    9  A    between atoms: C_20  and  C_23
REMARK   10  A    between atoms: C_26  and  C_32
REMARK                            x       y       z     vdW  Elec       q    Type
REMARK                         _______ _______ _______ _____ _____    ______ ____
ROOT
ATOM      1  C   UNL     1      32.692  -8.038 -21.645  0.00  0.00    -0.022 C 
ATOM      2  C   UNL     1      32.214  -9.093 -22.424  0.00  0.00    -0.004 C 
ATOM      3  C   UNL     1      31.851 -10.297 -21.820  0.00  0.00    +0.031 C 
ATOM      4  C   UNL     1      32.806  -8.188 -20.263  0.00  0.00    -0.001 C 
ATOM      5  C   UNL     1      31.965 -10.446 -20.437  0.00  0.00    +0.136 C 
ATOM      6  C   UNL     1      32.443  -9.392 -19.659  0.00  0.00    +0.036 C 
ENDROOT
BRANCH   5   7
ATOM      7  O   UNL     1      31.615 -11.615 -19.832  0.00  0.00    -0.472 OA
ATOM      8  C   UNL     1      31.586 -11.623 -18.406  0.00  0.00    +0.252 C 
ENDBRANCH   5   7
BRANCH   1   9
ATOM      9  C   UNL     1      33.086  -6.734 -22.298  0.00  0.00    +0.037 C 
BRANCH   9  10
ATOM     10  C   UNL     1      32.107  -6.288 -23.399  0.00  0.00    +0.103 C 
BRANCH  10  12
ATOM     11  O   UNL     1      30.755  -4.272 -23.604  0.00  0.00    -0.250 OA
ATOM     12  C   UNL     1      31.264  -5.127 -22.889  0.00  0.00    +0.314 C 
BRANCH  12  13
ATOM     13  O   UNL     1      31.109  -5.145 -21.540  0.00  0.00    -0.480 OA
ATOM     14  H   UNL     1      31.183  -4.351 -21.049  0.00  0.00    +0.295 HD
ENDBRANCH  12  13
ENDBRANCH  10  12
BRANCH  10  15
ATOM     15  C   UNL     1      32.882  -5.865 -24.661  0.00  0.00    +0.011 C 
ATOM     16  C   UNL     1      34.379  -6.126 -24.545  0.00  0.00    +0.001 C 
ENDBRANCH  10  15
ENDBRANCH   9  10
ENDBRANCH   1   9
BRANCH   3  17
ATOM     17  C   UNL     1      31.342 -11.414 -22.669  0.00  0.00    +0.120 C 
BRANCH  17  19
ATOM     18  O   UNL     1      33.905 -11.952 -23.845  0.00  0.00    -0.270 OA
ATOM     19  N   UNL     1      32.123 -12.615 -22.516  0.00  0.00    -0.297 N 
ATOM     20  C   UNL     1      33.358 -12.785 -23.127  0.00  0.00    +0.248 C 
ATOM     21  H   UNL     1      31.767 -13.343 -21.958  0.00  0.00    +0.150 HD
BRANCH  20  23
ATOM     22  F   UNL     1      33.833 -13.818 -20.542  0.00  0.00    -0.204 F 
ATOM     23  C   UNL     1      34.026 -14.092 -22.894  0.00  0.00    +0.081 C 
ATOM     24  C   UNL     1      34.232 -14.550 -21.593  0.00  0.00    +0.144 C 
ATOM     25  C   UNL     1      34.446 -14.861 -23.979  0.00  0.00    +0.007 C 
ATOM     26  C   UNL     1      35.278 -16.546 -22.461  0.00  0.00    +0.074 C 
ATOM     27  C   UNL     1      34.858 -15.777 -21.376  0.00  0.00    +0.034 C 
ATOM     28  C   UNL     1      35.072 -16.088 -23.763  0.00  0.00    +0.004 C 
BRANCH  26  32
ATOM     29  F   UNL     1      35.085 -18.919 -22.219  0.00  0.00    -0.166 F 
ATOM     30  F   UNL     1      36.882 -18.170 -23.175  0.00  0.00    -0.166 F 
ATOM     31  F   UNL     1      36.604 -17.909 -21.034  0.00  0.00    -0.166 F 
ATOM     32  C   UNL     1      35.947 -17.859 -22.230  0.00  0.00    +0.419 C 
ENDBRANCH  26  32
ENDBRANCH  20  23
ENDBRANCH  17  19
ENDBRANCH   3  17
TORSDOF 10
ENDMDL
