MODEL 1
REMARK VINA RESULT:     -11.8      0.000      0.000
REMARK  Name = 446129
REMARK  7 active torsions:
REMARK  status: ('A' for Active; 'I' for Inactive)
REMARK    1  A    between atoms: C_1  and  O_2
REMARK    2  A    between atoms: C_1  and  C_4
REMARK    3  A    between atoms: C_1  and  C_18
REMARK    4  A    between atoms: C_4  and  N_5
REMARK    5  A    between atoms: C_18  and  O_19
REMARK    6  A    between atoms: O_19  and  C_23
REMARK    7  A    between atoms: C_20  and  C_26
REMARK                            x       y       z     vdW  Elec       q    Type
REMARK                         _______ _______ _______ _____ _____    ______ ____
ROOT
ATOM      1  C   UNL     1      34.002 -15.882 -25.316  0.00  0.00    +0.133 C 
ENDROOT
BRANCH   1   2
ATOM      2  O   UNL     1      33.824 -16.256 -26.685  0.00  0.00    -0.383 OA
ATOM      3  H   UNL     1      34.602 -15.987 -27.197  0.00  0.00    +0.210 HD
ENDBRANCH   1   2
BRANCH   1   4
ATOM      4  C   UNL     1      35.482 -16.048 -24.964  0.00  0.00    -0.043 C 
BRANCH   4   5
ATOM      5  N   UNL     1      35.724 -17.238 -24.149  0.00  0.00    +0.391 N 
ATOM      6  N   UNL     1      35.188 -19.138 -22.085  0.00  0.00    -0.298 N 
ATOM      7  C   UNL     1      34.616 -18.190 -24.286  0.00  0.00    -0.055 C 
ATOM      8  C   UNL     1      35.894 -16.869 -22.738  0.00  0.00    -0.055 C 
ATOM      9  C   UNL     1      34.883 -19.465 -23.481  0.00  0.00    +0.069 C 
ATOM     10  C   UNL     1      36.205 -18.099 -21.882  0.00  0.00    +0.069 C 
ATOM     11  H   UNL     1      36.582 -17.680 -24.479  0.00  0.00    -0.079 HD
ATOM     12  N   UNL     1      36.117 -20.493 -20.339  0.00  0.00    -0.229 NA
ATOM     13  C   UNL     1      35.040 -20.115 -21.094  0.00  0.00    +0.132 C 
ATOM     14  C   UNL     1      33.774 -20.688 -20.903  0.00  0.00    +0.034 C 
ATOM     15  C   UNL     1      33.612 -21.661 -19.924  0.00  0.00    +0.004 C 
ATOM     16  C   UNL     1      35.921 -21.442 -19.396  0.00  0.00    +0.100 C 
ATOM     17  C   UNL     1      34.701 -22.051 -19.152  0.00  0.00    +0.021 C 
ENDBRANCH   4   5
ENDBRANCH   1   4
BRANCH   1  18
ATOM     18  C   UNL     1      33.493 -14.453 -25.130  0.00  0.00    +0.232 C 
BRANCH  18  19
ATOM     19  O   UNL     1      33.755 -14.042 -23.792  0.00  0.00    -0.473 OA
BRANCH  19  23
ATOM     20  C   UNL     1      32.503 -10.229 -22.732  0.00  0.00    -0.022 C 
ATOM     21  C   UNL     1      32.010 -11.340 -22.048  0.00  0.00    -0.001 C 
ATOM     22  C   UNL     1      33.416 -10.399 -23.772  0.00  0.00    -0.001 C 
ATOM     23  C   UNL     1      33.341 -12.784 -23.443  0.00  0.00    +0.139 C 
ATOM     24  C   UNL     1      32.430 -12.621 -22.404  0.00  0.00    +0.037 C 
ATOM     25  C   UNL     1      33.836 -11.681 -24.129  0.00  0.00    +0.037 C 
BRANCH  20  26
ATOM     26  C   UNL     1      32.044  -8.836 -22.345  0.00  0.00    +0.022 C 
ATOM     27  C   UNL     1      33.106  -8.090 -21.517  0.00  0.00    +0.004 C 
ATOM     28  C   UNL     1      31.624  -8.010 -23.572  0.00  0.00    +0.004 C 
ATOM     29  C   UNL     1      32.630  -6.693 -21.125  0.00  0.00    +0.000 C 
ATOM     30  C   UNL     1      31.154  -6.612 -23.172  0.00  0.00    +0.000 C 
ATOM     31  C   UNL     1      32.206  -5.880 -22.345  0.00  0.00    +0.000 C 
ENDBRANCH  20  26
ENDBRANCH  19  23
ENDBRANCH  18  19
ENDBRANCH   1  18
TORSDOF 7
ENDMDL
MODEL 2
REMARK VINA RESULT:     -11.5      2.653     10.448
REMARK  Name = 446129
REMARK  7 active torsions:
REMARK  status: ('A' for Active; 'I' for Inactive)
REMARK    1  A    between atoms: C_1  and  O_2
REMARK    2  A    between atoms: C_1  and  C_4
REMARK    3  A    between atoms: C_1  and  C_18
REMARK    4  A    between atoms: C_4  and  N_5
REMARK    5  A    between atoms: C_18  and  O_19
REMARK    6  A    between atoms: O_19  and  C_23
REMARK    7  A    between atoms: C_20  and  C_26
REMARK                            x       y       z     vdW  Elec       q    Type
REMARK                         _______ _______ _______ _____ _____    ______ ____
ROOT
ATOM      1  C   UNL     1      33.973 -14.957 -25.778  0.00  0.00    +0.133 C 
ENDROOT
BRANCH   1   2
ATOM      2  O   UNL     1      32.752 -14.665 -26.463  0.00  0.00    -0.383 OA
ATOM      3  H   UNL     1      32.003 -14.991 -25.942  0.00  0.00    +0.210 HD
ENDBRANCH   1   2
BRANCH   1   4
ATOM      4  C   UNL     1      33.842 -14.459 -24.337  0.00  0.00    -0.043 C 
BRANCH   4   5
ATOM      5  N   UNL     1      33.315 -13.096 -24.271  0.00  0.00    +0.391 N 
ATOM      6  N   UNL     1      33.292 -10.343 -23.513  0.00  0.00    -0.298 N 
ATOM      7  C   UNL     1      34.255 -12.150 -24.883  0.00  0.00    -0.055 C 
ATOM      8  C   UNL     1      33.054 -12.712 -22.879  0.00  0.00    -0.055 C 
ATOM      9  C   UNL     1      33.690 -10.727 -24.871  0.00  0.00    +0.069 C 
ATOM     10  C   UNL     1      32.448 -11.309 -22.800  0.00  0.00    +0.069 C 
ATOM     11  H   UNL     1      32.437 -13.070 -24.790  0.00  0.00    -0.079 HD
ATOM     12  N   UNL     1      31.961  -8.502 -22.747  0.00  0.00    -0.229 NA
ATOM     13  C   UNL     1      33.163  -8.988 -23.184  0.00  0.00    +0.132 C 
ATOM     14  C   UNL     1      34.285  -8.159 -23.316  0.00  0.00    +0.034 C 
ATOM     15  C   UNL     1      34.172  -6.810 -22.994  0.00  0.00    +0.004 C 
ATOM     16  C   UNL     1      31.889  -7.187 -22.443  0.00  0.00    +0.100 C 
ATOM     17  C   UNL     1      32.955  -6.308 -22.548  0.00  0.00    +0.021 C 
ENDBRANCH   4   5
ENDBRANCH   1   4
BRANCH   1  18
ATOM     18  C   UNL     1      34.242 -16.458 -25.877  0.00  0.00    +0.232 C 
BRANCH  18  19
ATOM     19  O   UNL     1      35.438 -16.759 -25.166  0.00  0.00    -0.473 OA
BRANCH  19  23
ATOM     20  C   UNL     1      35.066 -19.203 -21.832  0.00  0.00    -0.022 C 
ATOM     21  C   UNL     1      34.663 -19.666 -23.084  0.00  0.00    -0.001 C 
ATOM     22  C   UNL     1      35.593 -17.919 -21.700  0.00  0.00    -0.001 C 
ATOM     23  C   UNL     1      35.315 -17.565 -24.066  0.00  0.00    +0.139 C 
ATOM     24  C   UNL     1      34.788 -18.845 -24.204  0.00  0.00    +0.037 C 
ATOM     25  C   UNL     1      35.717 -17.097 -22.820  0.00  0.00    +0.037 C 
BRANCH  20  26
ATOM     26  C   UNL     1      34.929 -20.096 -20.613  0.00  0.00    +0.022 C 
ATOM     27  C   UNL     1      33.601 -20.875 -20.618  0.00  0.00    +0.004 C 
ATOM     28  C   UNL     1      36.125 -21.051 -20.465  0.00  0.00    +0.004 C 
ATOM     29  C   UNL     1      33.469 -21.763 -19.382  0.00  0.00    +0.000 C 
ATOM     30  C   UNL     1      35.983 -21.939 -19.230  0.00  0.00    +0.000 C 
ATOM     31  C   UNL     1      34.662 -22.703 -19.235  0.00  0.00    +0.000 C 
ENDBRANCH  20  26
ENDBRANCH  19  23
ENDBRANCH  18  19
ENDBRANCH   1  18
TORSDOF 7
ENDMDL
MODEL 3
REMARK VINA RESULT:     -11.4      2.961     10.957
REMARK  Name = 446129
REMARK  7 active torsions:
REMARK  status: ('A' for Active; 'I' for Inactive)
REMARK    1  A    between atoms: C_1  and  O_2
REMARK    2  A    between atoms: C_1  and  C_4
REMARK    3  A    between atoms: C_1  and  C_18
REMARK    4  A    between atoms: C_4  and  N_5
REMARK    5  A    between atoms: C_18  and  O_19
REMARK    6  A    between atoms: O_19  and  C_23
REMARK    7  A    between atoms: C_20  and  C_26
REMARK                            x       y       z     vdW  Elec       q    Type
REMARK                         _______ _______ _______ _____ _____    ______ ____
ROOT
ATOM      1  C   UNL     1      35.885 -17.947 -22.693  0.00  0.00    +0.133 C 
ENDROOT
BRANCH   1   2
ATOM      2  O   UNL     1      37.270 -18.247 -22.881  0.00  0.00    -0.383 OA
ATOM      3  H   UNL     1      37.575 -18.829 -22.167  0.00  0.00    +0.210 HD
ENDBRANCH   1   2
BRANCH   1   4
ATOM      4  C   UNL     1      35.367 -17.270 -23.964  0.00  0.00    -0.043 C 
BRANCH   4   5
ATOM      5  N   UNL     1      35.208 -15.826 -23.794  0.00  0.00    +0.391 N 
ATOM      6  N   UNL     1      33.788 -13.400 -23.287  0.00  0.00    -0.298 N 
ATOM      7  C   UNL     1      34.725 -15.516 -22.443  0.00  0.00    -0.055 C 
ATOM      8  C   UNL     1      34.277 -15.289 -24.793  0.00  0.00    -0.055 C 
ATOM      9  C   UNL     1      34.609 -14.005 -22.233  0.00  0.00    +0.069 C 
ATOM     10  C   UNL     1      34.146 -13.770 -24.662  0.00  0.00    +0.069 C 
ATOM     11  H   UNL     1      36.121 -15.389 -23.926  0.00  0.00    -0.079 HD
ATOM     12  N   UNL     1      33.497 -11.102 -23.902  0.00  0.00    -0.229 NA
ATOM     13  C   UNL     1      33.196 -12.150 -23.075  0.00  0.00    +0.132 C 
ATOM     14  C   UNL     1      32.301 -12.007 -22.006  0.00  0.00    +0.034 C 
ATOM     15  C   UNL     1      31.706 -10.770 -21.782  0.00  0.00    +0.004 C 
ATOM     16  C   UNL     1      32.898  -9.915 -23.654  0.00  0.00    +0.100 C 
ATOM     17  C   UNL     1      32.004  -9.700 -22.617  0.00  0.00    +0.021 C 
ENDBRANCH   4   5
ENDBRANCH   1   4
BRANCH   1  18
ATOM     18  C   UNL     1      35.146 -19.241 -22.354  0.00  0.00    +0.232 C 
BRANCH  18  19
ATOM     19  O   UNL     1      36.001 -20.068 -21.570  0.00  0.00    -0.473 OA
BRANCH  19  23
ATOM     20  C   UNL     1      34.191 -22.363 -18.624  0.00  0.00    -0.022 C 
ATOM     21  C   UNL     1      33.408 -21.642 -19.525  0.00  0.00    -0.001 C 
ATOM     22  C   UNL     1      35.582 -22.313 -18.713  0.00  0.00    -0.001 C 
ATOM     23  C   UNL     1      35.404 -20.824 -20.598  0.00  0.00    +0.139 C 
ATOM     24  C   UNL     1      34.016 -20.870 -20.515  0.00  0.00    +0.037 C 
ATOM     25  C   UNL     1      36.190 -21.540 -19.703  0.00  0.00    +0.037 C 
BRANCH  20  26
ATOM     26  C   UNL     1      33.530 -23.202 -17.546  0.00  0.00    +0.022 C 
ATOM     27  C   UNL     1      34.334 -23.189 -16.234  0.00  0.00    +0.004 C 
ATOM     28  C   UNL     1      32.072 -22.773 -17.302  0.00  0.00    +0.004 C 
ATOM     29  C   UNL     1      33.664 -24.043 -15.159  0.00  0.00    +0.000 C 
ATOM     30  C   UNL     1      31.411 -23.629 -16.223  0.00  0.00    +0.000 C 
ATOM     31  C   UNL     1      32.216 -23.621 -14.927  0.00  0.00    +0.000 C 
ENDBRANCH  20  26
ENDBRANCH  19  23
ENDBRANCH  18  19
ENDBRANCH   1  18
TORSDOF 7
ENDMDL
MODEL 4
REMARK VINA RESULT:     -11.4      2.727     10.682
REMARK  Name = 446129
REMARK  7 active torsions:
REMARK  status: ('A' for Active; 'I' for Inactive)
REMARK    1  A    between atoms: C_1  and  O_2
REMARK    2  A    between atoms: C_1  and  C_4
REMARK    3  A    between atoms: C_1  and  C_18
REMARK    4  A    between atoms: C_4  and  N_5
REMARK    5  A    between atoms: C_18  and  O_19
REMARK    6  A    between atoms: O_19  and  C_23
REMARK    7  A    between atoms: C_20  and  C_26
REMARK                            x       y       z     vdW  Elec       q    Type
REMARK                         _______ _______ _______ _____ _____    ______ ____
ROOT
ATOM      1  C   UNL     1      35.892 -18.105 -23.166  0.00  0.00    +0.133 C 
ENDROOT
BRANCH   1   2
ATOM      2  O   UNL     1      37.304 -18.324 -23.171  0.00  0.00    -0.383 OA
ATOM      3  H   UNL     1      37.491 -19.239 -22.906  0.00  0.00    +0.210 HD
ENDBRANCH   1   2
BRANCH   1   4
ATOM      4  C   UNL     1      35.548 -17.185 -24.341  0.00  0.00    -0.043 C 
BRANCH   4   5
ATOM      5  N   UNL     1      35.208 -15.833 -23.900  0.00  0.00    +0.391 N 
ATOM      6  N   UNL     1      33.555 -13.798 -22.765  0.00  0.00    -0.298 N 
ATOM      7  C   UNL     1      34.938 -15.813 -22.457  0.00  0.00    -0.055 C 
ATOM      8  C   UNL     1      34.039 -15.331 -24.633  0.00  0.00    -0.055 C 
ATOM      9  C   UNL     1      34.636 -14.393 -21.973  0.00  0.00    +0.069 C 
ATOM     10  C   UNL     1      33.707 -13.894 -24.222  0.00  0.00    +0.069 C 
ATOM     11  H   UNL     1      36.004 -15.225 -24.095  0.00  0.00    -0.079 HD
ATOM     12  N   UNL     1      32.813 -11.524 -22.919  0.00  0.00    -0.229 NA
ATOM     13  C   UNL     1      32.830 -12.717 -22.250  0.00  0.00    +0.132 C 
ATOM     14  C   UNL     1      32.134 -12.893 -21.046  0.00  0.00    +0.034 C 
ATOM     15  C   UNL     1      31.410 -11.828 -20.521  0.00  0.00    +0.004 C 
ATOM     16  C   UNL     1      32.098 -10.511 -22.378  0.00  0.00    +0.100 C 
ATOM     17  C   UNL     1      31.386 -10.612 -21.194  0.00  0.00    +0.021 C 
ENDBRANCH   4   5
ENDBRANCH   1   4
BRANCH   1  18
ATOM     18  C   UNL     1      35.186 -19.458 -23.233  0.00  0.00    +0.232 C 
BRANCH  18  19
ATOM     19  O   UNL     1      34.182 -19.504 -22.223  0.00  0.00    -0.473 OA
BRANCH  19  23
ATOM     20  C   UNL     1      34.902 -22.001 -18.987  0.00  0.00    -0.022 C 
ATOM     21  C   UNL     1      35.970 -21.421 -19.671  0.00  0.00    -0.001 C 
ATOM     22  C   UNL     1      33.593 -21.743 -19.392  0.00  0.00    -0.001 C 
ATOM     23  C   UNL     1      34.420 -20.328 -21.156  0.00  0.00    +0.139 C 
ATOM     24  C   UNL     1      35.729 -20.581 -20.758  0.00  0.00    +0.037 C 
ATOM     25  C   UNL     1      33.351 -20.905 -20.480  0.00  0.00    +0.037 C 
BRANCH  20  26
ATOM     26  C   UNL     1      35.166 -22.915 -17.805  0.00  0.00    +0.022 C 
ATOM     27  C   UNL     1      36.377 -22.450 -16.978  0.00  0.00    +0.004 C 
ATOM     28  C   UNL     1      33.921 -23.074 -16.916  0.00  0.00    +0.004 C 
ATOM     29  C   UNL     1      36.639 -23.382 -15.796  0.00  0.00    +0.000 C 
ATOM     30  C   UNL     1      34.193 -24.004 -15.734  0.00  0.00    +0.000 C 
ATOM     31  C   UNL     1      35.399 -23.544 -14.922  0.00  0.00    +0.000 C 
ENDBRANCH  20  26
ENDBRANCH  19  23
ENDBRANCH  18  19
ENDBRANCH   1  18
TORSDOF 7
ENDMDL
MODEL 5
REMARK VINA RESULT:     -11.4      0.655      1.627
REMARK  Name = 446129
REMARK  7 active torsions:
REMARK  status: ('A' for Active; 'I' for Inactive)
REMARK    1  A    between atoms: C_1  and  O_2
REMARK    2  A    between atoms: C_1  and  C_4
REMARK    3  A    between atoms: C_1  and  C_18
REMARK    4  A    between atoms: C_4  and  N_5
REMARK    5  A    between atoms: C_18  and  O_19
REMARK    6  A    between atoms: O_19  and  C_23
REMARK    7  A    between atoms: C_20  and  C_26
REMARK                            x       y       z     vdW  Elec       q    Type
REMARK                         _______ _______ _______ _____ _____    ______ ____
ROOT
ATOM      1  C   UNL     1      33.982 -15.577 -25.636  0.00  0.00    +0.133 C 
ENDROOT
BRANCH   1   2
ATOM      2  O   UNL     1      33.816 -15.672 -27.053  0.00  0.00    -0.383 OA
ATOM      3  H   UNL     1      33.951 -16.591 -27.334  0.00  0.00    +0.210 HD
ENDBRANCH   1   2
BRANCH   1   4
ATOM      4  C   UNL     1      35.146 -16.484 -25.230  0.00  0.00    -0.043 C 
BRANCH   4   5
ATOM      5  N   UNL     1      34.845 -17.261 -24.028  0.00  0.00    +0.391 N 
ATOM      6  N   UNL     1      35.294 -19.251 -22.029  0.00  0.00    -0.298 N 
ATOM      7  C   UNL     1      35.895 -17.076 -23.019  0.00  0.00    -0.055 C 
ATOM      8  C   UNL     1      34.713 -18.685 -24.356  0.00  0.00    -0.055 C 
ATOM      9  C   UNL     1      35.563 -17.840 -21.734  0.00  0.00    +0.069 C 
ATOM     10  C   UNL     1      34.341 -19.503 -23.117  0.00  0.00    +0.069 C 
ATOM     11  H   UNL     1      33.959 -16.927 -23.648  0.00  0.00    -0.079 HD
ATOM     12  N   UNL     1      34.308 -20.961 -20.669  0.00  0.00    -0.229 NA
ATOM     13  C   UNL     1      35.396 -20.205 -21.010  0.00  0.00    +0.132 C 
ATOM     14  C   UNL     1      36.629 -20.359 -20.360  0.00  0.00    +0.034 C 
ATOM     15  C   UNL     1      36.745 -21.302 -19.345  0.00  0.00    +0.004 C 
ATOM     16  C   UNL     1      34.459 -21.868 -19.678  0.00  0.00    +0.100 C 
ATOM     17  C   UNL     1      35.645 -22.075 -18.992  0.00  0.00    +0.021 C 
ENDBRANCH   4   5
ENDBRANCH   1   4
BRANCH   1  18
ATOM     18  C   UNL     1      34.201 -14.111 -25.267  0.00  0.00    +0.232 C 
BRANCH  18  19
ATOM     19  O   UNL     1      33.898 -13.934 -23.886  0.00  0.00    -0.473 OA
BRANCH  19  23
ATOM     20  C   UNL     1      32.527 -10.187 -22.741  0.00  0.00    -0.022 C 
ATOM     21  C   UNL     1      33.427 -10.307 -23.800  0.00  0.00    -0.001 C 
ATOM     22  C   UNL     1      32.089 -11.327 -22.067  0.00  0.00    -0.001 C 
ATOM     23  C   UNL     1      33.447 -12.698 -23.508  0.00  0.00    +0.139 C 
ATOM     24  C   UNL     1      33.888 -11.566 -24.185  0.00  0.00    +0.037 C 
ATOM     25  C   UNL     1      32.550 -12.586 -22.451  0.00  0.00    +0.037 C 
BRANCH  20  26
ATOM     26  C   UNL     1      32.028  -8.818 -22.322  0.00  0.00    +0.022 C 
ATOM     27  C   UNL     1      33.049  -8.079 -21.440  0.00  0.00    +0.004 C 
ATOM     28  C   UNL     1      31.625  -7.960 -23.534  0.00  0.00    +0.004 C 
ATOM     29  C   UNL     1      32.532  -6.705 -21.017  0.00  0.00    +0.000 C 
ATOM     30  C   UNL     1      31.113  -6.586 -23.102  0.00  0.00    +0.000 C 
ATOM     31  C   UNL     1      32.125  -5.861 -22.221  0.00  0.00    +0.000 C 
ENDBRANCH  20  26
ENDBRANCH  19  23
ENDBRANCH  18  19
ENDBRANCH   1  18
TORSDOF 7
ENDMDL
MODEL 6
REMARK VINA RESULT:     -10.7      2.912     10.944
REMARK  Name = 446129
REMARK  7 active torsions:
REMARK  status: ('A' for Active; 'I' for Inactive)
REMARK    1  A    between atoms: C_1  and  O_2
REMARK    2  A    between atoms: C_1  and  C_4
REMARK    3  A    between atoms: C_1  and  C_18
REMARK    4  A    between atoms: C_4  and  N_5
REMARK    5  A    between atoms: C_18  and  O_19
REMARK    6  A    between atoms: O_19  and  C_23
REMARK    7  A    between atoms: C_20  and  C_26
REMARK                            x       y       z     vdW  Elec       q    Type
REMARK                         _______ _______ _______ _____ _____    ______ ____
ROOT
ATOM      1  C   UNL     1      34.102 -14.325 -23.202  0.00  0.00    +0.133 C 
ENDROOT
BRANCH   1   2
ATOM      2  O   UNL     1      35.216 -13.435 -23.105  0.00  0.00    -0.383 OA
ATOM      3  H   UNL     1      35.971 -13.807 -23.586  0.00  0.00    +0.210 HD
ENDBRANCH   1   2
BRANCH   1   4
ATOM      4  C   UNL     1      32.819 -13.498 -23.087  0.00  0.00    -0.043 C 
BRANCH   4   5
ATOM      5  N   UNL     1      33.097 -12.070 -22.938  0.00  0.00    +0.391 N 
ATOM      6  N   UNL     1      32.704  -9.276 -23.387  0.00  0.00    -0.298 N 
ATOM      7  C   UNL     1      31.942 -11.378 -22.352  0.00  0.00    -0.055 C 
ATOM      8  C   UNL     1      33.430 -11.473 -24.237  0.00  0.00    -0.055 C 
ATOM      9  C   UNL     1      32.241  -9.892 -22.139  0.00  0.00    +0.069 C 
ATOM     10  C   UNL     1      33.779  -9.990 -24.088  0.00  0.00    +0.069 C 
ATOM     11  H   UNL     1      33.896 -11.965 -22.313  0.00  0.00    -0.079 HD
ATOM     12  N   UNL     1      33.756  -7.158 -23.776  0.00  0.00    -0.229 NA
ATOM     13  C   UNL     1      32.621  -7.889 -23.549  0.00  0.00    +0.132 C 
ATOM     14  C   UNL     1      31.361  -7.280 -23.471  0.00  0.00    +0.034 C 
ATOM     15  C   UNL     1      31.263  -5.902 -23.629  0.00  0.00    +0.004 C 
ATOM     16  C   UNL     1      33.622  -5.820 -23.924  0.00  0.00    +0.100 C 
ATOM     17  C   UNL     1      32.410  -5.152 -23.860  0.00  0.00    +0.021 C 
ENDBRANCH   4   5
ENDBRANCH   1   4
BRANCH   1  18
ATOM     18  C   UNL     1      34.206 -15.097 -24.517  0.00  0.00    +0.232 C 
BRANCH  18  19
ATOM     19  O   UNL     1      35.378 -15.906 -24.483  0.00  0.00    -0.473 OA
BRANCH  19  23
ATOM     20  C   UNL     1      35.209 -19.333 -22.147  0.00  0.00    -0.022 C 
ATOM     21  C   UNL     1      35.636 -18.128 -21.588  0.00  0.00    -0.001 C 
ATOM     22  C   UNL     1      34.840 -19.386 -23.491  0.00  0.00    -0.001 C 
ATOM     23  C   UNL     1      35.323 -17.037 -23.713  0.00  0.00    +0.139 C 
ATOM     24  C   UNL     1      35.692 -16.977 -22.373  0.00  0.00    +0.037 C 
ATOM     25  C   UNL     1      34.898 -18.235 -24.276  0.00  0.00    +0.037 C 
BRANCH  20  26
ATOM     26  C   UNL     1      35.149 -20.585 -21.293  0.00  0.00    +0.022 C 
ATOM     27  C   UNL     1      36.321 -20.660 -20.300  0.00  0.00    +0.004 C 
ATOM     28  C   UNL     1      33.801 -20.716 -20.563  0.00  0.00    +0.004 C 
ATOM     29  C   UNL     1      36.256 -21.929 -19.452  0.00  0.00    +0.000 C 
ATOM     30  C   UNL     1      33.745 -21.985 -19.714  0.00  0.00    +0.000 C 
ATOM     31  C   UNL     1      34.914 -22.060 -18.737  0.00  0.00    +0.000 C 
ENDBRANCH  20  26
ENDBRANCH  19  23
ENDBRANCH  18  19
ENDBRANCH   1  18
TORSDOF 7
ENDMDL
MODEL 7
REMARK VINA RESULT:     -10.7      6.481     10.109
REMARK  Name = 446129
REMARK  7 active torsions:
REMARK  status: ('A' for Active; 'I' for Inactive)
REMARK    1  A    between atoms: C_1  and  O_2
REMARK    2  A    between atoms: C_1  and  C_4
REMARK    3  A    between atoms: C_1  and  C_18
REMARK    4  A    between atoms: C_4  and  N_5
REMARK    5  A    between atoms: C_18  and  O_19
REMARK    6  A    between atoms: O_19  and  C_23
REMARK    7  A    between atoms: C_20  and  C_26
REMARK                            x       y       z     vdW  Elec       q    Type
REMARK                         _______ _______ _______ _____ _____    ______ ____
ROOT
ATOM      1  C   UNL     1      37.473 -22.974 -16.137  0.00  0.00    +0.133 C 
ENDROOT
BRANCH   1   2
ATOM      2  O   UNL     1      37.917 -22.385 -14.912  0.00  0.00    -0.383 OA
ATOM      3  H   UNL     1      37.256 -22.540 -14.219  0.00  0.00    +0.210 HD
ENDBRANCH   1   2
BRANCH   1   4
ATOM      4  C   UNL     1      36.404 -24.017 -15.804  0.00  0.00    -0.043 C 
BRANCH   4   5
ATOM      5  N   UNL     1      35.051 -23.469 -15.899  0.00  0.00    +0.391 N 
ATOM      6  N   UNL     1      32.201 -23.571 -16.067  0.00  0.00    -0.298 N 
ATOM      7  C   UNL     1      34.252 -23.864 -14.733  0.00  0.00    -0.055 C 
ATOM      8  C   UNL     1      34.396 -23.925 -17.131  0.00  0.00    -0.055 C 
ATOM      9  C   UNL     1      32.851 -23.250 -14.792  0.00  0.00    +0.069 C 
ATOM     10  C   UNL     1      33.000 -23.312 -17.271  0.00  0.00    +0.069 C 
ATOM     11  H   UNL     1      35.122 -22.451 -15.921  0.00  0.00    -0.079 HD
ATOM     12  N   UNL     1      30.235 -22.651 -17.083  0.00  0.00    -0.229 NA
ATOM     13  C   UNL     1      30.808 -23.498 -16.174  0.00  0.00    +0.132 C 
ATOM     14  C   UNL     1      30.029 -24.306 -15.333  0.00  0.00    +0.034 C 
ATOM     15  C   UNL     1      28.643 -24.243 -15.427  0.00  0.00    +0.004 C 
ATOM     16  C   UNL     1      28.885 -22.617 -17.146  0.00  0.00    +0.100 C 
ATOM     17  C   UNL     1      28.053 -23.386 -16.349  0.00  0.00    +0.021 C 
ENDBRANCH   4   5
ENDBRANCH   1   4
BRANCH   1  18
ATOM     18  C   UNL     1      36.968 -21.864 -17.058  0.00  0.00    +0.232 C 
BRANCH  18  19
ATOM     19  O   UNL     1      36.730 -22.413 -18.351  0.00  0.00    -0.473 OA
BRANCH  19  23
ATOM     20  C   UNL     1      35.431 -19.780 -21.285  0.00  0.00    -0.022 C 
ATOM     21  C   UNL     1      36.761 -19.755 -20.865  0.00  0.00    -0.001 C 
ATOM     22  C   UNL     1      34.538 -20.690 -20.719  0.00  0.00    -0.001 C 
ATOM     23  C   UNL     1      36.302 -21.544 -19.318  0.00  0.00    +0.139 C 
ATOM     24  C   UNL     1      37.198 -20.639 -19.879  0.00  0.00    +0.037 C 
ATOM     25  C   UNL     1      34.975 -21.573 -19.732  0.00  0.00    +0.037 C 
BRANCH  20  26
ATOM     26  C   UNL     1      34.957 -18.817 -22.357  0.00  0.00    +0.022 C 
ATOM     27  C   UNL     1      35.740 -17.493 -22.327  0.00  0.00    +0.004 C 
ATOM     28  C   UNL     1      35.003 -19.451 -23.758  0.00  0.00    +0.004 C 
ATOM     29  C   UNL     1      35.248 -16.527 -23.404  0.00  0.00    +0.000 C 
ATOM     30  C   UNL     1      34.514 -18.478 -24.829  0.00  0.00    +0.000 C 
ATOM     31  C   UNL     1      35.287 -17.163 -24.790  0.00  0.00    +0.000 C 
ENDBRANCH  20  26
ENDBRANCH  19  23
ENDBRANCH  18  19
ENDBRANCH   1  18
TORSDOF 7
ENDMDL
MODEL 8
REMARK VINA RESULT:     -10.6      3.323     11.185
REMARK  Name = 446129
REMARK  7 active torsions:
REMARK  status: ('A' for Active; 'I' for Inactive)
REMARK    1  A    between atoms: C_1  and  O_2
REMARK    2  A    between atoms: C_1  and  C_4
REMARK    3  A    between atoms: C_1  and  C_18
REMARK    4  A    between atoms: C_4  and  N_5
REMARK    5  A    between atoms: C_18  and  O_19
REMARK    6  A    between atoms: O_19  and  C_23
REMARK    7  A    between atoms: C_20  and  C_26
REMARK                            x       y       z     vdW  Elec       q    Type
REMARK                         _______ _______ _______ _____ _____    ______ ____
ROOT
ATOM      1  C   UNL     1      36.301 -18.709 -21.501  0.00  0.00    +0.133 C 
ENDROOT
BRANCH   1   2
ATOM      2  O   UNL     1      37.633 -18.604 -20.990  0.00  0.00    -0.383 OA
ATOM      3  H   UNL     1      38.152 -18.014 -21.559  0.00  0.00    +0.210 HD
ENDBRANCH   1   2
BRANCH   1   4
ATOM      4  C   UNL     1      36.268 -18.054 -22.884  0.00  0.00    -0.043 C 
BRANCH   4   5
ATOM      5  N   UNL     1      35.278 -16.979 -22.960  0.00  0.00    +0.391 N 
ATOM      6  N   UNL     1      34.372 -14.276 -23.126  0.00  0.00    -0.298 N 
ATOM      7  C   UNL     1      35.439 -16.217 -24.204  0.00  0.00    -0.055 C 
ATOM      8  C   UNL     1      35.403 -16.082 -21.804  0.00  0.00    -0.055 C 
ATOM      9  C   UNL     1      34.373 -15.125 -24.322  0.00  0.00    +0.069 C 
ATOM     10  C   UNL     1      34.335 -14.986 -21.842  0.00  0.00    +0.069 C 
ATOM     11  H   UNL     1      34.349 -17.402 -22.950  0.00  0.00    -0.079 HD
ATOM     12  N   UNL     1      32.765 -12.667 -22.366  0.00  0.00    -0.229 NA
ATOM     13  C   UNL     1      33.811 -12.994 -23.184  0.00  0.00    +0.132 C 
ATOM     14  C   UNL     1      34.347 -12.072 -24.095  0.00  0.00    +0.034 C 
ATOM     15  C   UNL     1      33.800 -10.795 -24.165  0.00  0.00    +0.004 C 
ATOM     16  C   UNL     1      32.260 -11.417 -22.463  0.00  0.00    +0.100 C 
ATOM     17  C   UNL     1      32.737 -10.453 -23.337  0.00  0.00    +0.021 C 
ENDBRANCH   4   5
ENDBRANCH   1   4
BRANCH   1  18
ATOM     18  C   UNL     1      35.900 -20.183 -21.522  0.00  0.00    +0.232 C 
BRANCH  18  19
ATOM     19  O   UNL     1      36.523 -20.845 -20.425  0.00  0.00    -0.473 OA
BRANCH  19  23
ATOM     20  C   UNL     1      34.014 -22.821 -17.773  0.00  0.00    -0.022 C 
ATOM     21  C   UNL     1      35.372 -22.694 -17.484  0.00  0.00    -0.001 C 
ATOM     22  C   UNL     1      33.499 -22.285 -18.953  0.00  0.00    -0.001 C 
ATOM     23  C   UNL     1      35.696 -21.497 -19.550  0.00  0.00    +0.139 C 
ATOM     24  C   UNL     1      36.216 -22.029 -18.375  0.00  0.00    +0.037 C 
ATOM     25  C   UNL     1      34.342 -21.622 -19.845  0.00  0.00    +0.037 C 
BRANCH  20  26
ATOM     26  C   UNL     1      33.097 -23.544 -16.804  0.00  0.00    +0.022 C 
ATOM     27  C   UNL     1      33.679 -23.579 -15.380  0.00  0.00    +0.004 C 
ATOM     28  C   UNL     1      31.679 -22.949 -16.805  0.00  0.00    +0.004 C 
ATOM     29  C   UNL     1      32.753 -24.317 -14.415  0.00  0.00    +0.000 C 
ATOM     30  C   UNL     1      30.761 -23.690 -15.834  0.00  0.00    +0.000 C 
ATOM     31  C   UNL     1      31.345 -23.729 -14.426  0.00  0.00    +0.000 C 
ENDBRANCH  20  26
ENDBRANCH  19  23
ENDBRANCH  18  19
ENDBRANCH   1  18
TORSDOF 7
ENDMDL
MODEL 9
REMARK VINA RESULT:     -10.4      3.805      6.558
REMARK  Name = 446129
REMARK  7 active torsions:
REMARK  status: ('A' for Active; 'I' for Inactive)
REMARK    1  A    between atoms: C_1  and  O_2
REMARK    2  A    between atoms: C_1  and  C_4
REMARK    3  A    between atoms: C_1  and  C_18
REMARK    4  A    between atoms: C_4  and  N_5
REMARK    5  A    between atoms: C_18  and  O_19
REMARK    6  A    between atoms: O_19  and  C_23
REMARK    7  A    between atoms: C_20  and  C_26
REMARK                            x       y       z     vdW  Elec       q    Type
REMARK                         _______ _______ _______ _____ _____    ______ ____
ROOT
ATOM      1  C   UNL     1      31.926  -9.916 -19.989  0.00  0.00    +0.133 C 
ENDROOT
BRANCH   1   2
ATOM      2  O   UNL     1      30.868 -10.399 -19.158  0.00  0.00    -0.383 OA
ATOM      3  H   UNL     1      30.603  -9.704 -18.535  0.00  0.00    +0.210 HD
ENDBRANCH   1   2
BRANCH   1   4
ATOM      4  C   UNL     1      31.657 -10.381 -21.422  0.00  0.00    -0.043 C 
BRANCH   4   5
ATOM      5  N   UNL     1      32.619 -11.391 -21.863  0.00  0.00    +0.391 N 
ATOM      6  N   UNL     1      33.514 -13.681 -23.317  0.00  0.00    -0.298 N 
ATOM      7  C   UNL     1      32.814 -11.319 -23.316  0.00  0.00    -0.055 C 
ATOM      8  C   UNL     1      32.162 -12.735 -21.486  0.00  0.00    -0.055 C 
ATOM      9  C   UNL     1      33.860 -12.334 -23.782  0.00  0.00    +0.069 C 
ATOM     10  C   UNL     1      33.187 -13.797 -21.890  0.00  0.00    +0.069 C 
ATOM     11  H   UNL     1      33.509 -11.205 -21.401  0.00  0.00    -0.079 HD
ATOM     12  N   UNL     1      34.823 -15.688 -23.256  0.00  0.00    -0.229 NA
ATOM     13  C   UNL     1      34.057 -14.799 -23.960  0.00  0.00    +0.132 C 
ATOM     14  C   UNL     1      33.797 -14.977 -25.326  0.00  0.00    +0.034 C 
ATOM     15  C   UNL     1      34.331 -16.082 -25.979  0.00  0.00    +0.004 C 
ATOM     16  C   UNL     1      35.326 -16.751 -23.924  0.00  0.00    +0.100 C 
ATOM     17  C   UNL     1      35.110 -16.991 -25.272  0.00  0.00    +0.021 C 
ENDBRANCH   4   5
ENDBRANCH   1   4
BRANCH   1  18
ATOM     18  C   UNL     1      32.001  -8.396 -19.852  0.00  0.00    +0.232 C 
BRANCH  18  19
ATOM     19  O   UNL     1      33.285  -7.957 -20.285  0.00  0.00    -0.473 OA
BRANCH  19  23
ATOM     20  C   UNL     1      33.450  -6.008 -23.946  0.00  0.00    -0.022 C 
ATOM     21  C   UNL     1      34.318  -7.067 -23.681  0.00  0.00    -0.001 C 
ATOM     22  C   UNL     1      32.529  -5.603 -22.981  0.00  0.00    -0.001 C 
ATOM     23  C   UNL     1      33.340  -7.314 -21.493  0.00  0.00    +0.139 C 
ATOM     24  C   UNL     1      34.262  -7.723 -22.451  0.00  0.00    +0.037 C 
ATOM     25  C   UNL     1      32.474  -6.258 -21.750  0.00  0.00    +0.037 C 
BRANCH  20  26
ATOM     26  C   UNL     1      33.512  -5.294 -25.284  0.00  0.00    +0.022 C 
ATOM     27  C   UNL     1      32.887  -3.890 -25.215  0.00  0.00    +0.004 C 
ATOM     28  C   UNL     1      34.947  -5.231 -25.833  0.00  0.00    +0.004 C 
ATOM     29  C   UNL     1      32.946  -3.184 -26.568  0.00  0.00    +0.000 C 
ATOM     30  C   UNL     1      34.998  -4.521 -27.185  0.00  0.00    +0.000 C 
ATOM     31  C   UNL     1      34.370  -3.132 -27.114  0.00  0.00    +0.000 C 
ENDBRANCH  20  26
ENDBRANCH  19  23
ENDBRANCH  18  19
ENDBRANCH   1  18
TORSDOF 7
ENDMDL
