MODEL 1
REMARK VINA RESULT:     -11.2      0.000      0.000
REMARK  Name = 6914613
REMARK  8 active torsions:
REMARK  status: ('A' for Active; 'I' for Inactive)
REMARK    1  A    between atoms: C_1  and  N_2
REMARK    2  A    between atoms: C_1  and  C_6
REMARK    3  A    between atoms: C_1  and  C_17
REMARK    4  A    between atoms: C_6  and  C_8
REMARK    5  A    between atoms: C_17  and  O_18
REMARK    6  A    between atoms: O_18  and  C_20
REMARK    7  A    between atoms: C_23  and  C_25
REMARK    8  A    between atoms: C_26  and  C_28
REMARK                            x       y       z     vdW  Elec       q    Type
REMARK                         _______ _______ _______ _____ _____    ______ ____
ROOT
ATOM      1  C   UNL     1      33.923 -13.045 -23.332  0.00  0.00    -0.017 C 
ENDROOT
BRANCH   1   2
ATOM      2  N   UNL     1      33.881 -12.990 -24.798  0.00  0.00    +0.384 N 
ATOM      3  H   UNL     1      34.784 -12.674 -25.152  0.00  0.00    -0.089 HD
ATOM      4  H   UNL     1      33.153 -12.339 -25.093  0.00  0.00    -0.089 HD
ATOM      5  H   UNL     1      33.677 -13.918 -25.167  0.00  0.00    -0.089 HD
ENDBRANCH   1   2
BRANCH   1   6
ATOM      6  C   UNL     1      32.476 -13.009 -22.773  0.00  0.00    +0.009 C 
BRANCH   6   8
ATOM      7  N   UNL     1      31.990 -11.465 -19.501  0.00  0.00    -0.312 N 
ATOM      8  C   UNL     1      32.297 -12.140 -21.593  0.00  0.00    -0.008 C 
ATOM      9  C   UNL     1      32.277 -10.716 -21.583  0.00  0.00    +0.011 C 
ATOM     10  C   UNL     1      32.083 -10.318 -20.259  0.00  0.00    +0.048 C 
ATOM     11  C   UNL     1      32.119 -12.570 -20.298  0.00  0.00    +0.058 C 
ATOM     12  C   UNL     1      32.404  -9.726 -22.577  0.00  0.00    +0.001 C 
ATOM     13  C   UNL     1      32.011  -8.974 -19.876  0.00  0.00    +0.015 C 
ATOM     14  C   UNL     1      32.334  -8.377 -22.210  0.00  0.00    +0.000 C 
ATOM     15  C   UNL     1      32.140  -8.010 -20.880  0.00  0.00    +0.001 C 
ATOM     16  H   UNL     1      31.852 -11.486 -18.526  0.00  0.00    +0.152 HD
ENDBRANCH   6   8
ENDBRANCH   1   6
BRANCH   1  17
ATOM     17  C   UNL     1      34.713 -14.291 -22.911  0.00  0.00    +0.184 C 
BRANCH  17  18
ATOM     18  O   UNL     1      35.379 -14.892 -24.014  0.00  0.00    -0.476 OA
BRANCH  18  20
ATOM     19  N   UNL     1      34.396 -17.956 -25.726  0.00  0.00    -0.239 NA
ATOM     20  C   UNL     1      35.137 -16.224 -24.231  0.00  0.00    +0.158 C 
ATOM     21  C   UNL     1      35.369 -17.151 -23.232  0.00  0.00    +0.040 C 
ATOM     22  C   UNL     1      34.657 -16.658 -25.447  0.00  0.00    +0.136 C 
ATOM     23  C   UNL     1      35.112 -18.495 -23.481  0.00  0.00    +0.022 C 
ATOM     24  C   UNL     1      34.631 -18.842 -24.733  0.00  0.00    +0.099 C 
BRANCH  23  25
ATOM     25  C   UNL     1      35.341 -19.502 -22.461  0.00  0.00    +0.002 C 
ATOM     26  C   UNL     1      34.523 -19.753 -21.410  0.00  0.00    +0.000 C 
BRANCH  26  28
ATOM     27  N   UNL     1      35.165 -22.740 -18.457  0.00  0.00    -0.242 NA
ATOM     28  C   UNL     1      34.745 -20.788 -20.385  0.00  0.00    +0.003 C 
ATOM     29  C   UNL     1      33.667 -21.491 -19.885  0.00  0.00    +0.021 C 
ATOM     30  C   UNL     1      36.029 -21.039 -19.941  0.00  0.00    +0.021 C 
ATOM     31  C   UNL     1      33.929 -22.455 -18.925  0.00  0.00    +0.099 C 
ATOM     32  C   UNL     1      36.185 -22.023 -18.978  0.00  0.00    +0.099 C 
ENDBRANCH  26  28
ENDBRANCH  23  25
ENDBRANCH  18  20
ENDBRANCH  17  18
ENDBRANCH   1  17
TORSDOF 8
ENDMDL
MODEL 2
REMARK VINA RESULT:     -11.1      1.155      1.966
REMARK  Name = 6914613
REMARK  8 active torsions:
REMARK  status: ('A' for Active; 'I' for Inactive)
REMARK    1  A    between atoms: C_1  and  N_2
REMARK    2  A    between atoms: C_1  and  C_6
REMARK    3  A    between atoms: C_1  and  C_17
REMARK    4  A    between atoms: C_6  and  C_8
REMARK    5  A    between atoms: C_17  and  O_18
REMARK    6  A    between atoms: O_18  and  C_20
REMARK    7  A    between atoms: C_23  and  C_25
REMARK    8  A    between atoms: C_26  and  C_28
REMARK                            x       y       z     vdW  Elec       q    Type
REMARK                         _______ _______ _______ _____ _____    ______ ____
ROOT
ATOM      1  C   UNL     1      34.157 -11.777 -24.035  0.00  0.00    -0.017 C 
ENDROOT
BRANCH   1   2
ATOM      2  N   UNL     1      35.038 -11.187 -25.050  0.00  0.00    +0.384 N 
ATOM      3  H   UNL     1      35.974 -11.584 -24.959  0.00  0.00    -0.089 HD
ATOM      4  H   UNL     1      35.084 -10.177 -24.916  0.00  0.00    -0.089 HD
ATOM      5  H   UNL     1      34.670 -11.391 -25.979  0.00  0.00    -0.089 HD
ENDBRANCH   1   2
BRANCH   1   6
ATOM      6  C   UNL     1      32.810 -11.008 -24.013  0.00  0.00    +0.009 C 
BRANCH   6   8
ATOM      7  N   UNL     1      32.223  -8.651 -21.286  0.00  0.00    -0.312 N 
ATOM      8  C   UNL     1      32.537 -10.288 -22.752  0.00  0.00    -0.008 C 
ATOM      9  C   UNL     1      32.259 -10.874 -21.484  0.00  0.00    +0.011 C 
ATOM     10  C   UNL     1      32.066  -9.825 -20.582  0.00  0.00    +0.048 C 
ATOM     11  C   UNL     1      32.508  -8.921 -22.598  0.00  0.00    +0.058 C 
ATOM     12  C   UNL     1      32.154 -12.198 -21.017  0.00  0.00    +0.001 C 
ATOM     13  C   UNL     1      31.771 -10.035 -19.231  0.00  0.00    +0.015 C 
ATOM     14  C   UNL     1      31.859 -12.424 -19.667  0.00  0.00    +0.000 C 
ATOM     15  C   UNL     1      31.671 -11.358 -18.790  0.00  0.00    +0.001 C 
ATOM     16  H   UNL     1      32.142  -7.748 -20.901  0.00  0.00    +0.152 HD
ENDBRANCH   6   8
ENDBRANCH   1   6
BRANCH   1  17
ATOM     17  C   UNL     1      34.005 -13.275 -24.329  0.00  0.00    +0.184 C 
BRANCH  17  18
ATOM     18  O   UNL     1      35.071 -14.033 -23.773  0.00  0.00    -0.476 OA
BRANCH  18  20
ATOM     19  N   UNL     1      34.734 -17.197 -25.551  0.00  0.00    -0.239 NA
ATOM     20  C   UNL     1      35.053 -15.385 -24.003  0.00  0.00    +0.158 C 
ATOM     21  C   UNL     1      35.315 -16.274 -22.977  0.00  0.00    +0.040 C 
ATOM     22  C   UNL     1      34.771 -15.877 -25.258  0.00  0.00    +0.136 C 
ATOM     23  C   UNL     1      35.288 -17.640 -23.240  0.00  0.00    +0.022 C 
ATOM     24  C   UNL     1      34.994 -18.045 -24.531  0.00  0.00    +0.099 C 
BRANCH  23  25
ATOM     25  C   UNL     1      35.557 -18.609 -22.193  0.00  0.00    +0.002 C 
ATOM     26  C   UNL     1      34.684 -19.547 -21.751  0.00  0.00    +0.000 C 
BRANCH  26  28
ATOM     27  N   UNL     1      35.490 -22.422 -18.727  0.00  0.00    -0.242 NA
ATOM     28  C   UNL     1      34.963 -20.544 -20.702  0.00  0.00    +0.003 C 
ATOM     29  C   UNL     1      33.920 -21.259 -20.150  0.00  0.00    +0.021 C 
ATOM     30  C   UNL     1      36.265 -20.746 -20.287  0.00  0.00    +0.021 C 
ATOM     31  C   UNL     1      34.235 -22.185 -19.169  0.00  0.00    +0.099 C 
ATOM     32  C   UNL     1      36.475 -21.694 -19.300  0.00  0.00    +0.099 C 
ENDBRANCH  26  28
ENDBRANCH  23  25
ENDBRANCH  18  20
ENDBRANCH  17  18
ENDBRANCH   1  17
TORSDOF 8
ENDMDL
MODEL 3
REMARK VINA RESULT:     -11.0      1.568      9.438
REMARK  Name = 6914613
REMARK  8 active torsions:
REMARK  status: ('A' for Active; 'I' for Inactive)
REMARK    1  A    between atoms: C_1  and  N_2
REMARK    2  A    between atoms: C_1  and  C_6
REMARK    3  A    between atoms: C_1  and  C_17
REMARK    4  A    between atoms: C_6  and  C_8
REMARK    5  A    between atoms: C_17  and  O_18
REMARK    6  A    between atoms: O_18  and  C_20
REMARK    7  A    between atoms: C_23  and  C_25
REMARK    8  A    between atoms: C_26  and  C_28
REMARK                            x       y       z     vdW  Elec       q    Type
REMARK                         _______ _______ _______ _____ _____    ______ ____
ROOT
ATOM      1  C   UNL     1      35.644 -19.159 -22.152  0.00  0.00    -0.017 C 
ENDROOT
BRANCH   1   2
ATOM      2  N   UNL     1      35.648 -17.971 -21.291  0.00  0.00    +0.384 N 
ATOM      3  H   UNL     1      36.398 -17.343 -21.582  0.00  0.00    -0.089 HD
ATOM      4  H   UNL     1      35.798 -18.254 -20.322  0.00  0.00    -0.089 HD
ATOM      5  H   UNL     1      34.752 -17.491 -21.370  0.00  0.00    -0.089 HD
ENDBRANCH   1   2
BRANCH   1   6
ATOM      6  C   UNL     1      34.755 -20.258 -21.511  0.00  0.00    +0.009 C 
BRANCH   6   8
ATOM      7  N   UNL     1      36.858 -21.671 -18.882  0.00  0.00    -0.312 N 
ATOM      8  C   UNL     1      35.361 -20.932 -20.346  0.00  0.00    -0.008 C 
ATOM      9  C   UNL     1      34.677 -21.688 -19.352  0.00  0.00    +0.011 C 
ATOM     10  C   UNL     1      35.638 -22.140 -18.446  0.00  0.00    +0.048 C 
ATOM     11  C   UNL     1      36.700 -20.940 -20.029  0.00  0.00    +0.058 C 
ATOM     12  C   UNL     1      33.328 -22.032 -19.137  0.00  0.00    +0.001 C 
ATOM     13  C   UNL     1      35.318 -22.921 -17.330  0.00  0.00    +0.015 C 
ATOM     14  C   UNL     1      32.991 -22.813 -18.025  0.00  0.00    +0.000 C 
ATOM     15  C   UNL     1      33.972 -23.249 -17.137  0.00  0.00    +0.001 C 
ATOM     16  H   UNL     1      37.719 -21.837 -18.433  0.00  0.00    +0.152 HD
ENDBRANCH   6   8
ENDBRANCH   1   6
BRANCH   1  17
ATOM     17  C   UNL     1      35.189 -18.744 -23.557  0.00  0.00    +0.184 C 
BRANCH  17  18
ATOM     18  O   UNL     1      35.863 -17.575 -24.007  0.00  0.00    -0.476 OA
BRANCH  18  20
ATOM     19  N   UNL     1      33.918 -15.610 -26.380  0.00  0.00    -0.239 NA
ATOM     20  C   UNL     1      35.083 -16.565 -24.506  0.00  0.00    +0.158 C 
ATOM     21  C   UNL     1      34.686 -15.518 -23.694  0.00  0.00    +0.040 C 
ATOM     22  C   UNL     1      34.685 -16.575 -25.825  0.00  0.00    +0.136 C 
ATOM     23  C   UNL     1      33.897 -14.506 -24.230  0.00  0.00    +0.022 C 
ATOM     24  C   UNL     1      33.543 -14.598 -25.566  0.00  0.00    +0.099 C 
BRANCH  23  25
ATOM     25  C   UNL     1      33.458 -13.389 -23.414  0.00  0.00    +0.002 C 
ATOM     26  C   UNL     1      32.723 -13.488 -22.279  0.00  0.00    +0.000 C 
BRANCH  26  28
ATOM     27  N   UNL     1      31.487 -10.219 -19.861  0.00  0.00    -0.242 NA
ATOM     28  C   UNL     1      32.293 -12.355 -21.441  0.00  0.00    +0.003 C 
ATOM     29  C   UNL     1      32.141 -12.537 -20.081  0.00  0.00    +0.021 C 
ATOM     30  C   UNL     1      32.051 -11.129 -22.028  0.00  0.00    +0.021 C 
ATOM     31  C   UNL     1      31.737 -11.440 -19.336  0.00  0.00    +0.099 C 
ATOM     32  C   UNL     1      31.651 -10.096 -21.197  0.00  0.00    +0.099 C 
ENDBRANCH  26  28
ENDBRANCH  23  25
ENDBRANCH  18  20
ENDBRANCH  17  18
ENDBRANCH   1  17
TORSDOF 8
ENDMDL
MODEL 4
REMARK VINA RESULT:     -10.9      1.297      1.711
REMARK  Name = 6914613
REMARK  8 active torsions:
REMARK  status: ('A' for Active; 'I' for Inactive)
REMARK    1  A    between atoms: C_1  and  N_2
REMARK    2  A    between atoms: C_1  and  C_6
REMARK    3  A    between atoms: C_1  and  C_17
REMARK    4  A    between atoms: C_6  and  C_8
REMARK    5  A    between atoms: C_17  and  O_18
REMARK    6  A    between atoms: O_18  and  C_20
REMARK    7  A    between atoms: C_23  and  C_25
REMARK    8  A    between atoms: C_26  and  C_28
REMARK                            x       y       z     vdW  Elec       q    Type
REMARK                         _______ _______ _______ _____ _____    ______ ____
ROOT
ATOM      1  C   UNL     1      33.846 -13.032 -23.562  0.00  0.00    -0.017 C 
ENDROOT
BRANCH   1   2
ATOM      2  N   UNL     1      34.735 -13.225 -22.410  0.00  0.00    +0.384 N 
ATOM      3  H   UNL     1      35.111 -12.324 -22.116  0.00  0.00    -0.089 HD
ATOM      4  H   UNL     1      35.502 -13.844 -22.673  0.00  0.00    -0.089 HD
ATOM      5  H   UNL     1      34.210 -13.642 -21.642  0.00  0.00    -0.089 HD
ENDBRANCH   1   2
BRANCH   1   6
ATOM      6  C   UNL     1      33.966 -11.570 -24.066  0.00  0.00    +0.009 C 
BRANCH   6   8
ATOM      7  N   UNL     1      31.684  -9.690 -21.922  0.00  0.00    -0.312 N 
ATOM      8  C   UNL     1      33.201 -10.585 -23.274  0.00  0.00    -0.008 C 
ATOM      9  C   UNL     1      33.455  -9.187 -23.184  0.00  0.00    +0.011 C 
ATOM     10  C   UNL     1      32.490  -8.649 -22.330  0.00  0.00    +0.048 C 
ATOM     11  C   UNL     1      32.107 -10.864 -22.488  0.00  0.00    +0.058 C 
ATOM     12  C   UNL     1      34.416  -8.326 -23.749  0.00  0.00    +0.001 C 
ATOM     13  C   UNL     1      32.437  -7.288 -22.011  0.00  0.00    +0.015 C 
ATOM     14  C   UNL     1      34.376  -6.962 -23.438  0.00  0.00    +0.000 C 
ATOM     15  C   UNL     1      33.401  -6.453 -22.583  0.00  0.00    +0.001 C 
ATOM     16  H   UNL     1      30.916  -9.603 -21.312  0.00  0.00    +0.152 HD
ENDBRANCH   6   8
ENDBRANCH   1   6
BRANCH   1  17
ATOM     17  C   UNL     1      34.192 -14.079 -24.629  0.00  0.00    +0.184 C 
BRANCH  17  18
ATOM     18  O   UNL     1      35.254 -14.928 -24.211  0.00  0.00    -0.476 OA
BRANCH  18  20
ATOM     19  N   UNL     1      34.356 -18.117 -25.730  0.00  0.00    -0.239 NA
ATOM     20  C   UNL     1      35.057 -16.277 -24.349  0.00  0.00    +0.158 C 
ATOM     21  C   UNL     1      35.337 -17.137 -23.303  0.00  0.00    +0.040 C 
ATOM     22  C   UNL     1      34.575 -16.797 -25.530  0.00  0.00    +0.136 C 
ATOM     23  C   UNL     1      35.125 -18.502 -23.471  0.00  0.00    +0.022 C 
ATOM     24  C   UNL     1      34.637 -18.936 -24.693  0.00  0.00    +0.099 C 
BRANCH  23  25
ATOM     25  C   UNL     1      35.405 -19.440 -22.400  0.00  0.00    +0.002 C 
ATOM     26  C   UNL     1      34.503 -19.880 -21.488  0.00  0.00    +0.000 C 
BRANCH  26  28
ATOM     27  N   UNL     1      35.309 -22.672 -18.387  0.00  0.00    -0.242 NA
ATOM     28  C   UNL     1      34.782 -20.848 -20.412  0.00  0.00    +0.003 C 
ATOM     29  C   UNL     1      33.745 -21.587 -19.878  0.00  0.00    +0.021 C 
ATOM     30  C   UNL     1      36.076 -21.000 -19.955  0.00  0.00    +0.021 C 
ATOM     31  C   UNL     1      34.060 -22.484 -18.870  0.00  0.00    +0.099 C 
ATOM     32  C   UNL     1      36.287 -21.923 -18.944  0.00  0.00    +0.099 C 
ENDBRANCH  26  28
ENDBRANCH  23  25
ENDBRANCH  18  20
ENDBRANCH  17  18
ENDBRANCH   1  17
TORSDOF 8
ENDMDL
MODEL 5
REMARK VINA RESULT:     -10.8      1.190      1.942
REMARK  Name = 6914613
REMARK  8 active torsions:
REMARK  status: ('A' for Active; 'I' for Inactive)
REMARK    1  A    between atoms: C_1  and  N_2
REMARK    2  A    between atoms: C_1  and  C_6
REMARK    3  A    between atoms: C_1  and  C_17
REMARK    4  A    between atoms: C_6  and  C_8
REMARK    5  A    between atoms: C_17  and  O_18
REMARK    6  A    between atoms: O_18  and  C_20
REMARK    7  A    between atoms: C_23  and  C_25
REMARK    8  A    between atoms: C_26  and  C_28
REMARK                            x       y       z     vdW  Elec       q    Type
REMARK                         _______ _______ _______ _____ _____    ______ ____
ROOT
ATOM      1  C   UNL     1      33.678 -14.198 -22.680  0.00  0.00    -0.017 C 
ENDROOT
BRANCH   1   2
ATOM      2  N   UNL     1      34.327 -13.857 -21.408  0.00  0.00    +0.384 N 
ATOM      3  H   UNL     1      33.672 -14.008 -20.641  0.00  0.00    -0.089 HD
ATOM      4  H   UNL     1      34.613 -12.878 -21.424  0.00  0.00    -0.089 HD
ATOM      5  H   UNL     1      35.147 -14.449 -21.276  0.00  0.00    -0.089 HD
ENDBRANCH   1   2
BRANCH   1   6
ATOM      6  C   UNL     1      32.329 -13.439 -22.790  0.00  0.00    +0.009 C 
BRANCH   6   8
ATOM      7  N   UNL     1      32.697  -9.819 -22.494  0.00  0.00    -0.312 N 
ATOM      8  C   UNL     1      32.394 -12.016 -22.402  0.00  0.00    -0.008 C 
ATOM      9  C   UNL     1      32.092 -11.471 -21.122  0.00  0.00    +0.011 C 
ATOM     10  C   UNL     1      32.289 -10.091 -21.207  0.00  0.00    +0.048 C 
ATOM     11  C   UNL     1      32.762 -10.976 -23.223  0.00  0.00    +0.058 C 
ATOM     12  C   UNL     1      31.668 -12.021 -19.896  0.00  0.00    +0.001 C 
ATOM     13  C   UNL     1      32.083  -9.230 -20.123  0.00  0.00    +0.015 C 
ATOM     14  C   UNL     1      31.457 -11.172 -18.803  0.00  0.00    +0.000 C 
ATOM     15  C   UNL     1      31.662  -9.799 -18.917  0.00  0.00    +0.001 C 
ATOM     16  H   UNL     1      32.909  -8.921 -22.840  0.00  0.00    +0.152 HD
ENDBRANCH   6   8
ENDBRANCH   1   6
BRANCH   1  17
ATOM     17  C   UNL     1      34.652 -13.889 -23.824  0.00  0.00    +0.184 C 
BRANCH  17  18
ATOM     18  O   UNL     1      35.662 -14.883 -23.942  0.00  0.00    -0.476 OA
BRANCH  18  20
ATOM     19  N   UNL     1      34.297 -17.643 -25.892  0.00  0.00    -0.239 NA
ATOM     20  C   UNL     1      35.248 -16.149 -24.265  0.00  0.00    +0.158 C 
ATOM     21  C   UNL     1      35.347 -17.176 -23.344  0.00  0.00    +0.040 C 
ATOM     22  C   UNL     1      34.725 -16.418 -25.510  0.00  0.00    +0.136 C 
ATOM     23  C   UNL     1      34.917 -18.450 -23.700  0.00  0.00    +0.022 C 
ATOM     24  C   UNL     1      34.404 -18.629 -24.974  0.00  0.00    +0.099 C 
BRANCH  23  25
ATOM     25  C   UNL     1      35.003 -19.557 -22.765  0.00  0.00    +0.002 C 
ATOM     26  C   UNL     1      34.793 -19.472 -21.428  0.00  0.00    +0.000 C 
BRANCH  26  28
ATOM     27  N   UNL     1      34.988 -22.720 -18.695  0.00  0.00    -0.242 NA
ATOM     28  C   UNL     1      34.861 -20.599 -20.481  0.00  0.00    +0.003 C 
ATOM     29  C   UNL     1      36.087 -20.995 -19.984  0.00  0.00    +0.021 C 
ATOM     30  C   UNL     1      33.697 -21.240 -20.105  0.00  0.00    +0.021 C 
ATOM     31  C   UNL     1      36.097 -22.058 -19.096  0.00  0.00    +0.099 C 
ATOM     32  C   UNL     1      33.814 -22.292 -19.212  0.00  0.00    +0.099 C 
ENDBRANCH  26  28
ENDBRANCH  23  25
ENDBRANCH  18  20
ENDBRANCH  17  18
ENDBRANCH   1  17
TORSDOF 8
ENDMDL
MODEL 6
REMARK VINA RESULT:     -10.7      1.502      9.448
REMARK  Name = 6914613
REMARK  8 active torsions:
REMARK  status: ('A' for Active; 'I' for Inactive)
REMARK    1  A    between atoms: C_1  and  N_2
REMARK    2  A    between atoms: C_1  and  C_6
REMARK    3  A    between atoms: C_1  and  C_17
REMARK    4  A    between atoms: C_6  and  C_8
REMARK    5  A    between atoms: C_17  and  O_18
REMARK    6  A    between atoms: O_18  and  C_20
REMARK    7  A    between atoms: C_23  and  C_25
REMARK    8  A    between atoms: C_26  and  C_28
REMARK                            x       y       z     vdW  Elec       q    Type
REMARK                         _______ _______ _______ _____ _____    ______ ____
ROOT
ATOM      1  C   UNL     1      35.109 -19.196 -22.139  0.00  0.00    -0.017 C 
ENDROOT
BRANCH   1   2
ATOM      2  N   UNL     1      35.070 -19.819 -23.467  0.00  0.00    +0.384 N 
ATOM      3  H   UNL     1      34.262 -20.438 -23.529  0.00  0.00    -0.089 HD
ATOM      4  H   UNL     1      35.923 -20.358 -23.616  0.00  0.00    -0.089 HD
ATOM      5  H   UNL     1      34.999 -19.093 -24.180  0.00  0.00    -0.089 HD
ENDBRANCH   1   2
BRANCH   1   6
ATOM      6  C   UNL     1      35.818 -20.151 -21.143  0.00  0.00    +0.009 C 
BRANCH   6   8
ATOM      7  N   UNL     1      33.075 -21.999 -19.597  0.00  0.00    -0.312 N 
ATOM      8  C   UNL     1      34.903 -20.968 -20.321  0.00  0.00    -0.008 C 
ATOM      9  C   UNL     1      35.227 -21.655 -19.117  0.00  0.00    +0.011 C 
ATOM     10  C   UNL     1      34.063 -22.294 -18.683  0.00  0.00    +0.048 C 
ATOM     11  C   UNL     1      33.573 -21.199 -20.590  0.00  0.00    +0.058 C 
ATOM     12  C   UNL     1      36.402 -21.794 -18.353  0.00  0.00    +0.001 C 
ATOM     13  C   UNL     1      34.016 -23.068 -17.519  0.00  0.00    +0.015 C 
ATOM     14  C   UNL     1      36.370 -22.567 -17.186  0.00  0.00    +0.000 C 
ATOM     15  C   UNL     1      35.194 -23.192 -16.777  0.00  0.00    +0.001 C 
ATOM     16  H   UNL     1      32.145 -22.319 -19.543  0.00  0.00    +0.152 HD
ENDBRANCH   6   8
ENDBRANCH   1   6
BRANCH   1  17
ATOM     17  C   UNL     1      35.785 -17.824 -22.261  0.00  0.00    +0.184 C 
BRANCH  17  18
ATOM     18  O   UNL     1      36.035 -17.477 -23.616  0.00  0.00    -0.476 OA
BRANCH  18  20
ATOM     19  N   UNL     1      34.166 -15.554 -26.085  0.00  0.00    -0.239 NA
ATOM     20  C   UNL     1      35.258 -16.484 -24.154  0.00  0.00    +0.158 C 
ATOM     21  C   UNL     1      34.798 -15.447 -23.364  0.00  0.00    +0.040 C 
ATOM     22  C   UNL     1      34.927 -16.503 -25.491  0.00  0.00    +0.136 C 
ATOM     23  C   UNL     1      34.013 -14.453 -23.939  0.00  0.00    +0.022 C 
ATOM     24  C   UNL     1      33.729 -14.552 -25.291  0.00  0.00    +0.099 C 
BRANCH  23  25
ATOM     25  C   UNL     1      33.508 -13.347 -23.146  0.00  0.00    +0.002 C 
ATOM     26  C   UNL     1      32.790 -13.465 -22.002  0.00  0.00    +0.000 C 
BRANCH  26  28
ATOM     27  N   UNL     1      31.362 -10.225 -19.652  0.00  0.00    -0.242 NA
ATOM     28  C   UNL     1      32.294 -12.342 -21.187  0.00  0.00    +0.003 C 
ATOM     29  C   UNL     1      32.083 -12.525 -19.835  0.00  0.00    +0.021 C 
ATOM     30  C   UNL     1      32.049 -11.123 -21.789  0.00  0.00    +0.021 C 
ATOM     31  C   UNL     1      31.618 -11.439 -19.113  0.00  0.00    +0.099 C 
ATOM     32  C   UNL     1      31.585 -10.099 -20.980  0.00  0.00    +0.099 C 
ENDBRANCH  26  28
ENDBRANCH  23  25
ENDBRANCH  18  20
ENDBRANCH  17  18
ENDBRANCH   1  17
TORSDOF 8
ENDMDL
MODEL 7
REMARK VINA RESULT:     -10.7      2.036     10.079
REMARK  Name = 6914613
REMARK  8 active torsions:
REMARK  status: ('A' for Active; 'I' for Inactive)
REMARK    1  A    between atoms: C_1  and  N_2
REMARK    2  A    between atoms: C_1  and  C_6
REMARK    3  A    between atoms: C_1  and  C_17
REMARK    4  A    between atoms: C_6  and  C_8
REMARK    5  A    between atoms: C_17  and  O_18
REMARK    6  A    between atoms: O_18  and  C_20
REMARK    7  A    between atoms: C_23  and  C_25
REMARK    8  A    between atoms: C_26  and  C_28
REMARK                            x       y       z     vdW  Elec       q    Type
REMARK                         _______ _______ _______ _____ _____    ______ ____
ROOT
ATOM      1  C   UNL     1      34.539 -20.532 -20.431  0.00  0.00    -0.017 C 
ENDROOT
BRANCH   1   2
ATOM      2  N   UNL     1      33.096 -20.753 -20.571  0.00  0.00    +0.384 N 
ATOM      3  H   UNL     1      32.739 -21.208 -19.731  0.00  0.00    -0.089 HD
ATOM      4  H   UNL     1      32.919 -21.349 -21.380  0.00  0.00    -0.089 HD
ATOM      5  H   UNL     1      32.626 -19.858 -20.699  0.00  0.00    -0.089 HD
ENDBRANCH   1   2
BRANCH   1   6
ATOM      6  C   UNL     1      35.248 -21.890 -20.181  0.00  0.00    +0.009 C 
BRANCH   6   8
ATOM      7  N   UNL     1      36.621 -22.358 -16.830  0.00  0.00    -0.312 N 
ATOM      8  C   UNL     1      35.543 -22.174 -18.762  0.00  0.00    -0.008 C 
ATOM      9  C   UNL     1      34.639 -22.700 -17.796  0.00  0.00    +0.011 C 
ATOM     10  C   UNL     1      35.340 -22.806 -16.593  0.00  0.00    +0.048 C 
ATOM     11  C   UNL     1      36.753 -21.974 -18.138  0.00  0.00    +0.058 C 
ATOM     12  C   UNL     1      33.288 -23.098 -17.830  0.00  0.00    +0.001 C 
ATOM     13  C   UNL     1      34.756 -23.291 -15.418  0.00  0.00    +0.015 C 
ATOM     14  C   UNL     1      32.690 -23.585 -16.662  0.00  0.00    +0.000 C 
ATOM     15  C   UNL     1      33.414 -23.679 -15.477  0.00  0.00    +0.001 C 
ATOM     16  H   UNL     1      37.338 -22.320 -16.156  0.00  0.00    +0.152 HD
ENDBRANCH   6   8
ENDBRANCH   1   6
BRANCH   1  17
ATOM     17  C   UNL     1      35.045 -19.796 -21.679  0.00  0.00    +0.184 C 
BRANCH  17  18
ATOM     18  O   UNL     1      35.800 -18.640 -21.340  0.00  0.00    -0.476 OA
BRANCH  18  20
ATOM     19  N   UNL     1      35.467 -16.310 -24.123  0.00  0.00    -0.239 NA
ATOM     20  C   UNL     1      35.511 -17.490 -22.028  0.00  0.00    +0.158 C 
ATOM     21  C   UNL     1      34.999 -16.388 -21.368  0.00  0.00    +0.040 C 
ATOM     22  C   UNL     1      35.728 -17.414 -23.386  0.00  0.00    +0.136 C 
ATOM     23  C   UNL     1      34.718 -15.234 -22.093  0.00  0.00    +0.022 C 
ATOM     24  C   UNL     1      34.968 -15.247 -23.455  0.00  0.00    +0.099 C 
BRANCH  23  25
ATOM     25  C   UNL     1      34.180 -14.054 -21.441  0.00  0.00    +0.002 C 
ATOM     26  C   UNL     1      32.881 -13.667 -21.467  0.00  0.00    +0.000 C 
BRANCH  26  28
ATOM     27  N   UNL     1      31.299 -10.241 -19.513  0.00  0.00    -0.242 NA
ATOM     28  C   UNL     1      32.331 -12.480 -20.790  0.00  0.00    +0.003 C 
ATOM     29  C   UNL     1      32.099 -12.521 -19.430  0.00  0.00    +0.021 C 
ATOM     30  C   UNL     1      32.058 -11.344 -21.526  0.00  0.00    +0.021 C 
ATOM     31  C   UNL     1      31.583 -11.379 -18.840  0.00  0.00    +0.099 C 
ATOM     32  C   UNL     1      31.545 -10.254 -20.843  0.00  0.00    +0.099 C 
ENDBRANCH  26  28
ENDBRANCH  23  25
ENDBRANCH  18  20
ENDBRANCH  17  18
ENDBRANCH   1  17
TORSDOF 8
ENDMDL
MODEL 8
REMARK VINA RESULT:     -10.7      2.128     10.058
REMARK  Name = 6914613
REMARK  8 active torsions:
REMARK  status: ('A' for Active; 'I' for Inactive)
REMARK    1  A    between atoms: C_1  and  N_2
REMARK    2  A    between atoms: C_1  and  C_6
REMARK    3  A    between atoms: C_1  and  C_17
REMARK    4  A    between atoms: C_6  and  C_8
REMARK    5  A    between atoms: C_17  and  O_18
REMARK    6  A    between atoms: O_18  and  C_20
REMARK    7  A    between atoms: C_23  and  C_25
REMARK    8  A    between atoms: C_26  and  C_28
REMARK                            x       y       z     vdW  Elec       q    Type
REMARK                         _______ _______ _______ _____ _____    ______ ____
ROOT
ATOM      1  C   UNL     1      35.036 -19.212 -22.218  0.00  0.00    -0.017 C 
ENDROOT
BRANCH   1   2
ATOM      2  N   UNL     1      35.102 -19.878 -23.524  0.00  0.00    +0.384 N 
ATOM      3  H   UNL     1      34.857 -19.213 -24.257  0.00  0.00    -0.089 HD
ATOM      4  H   UNL     1      34.446 -20.659 -23.541  0.00  0.00    -0.089 HD
ATOM      5  H   UNL     1      36.047 -20.225 -23.681  0.00  0.00    -0.089 HD
ENDBRANCH   1   2
BRANCH   1   6
ATOM      6  C   UNL     1      35.784 -20.069 -21.163  0.00  0.00    +0.009 C 
BRANCH   6   8
ATOM      7  N   UNL     1      33.125 -22.010 -19.583  0.00  0.00    -0.312 N 
ATOM      8  C   UNL     1      34.908 -20.919 -20.332  0.00  0.00    -0.008 C 
ATOM      9  C   UNL     1      35.275 -21.604 -19.140  0.00  0.00    +0.011 C 
ATOM     10  C   UNL     1      34.138 -22.282 -18.690  0.00  0.00    +0.048 C 
ATOM     11  C   UNL     1      33.581 -21.188 -20.579  0.00  0.00    +0.058 C 
ATOM     12  C   UNL     1      36.467 -21.714 -18.397  0.00  0.00    +0.001 C 
ATOM     13  C   UNL     1      34.135 -23.065 -17.531  0.00  0.00    +0.015 C 
ATOM     14  C   UNL     1      36.479 -22.495 -17.236  0.00  0.00    +0.000 C 
ATOM     15  C   UNL     1      35.330 -23.159 -16.812  0.00  0.00    +0.001 C 
ATOM     16  H   UNL     1      32.207 -22.358 -19.516  0.00  0.00    +0.152 HD
ENDBRANCH   6   8
ENDBRANCH   1   6
BRANCH   1  17
ATOM     17  C   UNL     1      35.595 -17.791 -22.364  0.00  0.00    +0.184 C 
BRANCH  17  18
ATOM     18  O   UNL     1      35.973 -17.507 -23.705  0.00  0.00    -0.476 OA
BRANCH  18  20
ATOM     19  N   UNL     1      33.883 -16.085 -26.330  0.00  0.00    -0.239 NA
ATOM     20  C   UNL     1      35.201 -16.602 -24.387  0.00  0.00    +0.158 C 
ATOM     21  C   UNL     1      34.966 -15.345 -23.861  0.00  0.00    +0.040 C 
ATOM     22  C   UNL     1      34.651 -16.930 -25.606  0.00  0.00    +0.136 C 
ATOM     23  C   UNL     1      34.180 -14.447 -24.577  0.00  0.00    +0.022 C 
ATOM     24  C   UNL     1      33.668 -14.862 -25.795  0.00  0.00    +0.099 C 
BRANCH  23  25
ATOM     25  C   UNL     1      33.907 -13.117 -24.064  0.00  0.00    +0.002 C 
ATOM     26  C   UNL     1      34.354 -11.960 -24.610  0.00  0.00    +0.000 C 
BRANCH  26  28
ATOM     27  N   UNL     1      33.511  -8.064 -23.136  0.00  0.00    -0.242 NA
ATOM     28  C   UNL     1      34.061 -10.608 -24.100  0.00  0.00    +0.003 C 
ATOM     29  C   UNL     1      32.886 -10.383 -23.411  0.00  0.00    +0.021 C 
ATOM     30  C   UNL     1      34.967  -9.589 -24.318  0.00  0.00    +0.021 C 
ATOM     31  C   UNL     1      32.658  -9.096 -22.950  0.00  0.00    +0.099 C 
ATOM     32  C   UNL     1      34.646  -8.338 -23.818  0.00  0.00    +0.099 C 
ENDBRANCH  26  28
ENDBRANCH  23  25
ENDBRANCH  18  20
ENDBRANCH  17  18
ENDBRANCH   1  17
TORSDOF 8
ENDMDL
MODEL 9
REMARK VINA RESULT:     -10.6      3.468      7.159
REMARK  Name = 6914613
REMARK  8 active torsions:
REMARK  status: ('A' for Active; 'I' for Inactive)
REMARK    1  A    between atoms: C_1  and  N_2
REMARK    2  A    between atoms: C_1  and  C_6
REMARK    3  A    between atoms: C_1  and  C_17
REMARK    4  A    between atoms: C_6  and  C_8
REMARK    5  A    between atoms: C_17  and  O_18
REMARK    6  A    between atoms: O_18  and  C_20
REMARK    7  A    between atoms: C_23  and  C_25
REMARK    8  A    between atoms: C_26  and  C_28
REMARK                            x       y       z     vdW  Elec       q    Type
REMARK                         _______ _______ _______ _____ _____    ______ ____
ROOT
ATOM      1  C   UNL     1      36.912 -18.850 -21.489  0.00  0.00    -0.017 C 
ENDROOT
BRANCH   1   2
ATOM      2  N   UNL     1      38.052 -18.621 -22.383  0.00  0.00    +0.384 N 
ATOM      3  H   UNL     1      38.347 -19.508 -22.792  0.00  0.00    -0.089 HD
ATOM      4  H   UNL     1      38.825 -18.218 -21.854  0.00  0.00    -0.089 HD
ATOM      5  H   UNL     1      37.778 -17.979 -23.126  0.00  0.00    -0.089 HD
ENDBRANCH   1   2
BRANCH   1   6
ATOM      6  C   UNL     1      35.601 -18.867 -22.318  0.00  0.00    +0.009 C 
BRANCH   6   8
ATOM      7  N   UNL     1      35.211 -16.357 -24.941  0.00  0.00    -0.312 N 
ATOM      8  C   UNL     1      35.395 -17.674 -23.163  0.00  0.00    -0.008 C 
ATOM      9  C   UNL     1      35.103 -16.355 -22.712  0.00  0.00    +0.011 C 
ATOM     10  C   UNL     1      34.991 -15.549 -23.847  0.00  0.00    +0.048 C 
ATOM     11  C   UNL     1      35.455 -17.643 -24.537  0.00  0.00    +0.058 C 
ATOM     12  C   UNL     1      34.922 -15.769 -21.444  0.00  0.00    +0.001 C 
ATOM     13  C   UNL     1      34.707 -14.181 -23.777  0.00  0.00    +0.015 C 
ATOM     14  C   UNL     1      34.636 -14.402 -21.358  0.00  0.00    +0.000 C 
ATOM     15  C   UNL     1      34.531 -13.622 -22.508  0.00  0.00    +0.001 C 
ATOM     16  H   UNL     1      35.193 -16.054 -25.878  0.00  0.00    +0.152 HD
ENDBRANCH   6   8
ENDBRANCH   1   6
BRANCH   1  17
ATOM     17  C   UNL     1      37.158 -20.144 -20.702  0.00  0.00    +0.184 C 
BRANCH  17  18
ATOM     18  O   UNL     1      35.999 -20.965 -20.660  0.00  0.00    -0.476 OA
BRANCH  18  20
ATOM     19  N   UNL     1      36.566 -22.439 -17.375  0.00  0.00    -0.239 NA
ATOM     20  C   UNL     1      35.745 -21.616 -19.480  0.00  0.00    +0.158 C 
ATOM     21  C   UNL     1      34.479 -22.097 -19.202  0.00  0.00    +0.040 C 
ATOM     22  C   UNL     1      36.748 -21.804 -18.555  0.00  0.00    +0.136 C 
ATOM     23  C   UNL     1      34.252 -22.755 -17.998  0.00  0.00    +0.022 C 
ATOM     24  C   UNL     1      35.320 -22.899 -17.127  0.00  0.00    +0.099 C 
BRANCH  23  25
ATOM     25  C   UNL     1      32.939 -23.276 -17.666  0.00  0.00    +0.002 C 
ATOM     26  C   UNL     1      32.261 -23.019 -16.520  0.00  0.00    +0.000 C 
BRANCH  26  28
ATOM     27  N   UNL     1      28.392 -24.498 -15.568  0.00  0.00    -0.242 NA
ATOM     28  C   UNL     1      30.919 -23.533 -16.191  0.00  0.00    +0.003 C 
ATOM     29  C   UNL     1      30.799 -24.693 -15.452  0.00  0.00    +0.021 C 
ATOM     30  C   UNL     1      29.804 -22.844 -16.625  0.00  0.00    +0.021 C 
ATOM     31  C   UNL     1      29.517 -25.133 -15.167  0.00  0.00    +0.099 C 
ATOM     32  C   UNL     1      28.566 -23.367 -16.288  0.00  0.00    +0.099 C 
ENDBRANCH  26  28
ENDBRANCH  23  25
ENDBRANCH  18  20
ENDBRANCH  17  18
ENDBRANCH   1  17
TORSDOF 8
ENDMDL
