MODEL 1
REMARK VINA RESULT:     -11.4      0.000      0.000
REMARK  Name = 5288250
REMARK  9 active torsions:
REMARK  status: ('A' for Active; 'I' for Inactive)
REMARK    1  A    between atoms: C_1  and  N_3
REMARK    2  A    between atoms: C_1  and  C_20
REMARK    3  A    between atoms: C_1  and  C_23
REMARK    4  A    between atoms: C_4  and  C_6
REMARK    5  A    between atoms: C_6  and  C_10
REMARK    6  A    between atoms: C_20  and  O_21
REMARK    7  A    between atoms: C_23  and  C_24
REMARK    8  A    between atoms: C_29  and  C_30
REMARK    9  A    between atoms: C_31  and  C_32
REMARK                            x       y       z     vdW  Elec       q    Type
REMARK                         _______ _______ _______ _____ _____    ______ ____
ROOT
ATOM      1  C   UNL     1      35.707 -24.941 -15.834  0.00  0.00    +0.176 C 
ENDROOT
BRANCH   1   3
ATOM      2  O   UNL     1      35.376 -23.720 -13.231  0.00  0.00    -0.275 OA
ATOM      3  N   UNL     1      34.497 -24.874 -15.047  0.00  0.00    -0.297 N 
ATOM      4  C   UNL     1      34.436 -24.264 -13.802  0.00  0.00    +0.223 C 
ATOM      5  H   UNL     1      33.677 -25.279 -15.411  0.00  0.00    +0.150 HD
BRANCH   4   6
ATOM      6  C   UNL     1      33.040 -24.346 -13.220  0.00  0.00    +0.087 C 
BRANCH   6  10
ATOM      7  N   UNL     1      30.232 -23.438 -15.622  0.00  0.00    -0.282 N 
ATOM      8  N   UNL     1      31.401 -22.444 -17.310  0.00  0.00    -0.331 N 
ATOM      9  N   UNL     1      29.053 -22.413 -17.360  0.00  0.00    -0.273 NA
ATOM     10  C   UNL     1      31.974 -24.545 -14.295  0.00  0.00    +0.029 C 
ATOM     11  C   UNL     1      30.935 -25.584 -13.848  0.00  0.00    +0.004 C 
ATOM     12  C   UNL     1      31.292 -23.214 -14.641  0.00  0.00    +0.094 C 
ATOM     13  C   UNL     1      29.831 -25.735 -14.892  0.00  0.00    +0.022 C 
ATOM     14  C   UNL     1      29.196 -24.389 -15.227  0.00  0.00    +0.093 C 
ATOM     15  C   UNL     1      30.173 -22.751 -16.786  0.00  0.00    +0.174 C 
ATOM     16  H   UNL     1      32.220 -22.720 -16.840  0.00  0.00    +0.145 HD
ATOM     17  H   UNL     1      31.463 -21.945 -18.157  0.00  0.00    +0.145 HD
ATOM     18  H   UNL     1      28.194 -22.657 -16.945  0.00  0.00    +0.189 HD
ENDBRANCH   6  10
ENDBRANCH   4   6
ENDBRANCH   1   3
BRANCH   1  20
ATOM     19  O   UNL     1      36.530 -27.212 -15.876  0.00  0.00    -0.248 OA
ATOM     20  C   UNL     1      36.617 -26.082 -15.404  0.00  0.00    +0.335 C 
BRANCH  20  21
ATOM     21  O   UNL     1      37.503 -25.700 -14.442  0.00  0.00    -0.443 OA
ATOM     22  C   UNL     1      37.526 -26.509 -13.262  0.00  0.00    +0.256 C 
ENDBRANCH  20  21
ENDBRANCH   1  20
BRANCH   1  23
ATOM     23  C   UNL     1      36.441 -23.592 -15.845  0.00  0.00    +0.057 C 
BRANCH  23  24
ATOM     24  C   UNL     1      36.225 -22.765 -17.093  0.00  0.00    -0.020 C 
ATOM     25  C   UNL     1      35.009 -22.832 -17.773  0.00  0.00    -0.004 C 
ATOM     26  C   UNL     1      37.242 -21.934 -17.564  0.00  0.00    -0.004 C 
ATOM     27  C   UNL     1      34.810 -22.070 -18.924  0.00  0.00    +0.008 C 
ATOM     28  C   UNL     1      37.043 -21.171 -18.715  0.00  0.00    +0.008 C 
ATOM     29  C   UNL     1      35.827 -21.239 -19.395  0.00  0.00    +0.042 C 
BRANCH  29  30
ATOM     30  C   UNL     1      35.623 -20.459 -20.574  0.00  0.00    -0.060 C 
ATOM     31  C   UNL     1      35.451 -19.802 -21.564  0.00  0.00    -0.060 C 
BRANCH  31  32
ATOM     32  C   UNL     1      35.247 -19.019 -22.745  0.00  0.00    +0.042 C 
ATOM     33  C   UNL     1      34.717 -19.611 -23.891  0.00  0.00    +0.008 C 
ATOM     34  C   UNL     1      35.581 -17.665 -22.750  0.00  0.00    +0.008 C 
ATOM     35  C   UNL     1      34.518 -18.849 -25.042  0.00  0.00    +0.001 C 
ATOM     36  C   UNL     1      35.382 -16.903 -23.902  0.00  0.00    +0.001 C 
ATOM     37  C   UNL     1      34.851 -17.496 -25.048  0.00  0.00    +0.000 C 
ENDBRANCH  31  32
ENDBRANCH  29  30
ENDBRANCH  23  24
ENDBRANCH   1  23
TORSDOF 9
ENDMDL
MODEL 2
REMARK VINA RESULT:     -11.0      2.555      5.242
REMARK  Name = 5288250
REMARK  9 active torsions:
REMARK  status: ('A' for Active; 'I' for Inactive)
REMARK    1  A    between atoms: C_1  and  N_3
REMARK    2  A    between atoms: C_1  and  C_20
REMARK    3  A    between atoms: C_1  and  C_23
REMARK    4  A    between atoms: C_4  and  C_6
REMARK    5  A    between atoms: C_6  and  C_10
REMARK    6  A    between atoms: C_20  and  O_21
REMARK    7  A    between atoms: C_23  and  C_24
REMARK    8  A    between atoms: C_29  and  C_30
REMARK    9  A    between atoms: C_31  and  C_32
REMARK                            x       y       z     vdW  Elec       q    Type
REMARK                         _______ _______ _______ _____ _____    ______ ____
ROOT
ATOM      1  C   UNL     1      34.436 -23.098 -16.557  0.00  0.00    +0.176 C 
ENDROOT
BRANCH   1   3
ATOM      2  O   UNL     1      36.895 -21.574 -16.628  0.00  0.00    -0.275 OA
ATOM      3  N   UNL     1      35.738 -23.517 -16.092  0.00  0.00    -0.297 N 
ATOM      4  C   UNL     1      36.865 -22.711 -16.168  0.00  0.00    +0.223 C 
ATOM      5  H   UNL     1      35.829 -24.416 -15.701  0.00  0.00    +0.150 HD
BRANCH   4   6
ATOM      6  C   UNL     1      38.080 -23.415 -15.601  0.00  0.00    +0.087 C 
BRANCH   6  10
ATOM      7  N   UNL     1      37.070 -24.355 -12.054  0.00  0.00    -0.282 N 
ATOM      8  N   UNL     1      34.821 -23.983 -12.123  0.00  0.00    -0.331 N 
ATOM      9  N   UNL     1      35.837 -24.521 -10.076  0.00  0.00    -0.273 NA
ATOM     10  C   UNL     1      37.729 -24.314 -14.417  0.00  0.00    +0.029 C 
ATOM     11  C   UNL     1      38.899 -25.251 -14.079  0.00  0.00    +0.004 C 
ATOM     12  C   UNL     1      37.337 -23.477 -13.192  0.00  0.00    +0.094 C 
ATOM     13  C   UNL     1      38.577 -26.105 -12.854  0.00  0.00    +0.022 C 
ATOM     14  C   UNL     1      38.168 -25.239 -11.667  0.00  0.00    +0.093 C 
ATOM     15  C   UNL     1      35.912 -24.297 -11.357  0.00  0.00    +0.174 C 
ATOM     16  H   UNL     1      34.926 -23.822 -13.088  0.00  0.00    +0.145 HD
ATOM     17  H   UNL     1      33.931 -23.917 -11.707  0.00  0.00    +0.145 HD
ATOM     18  H   UNL     1      36.651 -24.744  -9.567  0.00  0.00    +0.189 HD
ENDBRANCH   6  10
ENDBRANCH   4   6
ENDBRANCH   1   3
BRANCH   1  20
ATOM     19  O   UNL     1      33.507 -24.301 -14.679  0.00  0.00    -0.248 OA
ATOM     20  C   UNL     1      33.314 -23.555 -15.634  0.00  0.00    +0.335 C 
BRANCH  20  21
ATOM     21  O   UNL     1      32.104 -23.054 -16.008  0.00  0.00    -0.443 OA
ATOM     22  C   UNL     1      31.003 -23.965 -15.927  0.00  0.00    +0.256 C 
ENDBRANCH  20  21
ENDBRANCH   1  20
BRANCH   1  23
ATOM     23  C   UNL     1      34.196 -23.531 -18.012  0.00  0.00    +0.057 C 
BRANCH  23  24
ATOM     24  C   UNL     1      34.330 -22.422 -19.031  0.00  0.00    -0.020 C 
ATOM     25  C   UNL     1      35.584 -22.099 -19.550  0.00  0.00    -0.004 C 
ATOM     26  C   UNL     1      33.199 -21.723 -19.454  0.00  0.00    -0.004 C 
ATOM     27  C   UNL     1      35.707 -21.076 -20.490  0.00  0.00    +0.008 C 
ATOM     28  C   UNL     1      33.322 -20.701 -20.394  0.00  0.00    +0.008 C 
ATOM     29  C   UNL     1      34.576 -20.377 -20.912  0.00  0.00    +0.042 C 
BRANCH  29  30
ATOM     30  C   UNL     1      34.703 -19.329 -21.875  0.00  0.00    -0.060 C 
ATOM     31  C   UNL     1      34.811 -18.447 -22.683  0.00  0.00    -0.060 C 
BRANCH  31  32
ATOM     32  C   UNL     1      34.939 -17.398 -23.648  0.00  0.00    +0.042 C 
ATOM     33  C   UNL     1      35.220 -16.098 -23.230  0.00  0.00    +0.008 C 
ATOM     34  C   UNL     1      34.781 -17.675 -25.006  0.00  0.00    +0.008 C 
ATOM     35  C   UNL     1      35.345 -15.074 -24.169  0.00  0.00    +0.001 C 
ATOM     36  C   UNL     1      34.906 -16.652 -25.945  0.00  0.00    +0.001 C 
ATOM     37  C   UNL     1      35.187 -15.351 -25.526  0.00  0.00    +0.000 C 
ENDBRANCH  31  32
ENDBRANCH  29  30
ENDBRANCH  23  24
ENDBRANCH   1  23
TORSDOF 9
ENDMDL
MODEL 3
REMARK VINA RESULT:     -10.9      2.352      5.206
REMARK  Name = 5288250
REMARK  9 active torsions:
REMARK  status: ('A' for Active; 'I' for Inactive)
REMARK    1  A    between atoms: C_1  and  N_3
REMARK    2  A    between atoms: C_1  and  C_20
REMARK    3  A    between atoms: C_1  and  C_23
REMARK    4  A    between atoms: C_4  and  C_6
REMARK    5  A    between atoms: C_6  and  C_10
REMARK    6  A    between atoms: C_20  and  O_21
REMARK    7  A    between atoms: C_23  and  C_24
REMARK    8  A    between atoms: C_29  and  C_30
REMARK    9  A    between atoms: C_31  and  C_32
REMARK                            x       y       z     vdW  Elec       q    Type
REMARK                         _______ _______ _______ _____ _____    ______ ____
ROOT
ATOM      1  C   UNL     1      33.052 -23.003 -15.846  0.00  0.00    +0.176 C 
ENDROOT
BRANCH   1   3
ATOM      2  O   UNL     1      33.251 -25.478 -14.358  0.00  0.00    -0.275 OA
ATOM      3  N   UNL     1      33.726 -23.214 -14.585  0.00  0.00    -0.297 N 
ATOM      4  C   UNL     1      33.768 -24.444 -13.945  0.00  0.00    +0.223 C 
ATOM      5  H   UNL     1      34.177 -22.449 -14.162  0.00  0.00    +0.150 HD
BRANCH   4   6
ATOM      6  C   UNL     1      34.546 -24.360 -12.648  0.00  0.00    +0.087 C 
BRANCH   6  10
ATOM      7  N   UNL     1      37.998 -24.627 -14.226  0.00  0.00    -0.282 N 
ATOM      8  N   UNL     1      37.709 -23.404 -16.130  0.00  0.00    -0.331 N 
ATOM      9  N   UNL     1      39.716 -24.580 -15.811  0.00  0.00    -0.273 NA
ATOM     10  C   UNL     1      36.026 -24.064 -12.879  0.00  0.00    +0.029 C 
ATOM     11  C   UNL     1      36.844 -24.353 -11.611  0.00  0.00    +0.004 C 
ATOM     12  C   UNL     1      36.566 -24.875 -14.066  0.00  0.00    +0.094 C 
ATOM     13  C   UNL     1      38.334 -24.123 -11.859  0.00  0.00    +0.022 C 
ATOM     14  C   UNL     1      38.826 -24.925 -13.060  0.00  0.00    +0.093 C 
ATOM     15  C   UNL     1      38.531 -24.224 -15.403  0.00  0.00    +0.174 C 
ATOM     16  H   UNL     1      36.821 -23.162 -15.781  0.00  0.00    +0.145 HD
ATOM     17  H   UNL     1      38.006 -23.056 -17.002  0.00  0.00    +0.145 HD
ATOM     18  H   UNL     1      40.271 -25.172 -15.253  0.00  0.00    +0.189 HD
ENDBRANCH   6  10
ENDBRANCH   4   6
ENDBRANCH   1   3
BRANCH   1  20
ATOM     19  O   UNL     1      31.275 -24.502 -16.506  0.00  0.00    -0.248 OA
ATOM     20  C   UNL     1      31.625 -23.534 -15.837  0.00  0.00    +0.335 C 
BRANCH  20  21
ATOM     21  O   UNL     1      30.809 -22.804 -15.027  0.00  0.00    -0.443 OA
ATOM     22  C   UNL     1      29.434 -22.745 -15.421  0.00  0.00    +0.256 C 
ENDBRANCH  20  21
ENDBRANCH   1  20
BRANCH   1  23
ATOM     23  C   UNL     1      33.869 -23.567 -17.017  0.00  0.00    +0.057 C 
BRANCH  23  24
ATOM     24  C   UNL     1      34.054 -22.613 -18.176  0.00  0.00    -0.020 C 
ATOM     25  C   UNL     1      35.335 -22.316 -18.638  0.00  0.00    -0.004 C 
ATOM     26  C   UNL     1      32.941 -22.031 -18.784  0.00  0.00    -0.004 C 
ATOM     27  C   UNL     1      35.505 -21.435 -19.707  0.00  0.00    +0.008 C 
ATOM     28  C   UNL     1      33.110 -21.151 -19.852  0.00  0.00    +0.008 C 
ATOM     29  C   UNL     1      34.393 -20.853 -20.314  0.00  0.00    +0.042 C 
BRANCH  29  30
ATOM     30  C   UNL     1      34.567 -19.951 -21.408  0.00  0.00    -0.060 C 
ATOM     31  C   UNL     1      34.713 -19.194 -22.329  0.00  0.00    -0.060 C 
BRANCH  31  32
ATOM     32  C   UNL     1      34.886 -18.290 -23.425  0.00  0.00    +0.042 C 
ATOM     33  C   UNL     1      35.494 -17.053 -23.219  0.00  0.00    +0.008 C 
ATOM     34  C   UNL     1      34.447 -18.649 -24.700  0.00  0.00    +0.008 C 
ATOM     35  C   UNL     1      35.663 -16.171 -24.287  0.00  0.00    +0.001 C 
ATOM     36  C   UNL     1      34.616 -17.767 -25.768  0.00  0.00    +0.001 C 
ATOM     37  C   UNL     1      35.224 -16.529 -25.561  0.00  0.00    +0.000 C 
ENDBRANCH  31  32
ENDBRANCH  29  30
ENDBRANCH  23  24
ENDBRANCH   1  23
TORSDOF 9
ENDMDL
MODEL 4
REMARK VINA RESULT:     -10.8      3.154      5.560
REMARK  Name = 5288250
REMARK  9 active torsions:
REMARK  status: ('A' for Active; 'I' for Inactive)
REMARK    1  A    between atoms: C_1  and  N_3
REMARK    2  A    between atoms: C_1  and  C_20
REMARK    3  A    between atoms: C_1  and  C_23
REMARK    4  A    between atoms: C_4  and  C_6
REMARK    5  A    between atoms: C_6  and  C_10
REMARK    6  A    between atoms: C_20  and  O_21
REMARK    7  A    between atoms: C_23  and  C_24
REMARK    8  A    between atoms: C_29  and  C_30
REMARK    9  A    between atoms: C_31  and  C_32
REMARK                            x       y       z     vdW  Elec       q    Type
REMARK                         _______ _______ _______ _____ _____    ______ ____
ROOT
ATOM      1  C   UNL     1      35.449 -22.017 -18.685  0.00  0.00    +0.176 C 
ENDROOT
BRANCH   1   3
ATOM      2  O   UNL     1      37.581 -20.986 -17.021  0.00  0.00    -0.275 OA
ATOM      3  N   UNL     1      36.101 -22.688 -17.584  0.00  0.00    -0.297 N 
ATOM      4  C   UNL     1      37.119 -22.109 -16.840  0.00  0.00    +0.223 C 
ATOM      5  H   UNL     1      35.807 -23.598 -17.350  0.00  0.00    +0.150 HD
BRANCH   4   6
ATOM      6  C   UNL     1      37.603 -23.046 -15.753  0.00  0.00    +0.087 C 
BRANCH   6  10
ATOM      7  N   UNL     1      36.015 -24.470 -12.602  0.00  0.00    -0.282 N 
ATOM      8  N   UNL     1      37.235 -23.424 -10.983  0.00  0.00    -0.331 N 
ATOM      9  N   UNL     1      35.699 -25.092 -10.371  0.00  0.00    -0.273 NA
ATOM     10  C   UNL     1      36.575 -23.219 -14.637  0.00  0.00    +0.029 C 
ATOM     11  C   UNL     1      35.203 -23.596 -15.214  0.00  0.00    +0.004 C 
ATOM     12  C   UNL     1      37.043 -24.273 -13.623  0.00  0.00    +0.094 C 
ATOM     13  C   UNL     1      34.189 -23.837 -14.097  0.00  0.00    +0.022 C 
ATOM     14  C   UNL     1      34.700 -24.870 -13.097  0.00  0.00    +0.093 C 
ATOM     15  C   UNL     1      36.286 -24.366 -11.280  0.00  0.00    +0.174 C 
ATOM     16  H   UNL     1      37.651 -22.900 -11.704  0.00  0.00    +0.145 HD
ATOM     17  H   UNL     1      37.501 -23.273 -10.047  0.00  0.00    +0.145 HD
ATOM     18  H   UNL     1      35.022 -25.757 -10.635  0.00  0.00    +0.189 HD
ENDBRANCH   6  10
ENDBRANCH   4   6
ENDBRANCH   1   3
BRANCH   1  20
ATOM     19  O   UNL     1      34.297 -23.756 -19.904  0.00  0.00    -0.248 OA
ATOM     20  C   UNL     1      34.221 -22.770 -19.178  0.00  0.00    +0.335 C 
BRANCH  20  21
ATOM     21  O   UNL     1      33.061 -22.209 -18.734  0.00  0.00    -0.443 OA
ATOM     22  C   UNL     1      32.487 -22.811 -17.570  0.00  0.00    +0.256 C 
ENDBRANCH  20  21
ENDBRANCH   1  20
BRANCH   1  23
ATOM     23  C   UNL     1      36.437 -21.720 -19.823  0.00  0.00    +0.057 C 
BRANCH  23  24
ATOM     24  C   UNL     1      36.091 -20.509 -20.660  0.00  0.00    -0.020 C 
ATOM     25  C   UNL     1      37.086 -19.597 -21.012  0.00  0.00    -0.004 C 
ATOM     26  C   UNL     1      34.777 -20.304 -21.080  0.00  0.00    -0.004 C 
ATOM     27  C   UNL     1      36.767 -18.480 -21.784  0.00  0.00    +0.008 C 
ATOM     28  C   UNL     1      34.457 -19.187 -21.852  0.00  0.00    +0.008 C 
ATOM     29  C   UNL     1      35.452 -18.275 -22.204  0.00  0.00    +0.042 C 
BRANCH  29  30
ATOM     30  C   UNL     1      35.125 -17.130 -22.994  0.00  0.00    -0.060 C 
ATOM     31  C   UNL     1      34.851 -16.169 -23.659  0.00  0.00    -0.060 C 
BRANCH  31  32
ATOM     32  C   UNL     1      34.523 -15.023 -24.452  0.00  0.00    +0.042 C 
ATOM     33  C   UNL     1      34.093 -15.186 -25.768  0.00  0.00    +0.008 C 
ATOM     34  C   UNL     1      34.635 -13.744 -23.907  0.00  0.00    +0.008 C 
ATOM     35  C   UNL     1      33.774 -14.069 -26.541  0.00  0.00    +0.001 C 
ATOM     36  C   UNL     1      34.316 -12.627 -24.680  0.00  0.00    +0.001 C 
ATOM     37  C   UNL     1      33.885 -12.790 -25.997  0.00  0.00    +0.000 C 
ENDBRANCH  31  32
ENDBRANCH  29  30
ENDBRANCH  23  24
ENDBRANCH   1  23
TORSDOF 9
ENDMDL
MODEL 5
REMARK VINA RESULT:     -10.4      5.408     10.725
REMARK  Name = 5288250
REMARK  9 active torsions:
REMARK  status: ('A' for Active; 'I' for Inactive)
REMARK    1  A    between atoms: C_1  and  N_3
REMARK    2  A    between atoms: C_1  and  C_20
REMARK    3  A    between atoms: C_1  and  C_23
REMARK    4  A    between atoms: C_4  and  C_6
REMARK    5  A    between atoms: C_6  and  C_10
REMARK    6  A    between atoms: C_20  and  O_21
REMARK    7  A    between atoms: C_23  and  C_24
REMARK    8  A    between atoms: C_29  and  C_30
REMARK    9  A    between atoms: C_31  and  C_32
REMARK                            x       y       z     vdW  Elec       q    Type
REMARK                         _______ _______ _______ _____ _____    ______ ____
ROOT
ATOM      1  C   UNL     1      35.912 -18.402 -21.889  0.00  0.00    +0.176 C 
ENDROOT
BRANCH   1   3
ATOM      2  O   UNL     1      35.041 -15.739 -21.166  0.00  0.00    -0.275 OA
ATOM      3  N   UNL     1      35.551 -17.327 -22.784  0.00  0.00    -0.297 N 
ATOM      4  C   UNL     1      35.143 -16.077 -22.341  0.00  0.00    +0.223 C 
ATOM      5  H   UNL     1      35.598 -17.489 -23.754  0.00  0.00    +0.150 HD
BRANCH   4   6
ATOM      6  C   UNL     1      34.836 -15.158 -23.505  0.00  0.00    +0.087 C 
BRANCH   6  10
ATOM      7  N   UNL     1      32.397 -12.550 -22.188  0.00  0.00    -0.282 N 
ATOM      8  N   UNL     1      32.410 -13.022 -19.956  0.00  0.00    -0.331 N 
ATOM      9  N   UNL     1      30.892 -11.436 -20.789  0.00  0.00    -0.273 NA
ATOM     10  C   UNL     1      34.333 -13.791 -23.046  0.00  0.00    +0.029 C 
ATOM     11  C   UNL     1      34.462 -12.756 -24.174  0.00  0.00    +0.004 C 
ATOM     12  C   UNL     1      32.879 -13.880 -22.559  0.00  0.00    +0.094 C 
ATOM     13  C   UNL     1      33.896 -11.404 -23.740  0.00  0.00    +0.022 C 
ATOM     14  C   UNL     1      32.461 -11.538 -23.240  0.00  0.00    +0.093 C 
ATOM     15  C   UNL     1      31.854 -12.295 -20.975  0.00  0.00    +0.174 C 
ATOM     16  H   UNL     1      33.136 -13.660 -20.145  0.00  0.00    +0.145 HD
ATOM     17  H   UNL     1      32.083 -12.907 -19.034  0.00  0.00    +0.145 HD
ATOM     18  H   UNL     1      30.524 -10.936 -21.555  0.00  0.00    +0.189 HD
ENDBRANCH   6  10
ENDBRANCH   4   6
ENDBRANCH   1   3
BRANCH   1  20
ATOM     19  O   UNL     1      38.149 -18.806 -22.707  0.00  0.00    -0.248 OA
ATOM     20  C   UNL     1      37.420 -18.562 -21.751  0.00  0.00    +0.335 C 
BRANCH  20  21
ATOM     21  O   UNL     1      37.836 -18.420 -20.462  0.00  0.00    -0.443 OA
ATOM     22  C   UNL     1      37.657 -19.564 -19.621  0.00  0.00    +0.256 C 
ENDBRANCH  20  21
ENDBRANCH   1  20
BRANCH   1  23
ATOM     23  C   UNL     1      35.228 -19.718 -22.292  0.00  0.00    +0.057 C 
BRANCH  23  24
ATOM     24  C   UNL     1      34.611 -20.486 -21.145  0.00  0.00    -0.020 C 
ATOM     25  C   UNL     1      33.273 -20.283 -20.809  0.00  0.00    -0.004 C 
ATOM     26  C   UNL     1      35.381 -21.399 -20.423  0.00  0.00    -0.004 C 
ATOM     27  C   UNL     1      32.704 -20.992 -19.750  0.00  0.00    +0.008 C 
ATOM     28  C   UNL     1      34.812 -22.108 -19.366  0.00  0.00    +0.008 C 
ATOM     29  C   UNL     1      33.474 -21.905 -19.029  0.00  0.00    +0.042 C 
BRANCH  29  30
ATOM     30  C   UNL     1      32.891 -22.630 -17.944  0.00  0.00    -0.060 C 
ATOM     31  C   UNL     1      32.400 -23.238 -17.033  0.00  0.00    -0.060 C 
BRANCH  31  32
ATOM     32  C   UNL     1      31.815 -23.965 -15.947  0.00  0.00    +0.042 C 
ATOM     33  C   UNL     1      30.464 -24.305 -15.985  0.00  0.00    +0.008 C 
ATOM     34  C   UNL     1      32.597 -24.331 -14.852  0.00  0.00    +0.008 C 
ATOM     35  C   UNL     1      29.893 -25.013 -14.927  0.00  0.00    +0.001 C 
ATOM     36  C   UNL     1      32.026 -25.038 -13.794  0.00  0.00    +0.001 C 
ATOM     37  C   UNL     1      30.674 -25.379 -13.832  0.00  0.00    +0.000 C 
ENDBRANCH  31  32
ENDBRANCH  29  30
ENDBRANCH  23  24
ENDBRANCH   1  23
TORSDOF 9
ENDMDL
MODEL 6
REMARK VINA RESULT:     -10.1      7.654     12.280
REMARK  Name = 5288250
REMARK  9 active torsions:
REMARK  status: ('A' for Active; 'I' for Inactive)
REMARK    1  A    between atoms: C_1  and  N_3
REMARK    2  A    between atoms: C_1  and  C_20
REMARK    3  A    between atoms: C_1  and  C_23
REMARK    4  A    between atoms: C_4  and  C_6
REMARK    5  A    between atoms: C_6  and  C_10
REMARK    6  A    between atoms: C_20  and  O_21
REMARK    7  A    between atoms: C_23  and  C_24
REMARK    8  A    between atoms: C_29  and  C_30
REMARK    9  A    between atoms: C_31  and  C_32
REMARK                            x       y       z     vdW  Elec       q    Type
REMARK                         _______ _______ _______ _____ _____    ______ ____
ROOT
ATOM      1  C   UNL     1      34.474 -15.117 -25.216  0.00  0.00    +0.176 C 
ENDROOT
BRANCH   1   3
ATOM      2  O   UNL     1      33.801 -12.524 -24.122  0.00  0.00    -0.275 OA
ATOM      3  N   UNL     1      33.932 -14.835 -23.907  0.00  0.00    -0.297 N 
ATOM      4  C   UNL     1      33.639 -13.551 -23.469  0.00  0.00    +0.223 C 
ATOM      5  H   UNL     1      33.762 -15.589 -23.297  0.00  0.00    +0.150 HD
BRANCH   4   6
ATOM      6  C   UNL     1      33.082 -13.567 -22.061  0.00  0.00    +0.087 C 
BRANCH   6  10
ATOM      7  N   UNL     1      32.263  -9.885 -21.562  0.00  0.00    -0.282 N 
ATOM      8  N   UNL     1      32.082  -9.176 -23.722  0.00  0.00    -0.331 N 
ATOM      9  N   UNL     1      31.994  -7.602 -21.983  0.00  0.00    -0.273 NA
ATOM     10  C   UNL     1      32.239 -12.330 -21.758  0.00  0.00    +0.029 C 
ATOM     11  C   UNL     1      31.643 -12.410 -20.344  0.00  0.00    +0.004 C 
ATOM     12  C   UNL     1      33.070 -11.050 -21.921  0.00  0.00    +0.094 C 
ATOM     13  C   UNL     1      30.855 -11.144 -20.012  0.00  0.00    +0.022 C 
ATOM     14  C   UNL     1      31.706  -9.894 -20.211  0.00  0.00    +0.093 C 
ATOM     15  C   UNL     1      32.108  -8.831 -22.397  0.00  0.00    +0.174 C 
ATOM     16  H   UNL     1      32.172 -10.120 -23.988  0.00  0.00    +0.145 HD
ATOM     17  H   UNL     1      31.973  -8.480 -24.410  0.00  0.00    +0.145 HD
ATOM     18  H   UNL     1      32.019  -7.403 -21.019  0.00  0.00    +0.189 HD
ENDBRANCH   6  10
ENDBRANCH   4   6
ENDBRANCH   1   3
BRANCH   1  20
ATOM     19  O   UNL     1      33.072 -16.669 -26.426  0.00  0.00    -0.248 OA
ATOM     20  C   UNL     1      33.397 -15.504 -26.220  0.00  0.00    +0.335 C 
BRANCH  20  21
ATOM     21  O   UNL     1      32.868 -14.418 -26.851  0.00  0.00    -0.443 OA
ATOM     22  C   UNL     1      33.816 -13.507 -27.416  0.00  0.00    +0.256 C 
ENDBRANCH  20  21
ENDBRANCH   1  20
BRANCH   1  23
ATOM     23  C   UNL     1      35.594 -16.166 -25.142  0.00  0.00    +0.057 C 
BRANCH  23  24
ATOM     24  C   UNL     1      35.431 -17.188 -24.039  0.00  0.00    -0.020 C 
ATOM     25  C   UNL     1      35.754 -16.854 -22.725  0.00  0.00    -0.004 C 
ATOM     26  C   UNL     1      34.957 -18.465 -24.338  0.00  0.00    -0.004 C 
ATOM     27  C   UNL     1      35.604 -17.797 -21.708  0.00  0.00    +0.008 C 
ATOM     28  C   UNL     1      34.806 -19.408 -23.322  0.00  0.00    +0.008 C 
ATOM     29  C   UNL     1      35.129 -19.074 -22.007  0.00  0.00    +0.042 C 
BRANCH  29  30
ATOM     30  C   UNL     1      34.976 -20.040 -20.965  0.00  0.00    -0.060 C 
ATOM     31  C   UNL     1      34.849 -20.852 -20.089  0.00  0.00    -0.060 C 
BRANCH  31  32
ATOM     32  C   UNL     1      34.696 -21.819 -19.045  0.00  0.00    +0.042 C 
ATOM     33  C   UNL     1      33.489 -22.502 -18.899  0.00  0.00    +0.008 C 
ATOM     34  C   UNL     1      35.754 -22.077 -18.174  0.00  0.00    +0.008 C 
ATOM     35  C   UNL     1      33.339 -23.444 -17.882  0.00  0.00    +0.001 C 
ATOM     36  C   UNL     1      35.604 -23.020 -17.156  0.00  0.00    +0.001 C 
ATOM     37  C   UNL     1      34.397 -23.703 -17.011  0.00  0.00    +0.000 C 
ENDBRANCH  31  32
ENDBRANCH  29  30
ENDBRANCH  23  24
ENDBRANCH   1  23
TORSDOF 9
ENDMDL
MODEL 7
REMARK VINA RESULT:     -10.0      1.643      2.419
REMARK  Name = 5288250
REMARK  9 active torsions:
REMARK  status: ('A' for Active; 'I' for Inactive)
REMARK    1  A    between atoms: C_1  and  N_3
REMARK    2  A    between atoms: C_1  and  C_20
REMARK    3  A    between atoms: C_1  and  C_23
REMARK    4  A    between atoms: C_4  and  C_6
REMARK    5  A    between atoms: C_6  and  C_10
REMARK    6  A    between atoms: C_20  and  O_21
REMARK    7  A    between atoms: C_23  and  C_24
REMARK    8  A    between atoms: C_29  and  C_30
REMARK    9  A    between atoms: C_31  and  C_32
REMARK                            x       y       z     vdW  Elec       q    Type
REMARK                         _______ _______ _______ _____ _____    ______ ____
ROOT
ATOM      1  C   UNL     1      36.287 -24.253 -12.975  0.00  0.00    +0.176 C 
ENDROOT
BRANCH   1   3
ATOM      2  O   UNL     1      33.569 -25.219 -12.739  0.00  0.00    -0.275 OA
ATOM      3  N   UNL     1      35.078 -23.570 -13.376  0.00  0.00    -0.297 N 
ATOM      4  C   UNL     1      33.812 -24.117 -13.221  0.00  0.00    +0.223 C 
ATOM      5  H   UNL     1      35.156 -22.674 -13.776  0.00  0.00    +0.150 HD
BRANCH   4   6
ATOM      6  C   UNL     1      32.742 -23.172 -13.726  0.00  0.00    +0.087 C 
BRANCH   6  10
ATOM      7  N   UNL     1      29.493 -23.734 -15.625  0.00  0.00    -0.282 N 
ATOM      8  N   UNL     1      29.785 -22.352 -17.416  0.00  0.00    -0.331 N 
ATOM      9  N   UNL     1      27.715 -23.419 -17.109  0.00  0.00    -0.273 NA
ATOM     10  C   UNL     1      31.735 -23.870 -14.637  0.00  0.00    +0.029 C 
ATOM     11  C   UNL     1      31.380 -25.262 -14.091  0.00  0.00    +0.004 C 
ATOM     12  C   UNL     1      30.469 -23.018 -14.805  0.00  0.00    +0.094 C 
ATOM     13  C   UNL     1      30.322 -25.935 -14.963  0.00  0.00    +0.022 C 
ATOM     14  C   UNL     1      29.092 -25.048 -15.127  0.00  0.00    +0.093 C 
ATOM     15  C   UNL     1      28.939 -23.183 -16.730  0.00  0.00    +0.174 C 
ATOM     16  H   UNL     1      30.701 -22.204 -17.091  0.00  0.00    +0.145 HD
ATOM     17  H   UNL     1      29.474 -21.903 -18.236  0.00  0.00    +0.145 HD
ATOM     18  H   UNL     1      27.145 -24.024 -16.582  0.00  0.00    +0.189 HD
ENDBRANCH   6  10
ENDBRANCH   4   6
ENDBRANCH   1   3
BRANCH   1  20
ATOM     19  O   UNL     1      37.678 -22.380 -12.346  0.00  0.00    -0.248 OA
ATOM     20  C   UNL     1      37.129 -23.426 -12.014  0.00  0.00    +0.335 C 
BRANCH  20  21
ATOM     21  O   UNL     1      37.204 -23.994 -10.777  0.00  0.00    -0.443 OA
ATOM     22  C   UNL     1      35.966 -24.458 -10.230  0.00  0.00    +0.256 C 
ENDBRANCH  20  21
ENDBRANCH   1  20
BRANCH   1  23
ATOM     23  C   UNL     1      37.096 -24.718 -14.195  0.00  0.00    +0.057 C 
BRANCH  23  24
ATOM     24  C   UNL     1      36.923 -23.863 -15.431  0.00  0.00    -0.020 C 
ATOM     25  C   UNL     1      35.701 -23.847 -16.103  0.00  0.00    -0.004 C 
ATOM     26  C   UNL     1      37.986 -23.090 -15.899  0.00  0.00    -0.004 C 
ATOM     27  C   UNL     1      35.541 -23.059 -17.243  0.00  0.00    +0.008 C 
ATOM     28  C   UNL     1      37.827 -22.302 -17.038  0.00  0.00    +0.008 C 
ATOM     29  C   UNL     1      36.605 -22.286 -17.710  0.00  0.00    +0.042 C 
BRANCH  29  30
ATOM     30  C   UNL     1      36.441 -21.479 -18.879  0.00  0.00    -0.060 C 
ATOM     31  C   UNL     1      36.306 -20.803 -19.861  0.00  0.00    -0.060 C 
BRANCH  31  32
ATOM     32  C   UNL     1      36.142 -19.996 -21.032  0.00  0.00    +0.042 C 
ATOM     33  C   UNL     1      34.968 -20.081 -21.778  0.00  0.00    +0.008 C 
ATOM     34  C   UNL     1      37.159 -19.125 -21.426  0.00  0.00    +0.008 C 
ATOM     35  C   UNL     1      34.808 -19.294 -22.919  0.00  0.00    +0.001 C 
ATOM     36  C   UNL     1      36.999 -18.339 -22.567  0.00  0.00    +0.001 C 
ATOM     37  C   UNL     1      35.823 -18.424 -23.314  0.00  0.00    +0.000 C 
ENDBRANCH  31  32
ENDBRANCH  29  30
ENDBRANCH  23  24
ENDBRANCH   1  23
TORSDOF 9
ENDMDL
MODEL 8
REMARK VINA RESULT:      -9.9      6.789     10.731
REMARK  Name = 5288250
REMARK  9 active torsions:
REMARK  status: ('A' for Active; 'I' for Inactive)
REMARK    1  A    between atoms: C_1  and  N_3
REMARK    2  A    between atoms: C_1  and  C_20
REMARK    3  A    between atoms: C_1  and  C_23
REMARK    4  A    between atoms: C_4  and  C_6
REMARK    5  A    between atoms: C_6  and  C_10
REMARK    6  A    between atoms: C_20  and  O_21
REMARK    7  A    between atoms: C_23  and  C_24
REMARK    8  A    between atoms: C_29  and  C_30
REMARK    9  A    between atoms: C_31  and  C_32
REMARK                            x       y       z     vdW  Elec       q    Type
REMARK                         _______ _______ _______ _____ _____    ______ ____
ROOT
ATOM      1  C   UNL     1      34.560 -17.148 -24.256  0.00  0.00    +0.176 C 
ENDROOT
BRANCH   1   3
ATOM      2  O   UNL     1      35.449 -17.183 -21.502  0.00  0.00    -0.275 OA
ATOM      3  N   UNL     1      35.275 -18.207 -23.582  0.00  0.00    -0.297 N 
ATOM      4  C   UNL     1      35.661 -18.133 -22.251  0.00  0.00    +0.223 C 
ATOM      5  H   UNL     1      35.498 -19.020 -24.090  0.00  0.00    +0.150 HD
BRANCH   4   6
ATOM      6  C   UNL     1      36.388 -19.390 -21.821  0.00  0.00    +0.087 C 
BRANCH   6  10
ATOM      7  N   UNL     1      35.947 -21.840 -18.943  0.00  0.00    -0.282 N 
ATOM      8  N   UNL     1      37.368 -20.958 -17.392  0.00  0.00    -0.331 N 
ATOM      9  N   UNL     1      36.341 -23.026 -16.968  0.00  0.00    -0.273 NA
ATOM     10  C   UNL     1      35.736 -20.050 -20.608  0.00  0.00    +0.029 C 
ATOM     11  C   UNL     1      34.339 -20.581 -20.962  0.00  0.00    +0.004 C 
ATOM     12  C   UNL     1      36.620 -21.179 -20.061  0.00  0.00    +0.094 C 
ATOM     13  C   UNL     1      33.712 -21.302 -19.770  0.00  0.00    +0.022 C 
ATOM     14  C   UNL     1      34.630 -22.399 -19.239  0.00  0.00    +0.093 C 
ATOM     15  C   UNL     1      36.539 -21.992 -17.736  0.00  0.00    +0.174 C 
ATOM     16  H   UNL     1      37.487 -20.197 -18.005  0.00  0.00    +0.145 HD
ATOM     17  H   UNL     1      37.846 -20.975 -16.531  0.00  0.00    +0.145 HD
ATOM     18  H   UNL     1      35.735 -23.746 -17.259  0.00  0.00    +0.189 HD
ENDBRANCH   6  10
ENDBRANCH   4   6
ENDBRANCH   1   3
BRANCH   1  20
ATOM     19  O   UNL     1      33.573 -16.914 -26.450  0.00  0.00    -0.248 OA
ATOM     20  C   UNL     1      33.824 -17.642 -25.494  0.00  0.00    +0.335 C 
BRANCH  20  21
ATOM     21  O   UNL     1      33.475 -18.956 -25.396  0.00  0.00    -0.443 OA
ATOM     22  C   UNL     1      32.313 -19.346 -26.135  0.00  0.00    +0.256 C 
ENDBRANCH  20  21
ENDBRANCH   1  20
BRANCH   1  23
ATOM     23  C   UNL     1      35.484 -15.962 -24.571  0.00  0.00    +0.057 C 
BRANCH  23  24
ATOM     24  C   UNL     1      34.893 -14.603 -24.267  0.00  0.00    -0.020 C 
ATOM     25  C   UNL     1      34.621 -13.713 -25.305  0.00  0.00    -0.004 C 
ATOM     26  C   UNL     1      34.620 -14.242 -22.948  0.00  0.00    -0.004 C 
ATOM     27  C   UNL     1      34.077 -12.459 -25.024  0.00  0.00    +0.008 C 
ATOM     28  C   UNL     1      34.075 -12.989 -22.666  0.00  0.00    +0.008 C 
ATOM     29  C   UNL     1      33.804 -12.098 -23.704  0.00  0.00    +0.042 C 
BRANCH  29  30
ATOM     30  C   UNL     1      33.247 -10.814 -23.417  0.00  0.00    -0.060 C 
ATOM     31  C   UNL     1      32.779  -9.734 -23.176  0.00  0.00    -0.060 C 
BRANCH  31  32
ATOM     32  C   UNL     1      32.221  -8.448 -22.889  0.00  0.00    +0.042 C 
ATOM     33  C   UNL     1      32.455  -7.847 -21.653  0.00  0.00    +0.008 C 
ATOM     34  C   UNL     1      31.443  -7.796 -23.846  0.00  0.00    +0.008 C 
ATOM     35  C   UNL     1      31.911  -6.593 -21.372  0.00  0.00    +0.001 C 
ATOM     36  C   UNL     1      30.900  -6.542 -23.566  0.00  0.00    +0.001 C 
ATOM     37  C   UNL     1      31.133  -5.942 -22.328  0.00  0.00    +0.000 C 
ENDBRANCH  31  32
ENDBRANCH  29  30
ENDBRANCH  23  24
ENDBRANCH   1  23
TORSDOF 9
ENDMDL
MODEL 9
REMARK VINA RESULT:      -9.9      5.743     11.089
REMARK  Name = 5288250
REMARK  9 active torsions:
REMARK  status: ('A' for Active; 'I' for Inactive)
REMARK    1  A    between atoms: C_1  and  N_3
REMARK    2  A    between atoms: C_1  and  C_20
REMARK    3  A    between atoms: C_1  and  C_23
REMARK    4  A    between atoms: C_4  and  C_6
REMARK    5  A    between atoms: C_6  and  C_10
REMARK    6  A    between atoms: C_20  and  O_21
REMARK    7  A    between atoms: C_23  and  C_24
REMARK    8  A    between atoms: C_29  and  C_30
REMARK    9  A    between atoms: C_31  and  C_32
REMARK                            x       y       z     vdW  Elec       q    Type
REMARK                         _______ _______ _______ _____ _____    ______ ____
ROOT
ATOM      1  C   UNL     1      35.440 -19.093 -21.885  0.00  0.00    +0.176 C 
ENDROOT
BRANCH   1   3
ATOM      2  O   UNL     1      36.168 -16.422 -22.732  0.00  0.00    -0.275 OA
ATOM      3  N   UNL     1      34.950 -17.842 -21.352  0.00  0.00    -0.297 N 
ATOM      4  C   UNL     1      35.360 -16.604 -21.826  0.00  0.00    +0.223 C 
ATOM      5  H   UNL     1      34.294 -17.870 -20.619  0.00  0.00    +0.150 HD
BRANCH   4   6
ATOM      6  C   UNL     1      34.675 -15.478 -21.080  0.00  0.00    +0.087 C 
BRANCH   6  10
ATOM      7  N   UNL     1      33.936 -13.099 -23.955  0.00  0.00    -0.282 N 
ATOM      8  N   UNL     1      33.910 -14.539 -25.724  0.00  0.00    -0.331 N 
ATOM      9  N   UNL     1      33.761 -12.229 -26.118  0.00  0.00    -0.273 NA
ATOM     10  C   UNL     1      33.852 -14.585 -22.005  0.00  0.00    +0.029 C 
ATOM     11  C   UNL     1      33.168 -13.462 -21.212  0.00  0.00    +0.004 C 
ATOM     12  C   UNL     1      34.729 -14.001 -23.122  0.00  0.00    +0.094 C 
ATOM     13  C   UNL     1      32.399 -12.527 -22.144  0.00  0.00    +0.022 C 
ATOM     14  C   UNL     1      33.297 -11.988 -23.254  0.00  0.00    +0.093 C 
ATOM     15  C   UNL     1      33.865 -13.238 -25.299  0.00  0.00    +0.174 C 
ATOM     16  H   UNL     1      33.989 -15.269 -25.068  0.00  0.00    +0.145 HD
ATOM     17  H   UNL     1      33.864 -14.745 -26.686  0.00  0.00    +0.145 HD
ATOM     18  H   UNL     1      33.733 -11.310 -25.765  0.00  0.00    +0.189 HD
ENDBRANCH   6  10
ENDBRANCH   4   6
ENDBRANCH   1   3
BRANCH   1  20
ATOM     19  O   UNL     1      36.756 -19.043 -23.911  0.00  0.00    -0.248 OA
ATOM     20  C   UNL     1      35.643 -19.041 -23.393  0.00  0.00    +0.335 C 
BRANCH  20  21
ATOM     21  O   UNL     1      34.462 -18.977 -24.069  0.00  0.00    -0.443 OA
ATOM     22  C   UNL     1      34.447 -18.114 -25.210  0.00  0.00    +0.256 C 
ENDBRANCH  20  21
ENDBRANCH   1  20
BRANCH   1  23
ATOM     23  C   UNL     1      34.545 -20.268 -21.464  0.00  0.00    +0.057 C 
BRANCH  23  24
ATOM     24  C   UNL     1      34.998 -20.992 -20.216  0.00  0.00    -0.020 C 
ATOM     25  C   UNL     1      34.088 -21.749 -19.479  0.00  0.00    -0.004 C 
ATOM     26  C   UNL     1      36.328 -20.904 -19.803  0.00  0.00    -0.004 C 
ATOM     27  C   UNL     1      34.507 -22.416 -18.328  0.00  0.00    +0.008 C 
ATOM     28  C   UNL     1      36.747 -21.571 -18.653  0.00  0.00    +0.008 C 
ATOM     29  C   UNL     1      35.836 -22.328 -17.915  0.00  0.00    +0.042 C 
BRANCH  29  30
ATOM     30  C   UNL     1      36.264 -23.011 -16.735  0.00  0.00    -0.060 C 
ATOM     31  C   UNL     1      36.623 -23.587 -15.744  0.00  0.00    -0.060 C 
BRANCH  31  32
ATOM     32  C   UNL     1      37.053 -24.272 -14.564  0.00  0.00    +0.042 C 
ATOM     33  C   UNL     1      37.462 -23.546 -13.446  0.00  0.00    +0.008 C 
ATOM     34  C   UNL     1      37.062 -25.667 -14.531  0.00  0.00    +0.008 C 
ATOM     35  C   UNL     1      37.881 -24.213 -12.295  0.00  0.00    +0.001 C 
ATOM     36  C   UNL     1      37.481 -26.334 -13.380  0.00  0.00    +0.001 C 
ATOM     37  C   UNL     1      37.890 -25.606 -12.262  0.00  0.00    +0.000 C 
ENDBRANCH  31  32
ENDBRANCH  29  30
ENDBRANCH  23  24
ENDBRANCH   1  23
TORSDOF 9
ENDMDL
