MODEL 1
REMARK VINA RESULT:     -11.6      0.000      0.000
REMARK  Name = 135565465
REMARK  7 active torsions:
REMARK  status: ('A' for Active; 'I' for Inactive)
REMARK    1  A    between atoms: N_2  and  C_9
REMARK    2  A    between atoms: N_2  and  O_21
REMARK    3  A    between atoms: C_3  and  C_23
REMARK    4  A    between atoms: C_10  and  C_14
REMARK    5  A    between atoms: C_23  and  C_24
REMARK    6  A    between atoms: C_24  and  C_25
REMARK    7  A    between atoms: C_25  and  N_27
REMARK                            x       y       z     vdW  Elec       q    Type
REMARK                         _______ _______ _______ _____ _____    ______ ____
ROOT
ATOM      1  O   UNL     1      36.276 -22.572 -17.643  0.00  0.00    -0.453 OA
ATOM      2  C   UNL     1      35.092 -20.428 -20.998  0.00  0.00    -0.040 C 
ATOM      3  C   UNL     1      34.115 -21.080 -20.240  0.00  0.00    +0.053 C 
ATOM      4  C   UNL     1      34.481 -21.810 -19.104  0.00  0.00    +0.036 C 
ATOM      5  C   UNL     1      36.433 -20.501 -20.628  0.00  0.00    -0.005 C 
ATOM      6  C   UNL     1      35.829 -21.879 -18.739  0.00  0.00    +0.143 C 
ATOM      7  C   UNL     1      36.803 -21.227 -19.498  0.00  0.00    +0.037 C 
ATOM      8  C   UNL     1      33.489 -22.517 -18.264  0.00  0.00    +0.110 C 
ATOM      9  C   UNL     1      35.352 -23.245 -16.863  0.00  0.00    +0.160 C 
ATOM     10  C   UNL     1      34.031 -23.253 -17.098  0.00  0.00    +0.060 C 
ENDROOT
BRANCH   9  13
ATOM     11  S   UNL     1      37.471 -23.392 -12.040  0.00  0.00    -0.091 S 
ATOM     12  N   UNL     1      36.050 -25.291 -15.839  0.00  0.00    -0.266 NA
ATOM     13  C   UNL     1      35.942 -23.954 -15.710  0.00  0.00    +0.093 C 
ATOM     14  C   UNL     1      36.337 -23.233 -14.598  0.00  0.00    +0.081 C 
ATOM     15  C   UNL     1      36.886 -23.981 -13.550  0.00  0.00    +0.011 C 
ATOM     16  C   UNL     1      37.017 -25.370 -13.641  0.00  0.00    +0.005 C 
ATOM     17  C   UNL     1      36.582 -26.000 -14.818  0.00  0.00    +0.152 C 
ATOM     18  C   UNL     1      37.603 -25.915 -12.451  0.00  0.00    +0.005 C 
ATOM     19  C   UNL     1      37.895 -24.956 -11.510  0.00  0.00    +0.035 C 
ENDBRANCH   9  13
BRANCH   8  20
ATOM     20  N   UNL     1      32.212 -22.530 -18.478  0.00  0.00    -0.135 NA
BRANCH  20  21
ATOM     21  O   UNL     1      31.564 -22.660 -17.249  0.00  0.00    -0.265 OA
ATOM     22  H   UNL     1      32.043 -22.543 -16.453  0.00  0.00    +0.247 HD
ENDBRANCH  20  21
ENDBRANCH   8  20
BRANCH   2  23
ATOM     23  C   UNL     1      34.696 -19.651 -22.209  0.00  0.00    +0.020 C 
BRANCH  23  24
ATOM     24  C   UNL     1      35.364 -18.268 -22.256  0.00  0.00    -0.018 C 
BRANCH  24  25
ATOM     25  C   UNL     1      36.134 -18.059 -23.559  0.00  0.00    -0.077 C 
BRANCH  25  27
ATOM     26  O   UNL     1      33.729 -14.893 -24.904  0.00  0.00    -0.358 OA
ATOM     27  N   UNL     1      35.702 -16.825 -24.211  0.00  0.00    +0.390 N 
ATOM     28  C   UNL     1      34.678 -17.101 -25.228  0.00  0.00    -0.045 C 
ATOM     29  C   UNL     1      35.184 -15.867 -23.225  0.00  0.00    -0.045 C 
ATOM     30  C   UNL     1      34.728 -14.592 -23.929  0.00  0.00    +0.119 C 
ATOM     31  C   UNL     1      34.235 -15.798 -25.886  0.00  0.00    +0.119 C 
ATOM     32  H   UNL     1      36.514 -16.413 -24.670  0.00  0.00    -0.079 HD
ENDBRANCH  25  27
ENDBRANCH  24  25
ENDBRANCH  23  24
ENDBRANCH   2  23
TORSDOF 7
ENDMDL
MODEL 2
REMARK VINA RESULT:     -11.3      4.645      8.573
REMARK  Name = 135565465
REMARK  7 active torsions:
REMARK  status: ('A' for Active; 'I' for Inactive)
REMARK    1  A    between atoms: N_2  and  C_9
REMARK    2  A    between atoms: N_2  and  O_21
REMARK    3  A    between atoms: C_3  and  C_23
REMARK    4  A    between atoms: C_10  and  C_14
REMARK    5  A    between atoms: C_23  and  C_24
REMARK    6  A    between atoms: C_24  and  C_25
REMARK    7  A    between atoms: C_25  and  N_27
REMARK                            x       y       z     vdW  Elec       q    Type
REMARK                         _______ _______ _______ _____ _____    ______ ____
ROOT
ATOM      1  O   UNL     1      35.036 -16.277 -21.993  0.00  0.00    -0.453 OA
ATOM      2  C   UNL     1      34.187 -12.768 -24.047  0.00  0.00    -0.040 C 
ATOM      3  C   UNL     1      34.464 -13.924 -24.782  0.00  0.00    +0.053 C 
ATOM      4  C   UNL     1      34.753 -15.123 -24.120  0.00  0.00    +0.036 C 
ATOM      5  C   UNL     1      34.197 -12.801 -22.654  0.00  0.00    -0.005 C 
ATOM      6  C   UNL     1      34.762 -15.148 -22.722  0.00  0.00    +0.143 C 
ATOM      7  C   UNL     1      34.484 -13.991 -21.990  0.00  0.00    +0.037 C 
ATOM      8  C   UNL     1      35.051 -16.376 -24.847  0.00  0.00    +0.110 C 
ATOM      9  C   UNL     1      35.328 -17.448 -22.670  0.00  0.00    +0.160 C 
ATOM     10  C   UNL     1      35.345 -17.560 -24.007  0.00  0.00    +0.060 C 
ENDROOT
BRANCH   9  13
ATOM     11  S   UNL     1      33.858 -21.681 -19.896  0.00  0.00    -0.091 S 
ATOM     12  N   UNL     1      36.891 -18.764 -21.427  0.00  0.00    -0.266 NA
ATOM     13  C   UNL     1      35.604 -18.600 -21.788  0.00  0.00    +0.093 C 
ATOM     14  C   UNL     1      34.562 -19.419 -21.394  0.00  0.00    +0.081 C 
ATOM     15  C   UNL     1      34.910 -20.487 -20.558  0.00  0.00    +0.011 C 
ATOM     16  C   UNL     1      36.234 -20.695 -20.159  0.00  0.00    +0.005 C 
ATOM     17  C   UNL     1      37.212 -19.800 -20.621  0.00  0.00    +0.152 C 
ATOM     18  C   UNL     1      36.344 -21.845 -19.309  0.00  0.00    +0.005 C 
ATOM     19  C   UNL     1      35.138 -22.467 -19.088  0.00  0.00    +0.035 C 
ENDBRANCH   9  13
BRANCH   8  20
ATOM     20  N   UNL     1      35.068 -16.499 -26.136  0.00  0.00    -0.135 NA
BRANCH  20  21
ATOM     21  O   UNL     1      33.749 -16.531 -26.589  0.00  0.00    -0.265 OA
ATOM     22  H   UNL     1      33.046 -16.619 -25.978  0.00  0.00    +0.247 HD
ENDBRANCH  20  21
ENDBRANCH   8  20
BRANCH   2  23
ATOM     23  C   UNL     1      33.879 -11.493 -24.758  0.00  0.00    +0.020 C 
BRANCH  23  24
ATOM     24  C   UNL     1      33.968 -10.273 -23.828  0.00  0.00    -0.018 C 
BRANCH  24  25
ATOM     25  C   UNL     1      32.693  -9.431 -23.881  0.00  0.00    -0.077 C 
BRANCH  25  27
ATOM     26  O   UNL     1      32.972  -8.477 -19.803  0.00  0.00    -0.358 OA
ATOM     27  N   UNL     1      32.386  -8.891 -22.558  0.00  0.00    +0.390 N 
ATOM     28  C   UNL     1      32.249  -9.972 -21.571  0.00  0.00    -0.045 C 
ATOM     29  C   UNL     1      33.425  -7.946 -22.127  0.00  0.00    -0.045 C 
ATOM     30  C   UNL     1      33.091  -7.406 -20.739  0.00  0.00    +0.119 C 
ATOM     31  C   UNL     1      31.942  -9.384 -20.198  0.00  0.00    +0.119 C 
ATOM     32  H   UNL     1      31.499  -8.394 -22.621  0.00  0.00    -0.079 HD
ENDBRANCH  25  27
ENDBRANCH  24  25
ENDBRANCH  23  24
ENDBRANCH   2  23
TORSDOF 7
ENDMDL
MODEL 3
REMARK VINA RESULT:     -11.1      5.131     12.748
REMARK  Name = 135565465
REMARK  7 active torsions:
REMARK  status: ('A' for Active; 'I' for Inactive)
REMARK    1  A    between atoms: N_2  and  C_9
REMARK    2  A    between atoms: N_2  and  O_21
REMARK    3  A    between atoms: C_3  and  C_23
REMARK    4  A    between atoms: C_10  and  C_14
REMARK    5  A    between atoms: C_23  and  C_24
REMARK    6  A    between atoms: C_24  and  C_25
REMARK    7  A    between atoms: C_25  and  N_27
REMARK                            x       y       z     vdW  Elec       q    Type
REMARK                         _______ _______ _______ _____ _____    ______ ____
ROOT
ATOM      1  O   UNL     1      34.684 -13.206 -23.392  0.00  0.00    -0.453 OA
ATOM      2  C   UNL     1      35.046 -17.331 -23.717  0.00  0.00    -0.040 C 
ATOM      3  C   UNL     1      34.608 -16.607 -24.831  0.00  0.00    +0.053 C 
ATOM      4  C   UNL     1      34.476 -15.216 -24.754  0.00  0.00    +0.036 C 
ATOM      5  C   UNL     1      35.353 -16.675 -22.528  0.00  0.00    -0.005 C 
ATOM      6  C   UNL     1      34.785 -14.565 -23.556  0.00  0.00    +0.143 C 
ATOM      7  C   UNL     1      35.223 -15.291 -22.446  0.00  0.00    +0.037 C 
ATOM      8  C   UNL     1      34.019 -14.400 -25.900  0.00  0.00    +0.110 C 
ATOM      9  C   UNL     1      34.245 -12.442 -24.458  0.00  0.00    +0.160 C 
ATOM     10  C   UNL     1      33.923 -12.941 -25.661  0.00  0.00    +0.060 C 
ENDROOT
BRANCH   9  13
ATOM     11  S   UNL     1      31.852  -8.156 -22.539  0.00  0.00    -0.091 S 
ATOM     12  N   UNL     1      35.239 -10.269 -24.569  0.00  0.00    -0.266 NA
ATOM     13  C   UNL     1      34.176 -10.994 -24.172  0.00  0.00    +0.093 C 
ATOM     14  C   UNL     1      33.061 -10.480 -23.536  0.00  0.00    +0.081 C 
ATOM     15  C   UNL     1      33.075  -9.099 -23.303  0.00  0.00    +0.011 C 
ATOM     16  C   UNL     1      34.159  -8.308 -23.697  0.00  0.00    +0.005 C 
ATOM     17  C   UNL     1      35.239  -8.938 -24.336  0.00  0.00    +0.152 C 
ATOM     18  C   UNL     1      33.947  -6.932 -23.355  0.00  0.00    +0.005 C 
ATOM     19  C   UNL     1      32.744  -6.714 -22.727  0.00  0.00    +0.035 C 
ENDBRANCH   9  13
BRANCH   8  20
ATOM     20  N   UNL     1      33.709 -14.869 -27.066  0.00  0.00    -0.135 NA
BRANCH  20  21
ATOM     21  O   UNL     1      34.099 -13.938 -28.029  0.00  0.00    -0.265 OA
ATOM     22  H   UNL     1      35.002 -13.705 -28.117  0.00  0.00    +0.247 HD
ENDBRANCH  20  21
ENDBRANCH   8  20
BRANCH   2  23
ATOM     23  C   UNL     1      35.184 -18.814 -23.805  0.00  0.00    +0.020 C 
BRANCH  23  24
ATOM     24  C   UNL     1      35.478 -19.453 -22.439  0.00  0.00    -0.018 C 
BRANCH  24  25
ATOM     25  C   UNL     1      34.196 -19.908 -21.743  0.00  0.00    -0.077 C 
BRANCH  25  27
ATOM     26  O   UNL     1      35.259 -22.809 -18.902  0.00  0.00    -0.358 OA
ATOM     27  N   UNL     1      34.512 -20.555 -20.471  0.00  0.00    +0.390 N 
ATOM     28  C   UNL     1      33.565 -21.643 -20.189  0.00  0.00    -0.045 C 
ATOM     29  C   UNL     1      35.886 -21.072 -20.476  0.00  0.00    -0.045 C 
ATOM     30  C   UNL     1      36.189 -21.753 -19.144  0.00  0.00    +0.119 C 
ATOM     31  C   UNL     1      33.922 -22.309 -18.864  0.00  0.00    +0.119 C 
ATOM     32  H   UNL     1      34.430 -19.853 -19.735  0.00  0.00    -0.079 HD
ENDBRANCH  25  27
ENDBRANCH  24  25
ENDBRANCH  23  24
ENDBRANCH   2  23
TORSDOF 7
ENDMDL
MODEL 4
REMARK VINA RESULT:     -10.9      2.964      4.068
REMARK  Name = 135565465
REMARK  7 active torsions:
REMARK  status: ('A' for Active; 'I' for Inactive)
REMARK    1  A    between atoms: N_2  and  C_9
REMARK    2  A    between atoms: N_2  and  O_21
REMARK    3  A    between atoms: C_3  and  C_23
REMARK    4  A    between atoms: C_10  and  C_14
REMARK    5  A    between atoms: C_23  and  C_24
REMARK    6  A    between atoms: C_24  and  C_25
REMARK    7  A    between atoms: C_25  and  N_27
REMARK                            x       y       z     vdW  Elec       q    Type
REMARK                         _______ _______ _______ _____ _____    ______ ____
ROOT
ATOM      1  O   UNL     1      33.366 -22.075 -18.698  0.00  0.00    -0.453 OA
ATOM      2  C   UNL     1      35.562 -19.943 -21.507  0.00  0.00    -0.040 C 
ATOM      3  C   UNL     1      36.240 -20.543 -20.441  0.00  0.00    +0.053 C 
ATOM      4  C   UNL     1      35.529 -21.269 -19.479  0.00  0.00    +0.036 C 
ATOM      5  C   UNL     1      34.179 -20.064 -21.617  0.00  0.00    -0.005 C 
ATOM      6  C   UNL     1      34.141 -21.384 -19.595  0.00  0.00    +0.143 C 
ATOM      7  C   UNL     1      33.466 -20.784 -20.661  0.00  0.00    +0.037 C 
ATOM      8  C   UNL     1      36.194 -21.926 -18.332  0.00  0.00    +0.110 C 
ATOM      9  C   UNL     1      33.984 -22.679 -17.618  0.00  0.00    +0.160 C 
ATOM     10  C   UNL     1      35.306 -22.651 -17.394  0.00  0.00    +0.060 C 
ENDROOT
BRANCH   9  13
ATOM     11  S   UNL     1      29.191 -24.340 -16.188  0.00  0.00    -0.091 S 
ATOM     12  N   UNL     1      33.622 -23.986 -15.648  0.00  0.00    -0.266 NA
ATOM     13  C   UNL     1      33.057 -23.396 -16.718  0.00  0.00    +0.093 C 
ATOM     14  C   UNL     1      31.706 -23.420 -17.014  0.00  0.00    +0.081 C 
ATOM     15  C   UNL     1      30.898 -24.121 -16.110  0.00  0.00    +0.011 C 
ATOM     16  C   UNL     1      31.442 -24.749 -14.986  0.00  0.00    +0.005 C 
ATOM     17  C   UNL     1      32.829 -24.659 -14.785  0.00  0.00    +0.152 C 
ATOM     18  C   UNL     1      30.425 -25.399 -14.212  0.00  0.00    +0.005 C 
ATOM     19  C   UNL     1      29.168 -25.255 -14.750  0.00  0.00    +0.035 C 
ENDBRANCH   9  13
BRANCH   8  20
ATOM     20  N   UNL     1      37.469 -21.908 -18.106  0.00  0.00    -0.135 NA
BRANCH  20  21
ATOM     21  O   UNL     1      37.740 -20.868 -17.215  0.00  0.00    -0.265 OA
ATOM     22  H   UNL     1      38.347 -20.999 -16.514  0.00  0.00    +0.247 HD
ENDBRANCH  20  21
ENDBRANCH   8  20
BRANCH   2  23
ATOM     23  C   UNL     1      36.325 -19.171 -22.530  0.00  0.00    +0.020 C 
BRANCH  23  24
ATOM     24  C   UNL     1      35.655 -17.830 -22.866  0.00  0.00    -0.018 C 
BRANCH  24  25
ATOM     25  C   UNL     1      35.308 -17.729 -24.351  0.00  0.00    -0.077 C 
BRANCH  25  27
ATOM     26  O   UNL     1      33.462 -13.996 -24.871  0.00  0.00    -0.358 OA
ATOM     27  N   UNL     1      35.077 -16.336 -24.724  0.00  0.00    +0.390 N 
ATOM     28  C   UNL     1      33.963 -16.228 -25.678  0.00  0.00    -0.045 C 
ATOM     29  C   UNL     1      34.803 -15.515 -23.537  0.00  0.00    -0.045 C 
ATOM     30  C   UNL     1      34.553 -14.069 -23.952  0.00  0.00    +0.119 C 
ATOM     31  C   UNL     1      33.734 -14.765 -26.043  0.00  0.00    +0.119 C 
ATOM     32  H   UNL     1      35.924 -15.988 -25.173  0.00  0.00    -0.079 HD
ENDBRANCH  25  27
ENDBRANCH  24  25
ENDBRANCH  23  24
ENDBRANCH   2  23
TORSDOF 7
ENDMDL
MODEL 5
REMARK VINA RESULT:     -10.5      3.512      9.696
REMARK  Name = 135565465
REMARK  7 active torsions:
REMARK  status: ('A' for Active; 'I' for Inactive)
REMARK    1  A    between atoms: N_2  and  C_9
REMARK    2  A    between atoms: N_2  and  O_21
REMARK    3  A    between atoms: C_3  and  C_23
REMARK    4  A    between atoms: C_10  and  C_14
REMARK    5  A    between atoms: C_23  and  C_24
REMARK    6  A    between atoms: C_24  and  C_25
REMARK    7  A    between atoms: C_25  and  N_27
REMARK                            x       y       z     vdW  Elec       q    Type
REMARK                         _______ _______ _______ _____ _____    ______ ____
ROOT
ATOM      1  O   UNL     1      36.467 -20.404 -19.461  0.00  0.00    -0.453 OA
ATOM      2  C   UNL     1      36.848 -23.031 -16.265  0.00  0.00    -0.040 C 
ATOM      3  C   UNL     1      35.787 -23.211 -17.159  0.00  0.00    +0.053 C 
ATOM      4  C   UNL     1      35.632 -22.344 -18.246  0.00  0.00    +0.036 C 
ATOM      5  C   UNL     1      37.753 -21.989 -16.451  0.00  0.00    -0.005 C 
ATOM      6  C   UNL     1      36.544 -21.300 -18.425  0.00  0.00    +0.143 C 
ATOM      7  C   UNL     1      37.603 -21.123 -17.531  0.00  0.00    +0.037 C 
ATOM      8  C   UNL     1      34.530 -22.489 -19.223  0.00  0.00    +0.110 C 
ATOM      9  C   UNL     1      35.430 -20.529 -20.368  0.00  0.00    +0.160 C 
ATOM     10  C   UNL     1      34.494 -21.488 -20.315  0.00  0.00    +0.060 C 
ENDROOT
BRANCH   9  13
ATOM     11  S   UNL     1      34.217 -18.802 -25.197  0.00  0.00    -0.091 S 
ATOM     12  N   UNL     1      36.084 -18.365 -21.150  0.00  0.00    -0.266 NA
ATOM     13  C   UNL     1      35.445 -19.514 -21.442  0.00  0.00    +0.093 C 
ATOM     14  C   UNL     1      34.824 -19.791 -22.646  0.00  0.00    +0.081 C 
ATOM     15  C   UNL     1      34.884 -18.776 -23.609  0.00  0.00    +0.011 C 
ATOM     16  C   UNL     1      35.536 -17.567 -23.349  0.00  0.00    +0.005 C 
ATOM     17  C   UNL     1      36.133 -17.395 -22.090  0.00  0.00    +0.152 C 
ATOM     18  C   UNL     1      35.467 -16.687 -24.480  0.00  0.00    +0.005 C 
ATOM     19  C   UNL     1      34.784 -17.231 -25.541  0.00  0.00    +0.035 C 
ENDBRANCH   9  13
BRANCH   8  20
ATOM     20  N   UNL     1      33.622 -23.411 -19.184  0.00  0.00    -0.135 NA
BRANCH  20  21
ATOM     21  O   UNL     1      34.068 -24.494 -19.942  0.00  0.00    -0.265 OA
ATOM     22  H   UNL     1      33.449 -25.056 -20.364  0.00  0.00    +0.247 HD
ENDBRANCH  20  21
ENDBRANCH   8  20
BRANCH   2  23
ATOM     23  C   UNL     1      37.009 -23.959 -15.109  0.00  0.00    +0.020 C 
BRANCH  23  24
ATOM     24  C   UNL     1      35.799 -24.891 -14.938  0.00  0.00    -0.018 C 
BRANCH  24  25
ATOM     25  C   UNL     1      34.705 -24.244 -14.089  0.00  0.00    -0.077 C 
BRANCH  25  27
ATOM     26  O   UNL     1      30.600 -23.943 -14.909  0.00  0.00    -0.358 OA
ATOM     27  N   UNL     1      33.402 -24.412 -14.728  0.00  0.00    +0.390 N 
ATOM     28  C   UNL     1      32.452 -25.064 -13.815  0.00  0.00    -0.045 C 
ATOM     29  C   UNL     1      32.867 -23.118 -15.170  0.00  0.00    -0.045 C 
ATOM     30  C   UNL     1      31.501 -23.316 -15.822  0.00  0.00    +0.119 C 
ATOM     31  C   UNL     1      31.097 -25.217 -14.499  0.00  0.00    +0.119 C 
ATOM     32  H   UNL     1      33.529 -25.009 -15.545  0.00  0.00    -0.079 HD
ENDBRANCH  25  27
ENDBRANCH  24  25
ENDBRANCH  23  24
ENDBRANCH   2  23
TORSDOF 7
ENDMDL
MODEL 6
REMARK VINA RESULT:     -10.5      3.391     10.512
REMARK  Name = 135565465
REMARK  7 active torsions:
REMARK  status: ('A' for Active; 'I' for Inactive)
REMARK    1  A    between atoms: N_2  and  C_9
REMARK    2  A    between atoms: N_2  and  O_21
REMARK    3  A    between atoms: C_3  and  C_23
REMARK    4  A    between atoms: C_10  and  C_14
REMARK    5  A    between atoms: C_23  and  C_24
REMARK    6  A    between atoms: C_24  and  C_25
REMARK    7  A    between atoms: C_25  and  N_27
REMARK                            x       y       z     vdW  Elec       q    Type
REMARK                         _______ _______ _______ _____ _____    ______ ____
ROOT
ATOM      1  O   UNL     1      36.355 -20.315 -19.702  0.00  0.00    -0.453 OA
ATOM      2  C   UNL     1      36.687 -23.000 -16.550  0.00  0.00    -0.040 C 
ATOM      3  C   UNL     1      35.539 -23.041 -17.347  0.00  0.00    +0.053 C 
ATOM      4  C   UNL     1      35.397 -22.151 -18.417  0.00  0.00    +0.036 C 
ATOM      5  C   UNL     1      37.694 -22.074 -16.815  0.00  0.00    -0.005 C 
ATOM      6  C   UNL     1      36.411 -21.224 -18.676  0.00  0.00    +0.143 C 
ATOM      7  C   UNL     1      37.557 -21.185 -17.878  0.00  0.00    +0.037 C 
ATOM      8  C   UNL     1      34.206 -22.151 -19.294  0.00  0.00    +0.110 C 
ATOM      9  C   UNL     1      35.236 -20.304 -20.515  0.00  0.00    +0.160 C 
ATOM     10  C   UNL     1      34.197 -21.143 -20.379  0.00  0.00    +0.060 C 
ENDROOT
BRANCH   9  13
ATOM     11  S   UNL     1      34.235 -18.604 -25.402  0.00  0.00    -0.091 S 
ATOM     12  N   UNL     1      35.873 -18.123 -21.262  0.00  0.00    -0.266 NA
ATOM     13  C   UNL     1      35.281 -19.288 -21.587  0.00  0.00    +0.093 C 
ATOM     14  C   UNL     1      34.731 -19.579 -22.822  0.00  0.00    +0.081 C 
ATOM     15  C   UNL     1      34.816 -18.562 -23.781  0.00  0.00    +0.011 C 
ATOM     16  C   UNL     1      35.422 -17.337 -23.487  0.00  0.00    +0.005 C 
ATOM     17  C   UNL     1      35.947 -17.151 -22.198  0.00  0.00    +0.152 C 
ATOM     18  C   UNL     1      35.391 -16.458 -24.620  0.00  0.00    +0.005 C 
ATOM     19  C   UNL     1      34.779 -17.019 -25.716  0.00  0.00    +0.035 C 
ENDBRANCH   9  13
BRANCH   8  20
ATOM     20  N   UNL     1      33.199 -22.956 -19.175  0.00  0.00    -0.135 NA
BRANCH  20  21
ATOM     21  O   UNL     1      32.275 -22.376 -18.305  0.00  0.00    -0.265 OA
ATOM     22  H   UNL     1      31.886 -22.888 -17.625  0.00  0.00    +0.247 HD
ENDBRANCH  20  21
ENDBRANCH   8  20
BRANCH   2  23
ATOM     23  C   UNL     1      36.834 -23.952 -15.410  0.00  0.00    +0.020 C 
BRANCH  23  24
ATOM     24  C   UNL     1      38.291 -24.392 -15.204  0.00  0.00    -0.018 C 
BRANCH  24  25
ATOM     25  C   UNL     1      38.493 -25.045 -13.837  0.00  0.00    -0.077 C 
BRANCH  25  27
ATOM     26  O   UNL     1      36.526 -24.157 -10.237  0.00  0.00    -0.358 OA
ATOM     27  N   UNL     1      37.515 -24.532 -12.880  0.00  0.00    +0.390 N 
ATOM     28  C   UNL     1      36.893 -25.631 -12.128  0.00  0.00    -0.045 C 
ATOM     29  C   UNL     1      38.142 -23.580 -11.952  0.00  0.00    -0.045 C 
ATOM     30  C   UNL     1      37.106 -23.068 -10.956  0.00  0.00    +0.119 C 
ATOM     31  C   UNL     1      35.886 -25.070 -11.129  0.00  0.00    +0.119 C 
ATOM     32  H   UNL     1      36.790 -24.045 -13.405  0.00  0.00    -0.079 HD
ENDBRANCH  25  27
ENDBRANCH  24  25
ENDBRANCH  23  24
ENDBRANCH   2  23
TORSDOF 7
ENDMDL
MODEL 7
REMARK VINA RESULT:     -10.4      5.066     12.398
REMARK  Name = 135565465
REMARK  7 active torsions:
REMARK  status: ('A' for Active; 'I' for Inactive)
REMARK    1  A    between atoms: N_2  and  C_9
REMARK    2  A    between atoms: N_2  and  O_21
REMARK    3  A    between atoms: C_3  and  C_23
REMARK    4  A    between atoms: C_10  and  C_14
REMARK    5  A    between atoms: C_23  and  C_24
REMARK    6  A    between atoms: C_24  and  C_25
REMARK    7  A    between atoms: C_25  and  N_27
REMARK                            x       y       z     vdW  Elec       q    Type
REMARK                         _______ _______ _______ _____ _____    ______ ____
ROOT
ATOM      1  O   UNL     1      34.144 -13.578 -22.470  0.00  0.00    -0.453 OA
ATOM      2  C   UNL     1      35.507 -17.482 -22.862  0.00  0.00    -0.040 C 
ATOM      3  C   UNL     1      35.092 -16.799 -24.009  0.00  0.00    +0.053 C 
ATOM      4  C   UNL     1      34.628 -15.483 -23.911  0.00  0.00    +0.036 C 
ATOM      5  C   UNL     1      35.462 -16.858 -21.618  0.00  0.00    -0.005 C 
ATOM      6  C   UNL     1      34.585 -14.864 -22.658  0.00  0.00    +0.143 C 
ATOM      7  C   UNL     1      35.001 -15.549 -21.514  0.00  0.00    +0.037 C 
ATOM      8  C   UNL     1      34.178 -14.712 -25.091  0.00  0.00    +0.110 C 
ATOM      9  C   UNL     1      33.711 -12.859 -23.570  0.00  0.00    +0.160 C 
ATOM     10  C   UNL     1      33.708 -13.333 -24.825  0.00  0.00    +0.060 C 
ENDROOT
BRANCH   9  13
ATOM     11  S   UNL     1      34.059  -7.614 -23.938  0.00  0.00    -0.091 S 
ATOM     12  N   UNL     1      32.191 -11.398 -22.439  0.00  0.00    -0.266 NA
ATOM     13  C   UNL     1      33.261 -11.489 -23.254  0.00  0.00    +0.093 C 
ATOM     14  C   UNL     1      33.939 -10.410 -23.792  0.00  0.00    +0.081 C 
ATOM     15  C   UNL     1      33.448  -9.147 -23.442  0.00  0.00    +0.011 C 
ATOM     16  C   UNL     1      32.340  -9.006 -22.600  0.00  0.00    +0.005 C 
ATOM     17  C   UNL     1      31.729 -10.171 -22.111  0.00  0.00    +0.152 C 
ATOM     18  C   UNL     1      32.025  -7.623 -22.385  0.00  0.00    +0.005 C 
ATOM     19  C   UNL     1      32.874  -6.770 -23.049  0.00  0.00    +0.035 C 
ENDBRANCH   9  13
BRANCH   8  20
ATOM     20  N   UNL     1      34.173 -15.155 -26.307  0.00  0.00    -0.135 NA
BRANCH  20  21
ATOM     21  O   UNL     1      32.982 -14.754 -26.913  0.00  0.00    -0.265 OA
ATOM     22  H   UNL     1      32.868 -13.863 -27.178  0.00  0.00    +0.247 HD
ENDBRANCH  20  21
ENDBRANCH   8  20
BRANCH   2  23
ATOM     23  C   UNL     1      36.001 -18.886 -22.973  0.00  0.00    +0.020 C 
BRANCH  23  24
ATOM     24  C   UNL     1      35.369 -19.809 -21.921  0.00  0.00    -0.018 C 
BRANCH  24  25
ATOM     25  C   UNL     1      36.377 -20.210 -20.844  0.00  0.00    -0.077 C 
BRANCH  25  27
ATOM     26  O   UNL     1      34.502 -22.526 -17.888  0.00  0.00    -0.358 OA
ATOM     27  N   UNL     1      35.882 -21.357 -20.087  0.00  0.00    +0.390 N 
ATOM     28  C   UNL     1      36.467 -21.386 -18.739  0.00  0.00    -0.045 C 
ATOM     29  C   UNL     1      34.416 -21.331 -19.998  0.00  0.00    -0.045 C 
ATOM     30  C   UNL     1      33.923 -22.530 -19.193  0.00  0.00    +0.119 C 
ATOM     31  C   UNL     1      35.927 -22.584 -17.965  0.00  0.00    +0.119 C 
ATOM     32  H   UNL     1      36.163 -22.203 -20.582  0.00  0.00    -0.079 HD
ENDBRANCH  25  27
ENDBRANCH  24  25
ENDBRANCH  23  24
ENDBRANCH   2  23
TORSDOF 7
ENDMDL
MODEL 8
REMARK VINA RESULT:     -10.4      1.443      1.861
REMARK  Name = 135565465
REMARK  7 active torsions:
REMARK  status: ('A' for Active; 'I' for Inactive)
REMARK    1  A    between atoms: N_2  and  C_9
REMARK    2  A    between atoms: N_2  and  O_21
REMARK    3  A    between atoms: C_3  and  C_23
REMARK    4  A    between atoms: C_10  and  C_14
REMARK    5  A    between atoms: C_23  and  C_24
REMARK    6  A    between atoms: C_24  and  C_25
REMARK    7  A    between atoms: C_25  and  N_27
REMARK                            x       y       z     vdW  Elec       q    Type
REMARK                         _______ _______ _______ _____ _____    ______ ____
ROOT
ATOM      1  O   UNL     1      36.855 -21.611 -18.275  0.00  0.00    -0.453 OA
ATOM      2  C   UNL     1      35.639 -19.740 -21.778  0.00  0.00    -0.040 C 
ATOM      3  C   UNL     1      34.718 -20.535 -21.089  0.00  0.00    +0.053 C 
ATOM      4  C   UNL     1      35.096 -21.178 -19.905  0.00  0.00    +0.036 C 
ATOM      5  C   UNL     1      36.935 -19.584 -21.292  0.00  0.00    -0.005 C 
ATOM      6  C   UNL     1      36.399 -21.017 -19.425  0.00  0.00    +0.143 C 
ATOM      7  C   UNL     1      37.317 -20.222 -20.115  0.00  0.00    +0.037 C 
ATOM      8  C   UNL     1      34.164 -22.029 -19.135  0.00  0.00    +0.110 C 
ATOM      9  C   UNL     1      35.988 -22.418 -17.559  0.00  0.00    +0.160 C 
ATOM     10  C   UNL     1      34.713 -22.649 -17.906  0.00  0.00    +0.060 C 
ENDROOT
BRANCH   9  13
ATOM     11  S   UNL     1      35.706 -24.217 -12.613  0.00  0.00    -0.091 S 
ATOM     12  N   UNL     1      37.901 -23.265 -16.399  0.00  0.00    -0.266 NA
ATOM     13  C   UNL     1      36.581 -23.004 -16.339  0.00  0.00    +0.093 C 
ATOM     14  C   UNL     1      35.776 -23.244 -15.241  0.00  0.00    +0.081 C 
ATOM     15  C   UNL     1      36.417 -23.800 -14.127  0.00  0.00    +0.011 C 
ATOM     16  C   UNL     1      37.785 -24.087 -14.145  0.00  0.00    +0.005 C 
ATOM     17  C   UNL     1      38.505 -23.802 -15.315  0.00  0.00    +0.152 C 
ATOM     18  C   UNL     1      38.213 -24.648 -12.896  0.00  0.00    +0.005 C 
ATOM     19  C   UNL     1      37.191 -24.771 -11.985  0.00  0.00    +0.035 C 
ENDBRANCH   9  13
BRANCH   8  20
ATOM     20  N   UNL     1      32.931 -22.258 -19.457  0.00  0.00    -0.135 NA
BRANCH  20  21
ATOM     21  O   UNL     1      32.209 -22.493 -18.286  0.00  0.00    -0.265 OA
ATOM     22  H   UNL     1      31.482 -23.083 -18.295  0.00  0.00    +0.247 HD
ENDBRANCH  20  21
ENDBRANCH   8  20
BRANCH   2  23
ATOM     23  C   UNL     1      35.231 -19.056 -23.040  0.00  0.00    +0.020 C 
BRANCH  23  24
ATOM     24  C   UNL     1      35.896 -17.680 -23.197  0.00  0.00    -0.018 C 
BRANCH  24  25
ATOM     25  C   UNL     1      35.454 -16.712 -22.101  0.00  0.00    -0.077 C 
BRANCH  25  27
ATOM     26  O   UNL     1      34.136 -13.023 -23.611  0.00  0.00    -0.358 OA
ATOM     27  N   UNL     1      34.599 -15.667 -22.662  0.00  0.00    +0.390 N 
ATOM     28  C   UNL     1      34.494 -14.527 -21.741  0.00  0.00    -0.045 C 
ATOM     29  C   UNL     1      35.111 -15.217 -23.964  0.00  0.00    -0.045 C 
ATOM     30  C   UNL     1      34.211 -14.119 -24.523  0.00  0.00    +0.119 C 
ATOM     31  C   UNL     1      33.608 -13.446 -22.353  0.00  0.00    +0.119 C 
ATOM     32  H   UNL     1      33.669 -16.063 -22.797  0.00  0.00    -0.079 HD
ENDBRANCH  25  27
ENDBRANCH  24  25
ENDBRANCH  23  24
ENDBRANCH   2  23
TORSDOF 7
ENDMDL
MODEL 9
REMARK VINA RESULT:     -10.2      3.214     10.455
REMARK  Name = 135565465
REMARK  7 active torsions:
REMARK  status: ('A' for Active; 'I' for Inactive)
REMARK    1  A    between atoms: N_2  and  C_9
REMARK    2  A    between atoms: N_2  and  O_21
REMARK    3  A    between atoms: C_3  and  C_23
REMARK    4  A    between atoms: C_10  and  C_14
REMARK    5  A    between atoms: C_23  and  C_24
REMARK    6  A    between atoms: C_24  and  C_25
REMARK    7  A    between atoms: C_25  and  N_27
REMARK                            x       y       z     vdW  Elec       q    Type
REMARK                         _______ _______ _______ _____ _____    ______ ____
ROOT
ATOM      1  O   UNL     1      36.284 -20.129 -20.174  0.00  0.00    -0.453 OA
ATOM      2  C   UNL     1      36.839 -22.450 -16.774  0.00  0.00    -0.040 C 
ATOM      3  C   UNL     1      35.684 -22.645 -17.537  0.00  0.00    +0.053 C 
ATOM      4  C   UNL     1      35.467 -21.880 -18.688  0.00  0.00    +0.036 C 
ATOM      5  C   UNL     1      37.780 -21.495 -17.154  0.00  0.00    -0.005 C 
ATOM      6  C   UNL     1      36.415 -20.923 -19.062  0.00  0.00    +0.143 C 
ATOM      7  C   UNL     1      37.569 -20.731 -18.299  0.00  0.00    +0.037 C 
ATOM      8  C   UNL     1      34.265 -22.044 -19.533  0.00  0.00    +0.110 C 
ATOM      9  C   UNL     1      35.154 -20.272 -20.959  0.00  0.00    +0.160 C 
ATOM     10  C   UNL     1      34.174 -21.156 -20.715  0.00  0.00    +0.060 C 
ENDROOT
BRANCH   9  13
ATOM     11  S   UNL     1      35.196 -15.502 -23.200  0.00  0.00    -0.091 S 
ATOM     12  N   UNL     1      35.019 -19.975 -23.328  0.00  0.00    -0.266 NA
ATOM     13  C   UNL     1      35.116 -19.371 -22.129  0.00  0.00    +0.093 C 
ATOM     14  C   UNL     1      35.179 -18.003 -21.935  0.00  0.00    +0.081 C 
ATOM     15  C   UNL     1      35.137 -17.221 -23.096  0.00  0.00    +0.011 C 
ATOM     16  C   UNL     1      35.037 -17.806 -24.361  0.00  0.00    +0.005 C 
ATOM     17  C   UNL     1      34.980 -19.207 -24.440  0.00  0.00    +0.152 C 
ATOM     18  C   UNL     1      35.011 -16.810 -25.393  0.00  0.00    +0.005 C 
ATOM     19  C   UNL     1      35.089 -15.528 -24.902  0.00  0.00    +0.035 C 
ENDBRANCH   9  13
BRANCH   8  20
ATOM     20  N   UNL     1      33.314 -22.895 -19.311  0.00  0.00    -0.135 NA
BRANCH  20  21
ATOM     21  O   UNL     1      32.391 -22.302 -18.449  0.00  0.00    -0.265 OA
ATOM     22  H   UNL     1      31.802 -21.649 -18.770  0.00  0.00    +0.247 HD
ENDBRANCH  20  21
ENDBRANCH   8  20
BRANCH   2  23
ATOM     23  C   UNL     1      37.065 -23.269 -15.547  0.00  0.00    +0.020 C 
BRANCH  23  24
ATOM     24  C   UNL     1      36.306 -24.604 -15.592  0.00  0.00    -0.018 C 
BRANCH  24  25
ATOM     25  C   UNL     1      35.189 -24.651 -14.550  0.00  0.00    -0.077 C 
BRANCH  25  27
ATOM     26  O   UNL     1      37.639 -24.974 -11.158  0.00  0.00    -0.358 OA
ATOM     27  N   UNL     1      35.718 -25.077 -13.257  0.00  0.00    +0.390 N 
ATOM     28  C   UNL     1      37.056 -25.667 -13.408  0.00  0.00    -0.045 C 
ATOM     29  C   UNL     1      35.771 -23.948 -12.317  0.00  0.00    -0.045 C 
ATOM     30  C   UNL     1      36.338 -24.413 -10.979  0.00  0.00    +0.119 C 
ATOM     31  C   UNL     1      37.592 -26.092 -12.045  0.00  0.00    +0.119 C 
ATOM     32  H   UNL     1      35.090 -25.786 -12.880  0.00  0.00    -0.079 HD
ENDBRANCH  25  27
ENDBRANCH  24  25
ENDBRANCH  23  24
ENDBRANCH   2  23
TORSDOF 7
ENDMDL
