MODEL 1
REMARK VINA RESULT:     -11.8      0.000      0.000
REMARK  Name = 198752
REMARK  6 active torsions:
REMARK  status: ('A' for Active; 'I' for Inactive)
REMARK    1  A    between atoms: C_1  and  C_3
REMARK    2  A    between atoms: C_1  and  C_16
REMARK    3  A    between atoms: N_2  and  C_9
REMARK    4  A    between atoms: C_9  and  C_10
REMARK    5  A    between atoms: C_16  and  C_18
REMARK    6  A    between atoms: C_18  and  C_20
REMARK                            x       y       z     vdW  Elec       q    Type
REMARK                         _______ _______ _______ _____ _____    ______ ____
ROOT
ATOM      1  C   UNL     1      36.469 -21.291 -19.382  0.00  0.00    +0.008 C 
ENDROOT
BRANCH   1   3
ATOM      2  N   UNL     1      35.600 -18.332 -22.406  0.00  0.00    +0.390 N 
ATOM      3  C   UNL     1      36.291 -20.656 -20.758  0.00  0.00    -0.004 C 
ATOM      4  C   UNL     1      37.239 -19.466 -20.942  0.00  0.00    -0.023 C 
ATOM      5  C   UNL     1      34.844 -20.202 -20.973  0.00  0.00    -0.023 C 
ATOM      6  C   UNL     1      36.998 -18.763 -22.279  0.00  0.00    -0.077 C 
ATOM      7  C   UNL     1      34.682 -19.475 -22.309  0.00  0.00    -0.077 C 
ATOM      8  H   UNL     1      35.395 -17.698 -21.634  0.00  0.00    -0.079 HD
BRANCH   2   9
ATOM      9  C   UNL     1      35.396 -17.617 -23.666  0.00  0.00    -0.050 C 
BRANCH   9  10
ATOM     10  C   UNL     1      35.016 -16.178 -23.439  0.00  0.00    -0.043 C 
ATOM     11  C   UNL     1      34.685 -15.379 -24.525  0.00  0.00    -0.006 C 
ATOM     12  C   UNL     1      35.001 -15.670 -22.147  0.00  0.00    -0.006 C 
ATOM     13  C   UNL     1      34.334 -14.046 -24.314  0.00  0.00    -0.000 C 
ATOM     14  C   UNL     1      34.649 -14.337 -21.937  0.00  0.00    -0.000 C 
ATOM     15  C   UNL     1      34.316 -13.524 -23.021  0.00  0.00    -0.000 C 
ENDBRANCH   9  10
ENDBRANCH   2   9
ENDBRANCH   1   3
BRANCH   1  16
ATOM     16  C   UNL     1      35.224 -22.071 -18.959  0.00  0.00    +0.069 C 
BRANCH  16  18
ATOM     17  O   UNL     1      36.476 -22.882 -17.066  0.00  0.00    -0.291 OA
ATOM     18  C   UNL     1      35.344 -22.707 -17.562  0.00  0.00    +0.173 C 
BRANCH  18  20
ATOM     19  N   UNL     1      30.496 -22.844 -17.300  0.00  0.00    -0.333 N 
ATOM     20  C   UNL     1      34.145 -23.097 -16.837  0.00  0.00    +0.036 C 
ATOM     21  C   UNL     1      31.813 -23.856 -15.458  0.00  0.00    -0.009 C 
ATOM     22  C   UNL     1      30.626 -24.355 -14.657  0.00  0.00    +0.028 C 
ATOM     23  C   UNL     1      31.698 -23.195 -16.701  0.00  0.00    +0.041 C 
ATOM     24  C   UNL     1      29.547 -25.016 -15.514  0.00  0.00    +0.006 C 
ATOM     25  C   UNL     1      28.624 -24.030 -16.229  0.00  0.00    +0.022 C 
ATOM     26  C   UNL     1      32.885 -22.842 -17.378  0.00  0.00    +0.017 C 
ATOM     27  C   UNL     1      29.256 -22.690 -16.572  0.00  0.00    +0.087 C 
ATOM     28  C   UNL     1      34.250 -23.713 -15.599  0.00  0.00    +0.003 C 
ATOM     29  C   UNL     1      33.095 -24.087 -14.916  0.00  0.00    -0.003 C 
ATOM     30  H   UNL     1      30.486 -22.690 -18.273  0.00  0.00    +0.147 HD
ENDBRANCH  18  20
ENDBRANCH  16  18
ENDBRANCH   1  16
TORSDOF 6
ENDMDL
MODEL 2
REMARK VINA RESULT:     -11.7      4.886     12.285
REMARK  Name = 198752
REMARK  6 active torsions:
REMARK  status: ('A' for Active; 'I' for Inactive)
REMARK    1  A    between atoms: C_1  and  C_3
REMARK    2  A    between atoms: C_1  and  C_16
REMARK    3  A    between atoms: N_2  and  C_9
REMARK    4  A    between atoms: C_9  and  C_10
REMARK    5  A    between atoms: C_16  and  C_18
REMARK    6  A    between atoms: C_18  and  C_20
REMARK                            x       y       z     vdW  Elec       q    Type
REMARK                         _______ _______ _______ _____ _____    ______ ____
ROOT
ATOM      1  C   UNL     1      34.100 -14.587 -24.405  0.00  0.00    +0.008 C 
ENDROOT
BRANCH   1   3
ATOM      2  N   UNL     1      35.448 -18.144 -22.358  0.00  0.00    +0.390 N 
ATOM      3  C   UNL     1      35.043 -15.618 -23.790  0.00  0.00    -0.004 C 
ATOM      4  C   UNL     1      34.883 -16.983 -24.468  0.00  0.00    -0.023 C 
ATOM      5  C   UNL     1      34.801 -15.757 -22.284  0.00  0.00    -0.023 C 
ATOM      6  C   UNL     1      35.752 -18.045 -23.792  0.00  0.00    -0.077 C 
ATOM      7  C   UNL     1      35.672 -16.860 -21.680  0.00  0.00    -0.077 C 
ATOM      8  H   UNL     1      34.462 -18.383 -22.260  0.00  0.00    -0.079 HD
BRANCH   2   9
ATOM      9  C   UNL     1      36.249 -19.198 -21.735  0.00  0.00    -0.050 C 
BRANCH   9  10
ATOM     10  C   UNL     1      35.395 -20.168 -20.964  0.00  0.00    -0.043 C 
ATOM     11  C   UNL     1      34.013 -20.090 -21.062  0.00  0.00    -0.006 C 
ATOM     12  C   UNL     1      36.001 -21.129 -20.166  0.00  0.00    -0.006 C 
ATOM     13  C   UNL     1      33.221 -20.989 -20.347  0.00  0.00    -0.000 C 
ATOM     14  C   UNL     1      35.210 -22.028 -19.452  0.00  0.00    -0.000 C 
ATOM     15  C   UNL     1      33.819 -21.958 -19.542  0.00  0.00    -0.000 C 
ENDBRANCH   9  10
ENDBRANCH   2   9
ENDBRANCH   1   3
BRANCH   1  16
ATOM     16  C   UNL     1      34.336 -13.194 -23.822  0.00  0.00    +0.069 C 
BRANCH  16  18
ATOM     17  O   UNL     1      34.160 -12.351 -26.074  0.00  0.00    -0.291 OA
ATOM     18  C   UNL     1      34.196 -12.064 -24.860  0.00  0.00    +0.173 C 
BRANCH  18  20
ATOM     19  N   UNL     1      31.527  -8.443 -23.027  0.00  0.00    -0.333 N 
ATOM     20  C   UNL     1      34.107 -10.681 -24.419  0.00  0.00    +0.036 C 
ATOM     21  C   UNL     1      33.914  -8.013 -23.545  0.00  0.00    -0.009 C 
ATOM     22  C   UNL     1      33.937  -6.579 -23.056  0.00  0.00    +0.028 C 
ATOM     23  C   UNL     1      32.778  -8.849 -23.471  0.00  0.00    +0.041 C 
ATOM     24  C   UNL     1      33.214  -6.377 -21.724  0.00  0.00    +0.006 C 
ATOM     25  C   UNL     1      31.693  -6.291 -21.844  0.00  0.00    +0.022 C 
ATOM     26  C   UNL     1      32.909 -10.188 -23.900  0.00  0.00    +0.017 C 
ATOM     27  C   UNL     1      31.095  -7.064 -23.010  0.00  0.00    +0.087 C 
ATOM     28  C   UNL     1      35.207  -9.845 -24.522  0.00  0.00    +0.003 C 
ATOM     29  C   UNL     1      35.111  -8.523 -24.092  0.00  0.00    -0.003 C 
ATOM     30  H   UNL     1      30.900  -9.131 -22.706  0.00  0.00    +0.147 HD
ENDBRANCH  18  20
ENDBRANCH  16  18
ENDBRANCH   1  16
TORSDOF 6
ENDMDL
MODEL 3
REMARK VINA RESULT:     -11.7      2.401     10.294
REMARK  Name = 198752
REMARK  6 active torsions:
REMARK  status: ('A' for Active; 'I' for Inactive)
REMARK    1  A    between atoms: C_1  and  C_3
REMARK    2  A    between atoms: C_1  and  C_16
REMARK    3  A    between atoms: N_2  and  C_9
REMARK    4  A    between atoms: C_9  and  C_10
REMARK    5  A    between atoms: C_16  and  C_18
REMARK    6  A    between atoms: C_18  and  C_20
REMARK                            x       y       z     vdW  Elec       q    Type
REMARK                         _______ _______ _______ _____ _____    ______ ____
ROOT
ATOM      1  C   UNL     1      36.212 -18.644 -21.469  0.00  0.00    +0.008 C 
ENDROOT
BRANCH   1   3
ATOM      2  N   UNL     1      34.359 -21.915 -19.342  0.00  0.00    +0.390 N 
ATOM      3  C   UNL     1      35.617 -20.022 -21.194  0.00  0.00    -0.004 C 
ATOM      4  C   UNL     1      34.146 -19.914 -20.781  0.00  0.00    -0.023 C 
ATOM      5  C   UNL     1      36.408 -20.757 -20.106  0.00  0.00    -0.023 C 
ATOM      6  C   UNL     1      33.571 -21.282 -20.407  0.00  0.00    -0.077 C 
ATOM      7  C   UNL     1      35.758 -22.096 -19.755  0.00  0.00    -0.077 C 
ATOM      8  H   UNL     1      34.348 -21.297 -18.532  0.00  0.00    -0.079 HD
BRANCH   2   9
ATOM      9  C   UNL     1      33.769 -23.198 -18.960  0.00  0.00    -0.050 C 
BRANCH   9  10
ATOM     10  C   UNL     1      33.356 -23.216 -17.512  0.00  0.00    -0.043 C 
ATOM     11  C   UNL     1      34.307 -23.479 -16.535  0.00  0.00    -0.006 C 
ATOM     12  C   UNL     1      32.033 -22.969 -17.174  0.00  0.00    -0.006 C 
ATOM     13  C   UNL     1      33.924 -23.496 -15.193  0.00  0.00    -0.000 C 
ATOM     14  C   UNL     1      31.651 -22.985 -15.834  0.00  0.00    -0.000 C 
ATOM     15  C   UNL     1      32.597 -23.250 -14.843  0.00  0.00    -0.000 C 
ENDBRANCH   9  10
ENDBRANCH   2   9
ENDBRANCH   1   3
BRANCH   1  16
ATOM     16  C   UNL     1      36.696 -18.520 -22.914  0.00  0.00    +0.069 C 
BRANCH  16  18
ATOM     17  O   UNL     1      35.104 -19.596 -24.369  0.00  0.00    -0.291 OA
ATOM     18  C   UNL     1      35.552 -18.511 -23.945  0.00  0.00    +0.173 C 
BRANCH  18  20
ATOM     19  N   UNL     1      34.532 -13.842 -23.080  0.00  0.00    -0.333 N 
ATOM     20  C   UNL     1      35.007 -17.247 -24.413  0.00  0.00    +0.036 C 
ATOM     21  C   UNL     1      33.972 -14.787 -25.304  0.00  0.00    -0.009 C 
ATOM     22  C   UNL     1      33.437 -13.501 -25.903  0.00  0.00    +0.028 C 
ATOM     23  C   UNL     1      34.507 -14.881 -24.000  0.00  0.00    +0.041 C 
ATOM     24  C   UNL     1      34.300 -12.278 -25.592  0.00  0.00    +0.006 C 
ATOM     25  C   UNL     1      34.080 -11.696 -24.197  0.00  0.00    +0.022 C 
ATOM     26  C   UNL     1      35.036 -16.123 -23.587  0.00  0.00    +0.017 C 
ATOM     27  C   UNL     1      33.646 -12.701 -23.141  0.00  0.00    +0.087 C 
ATOM     28  C   UNL     1      34.447 -17.156 -25.678  0.00  0.00    +0.003 C 
ATOM     29  C   UNL     1      33.933 -15.939 -26.119  0.00  0.00    -0.003 C 
ATOM     30  H   UNL     1      35.187 -13.884 -22.346  0.00  0.00    +0.147 HD
ENDBRANCH  18  20
ENDBRANCH  16  18
ENDBRANCH   1  16
TORSDOF 6
ENDMDL
MODEL 4
REMARK VINA RESULT:     -11.5      7.035     12.996
REMARK  Name = 198752
REMARK  6 active torsions:
REMARK  status: ('A' for Active; 'I' for Inactive)
REMARK    1  A    between atoms: C_1  and  C_3
REMARK    2  A    between atoms: C_1  and  C_16
REMARK    3  A    between atoms: N_2  and  C_9
REMARK    4  A    between atoms: C_9  and  C_10
REMARK    5  A    between atoms: C_16  and  C_18
REMARK    6  A    between atoms: C_18  and  C_20
REMARK                            x       y       z     vdW  Elec       q    Type
REMARK                         _______ _______ _______ _____ _____    ______ ____
ROOT
ATOM      1  C   UNL     1      31.946 -12.529 -19.903  0.00  0.00    +0.008 C 
ENDROOT
BRANCH   1   3
ATOM      2  N   UNL     1      34.108 -14.795 -22.877  0.00  0.00    +0.390 N 
ATOM      3  C   UNL     1      33.029 -12.911 -20.908  0.00  0.00    -0.004 C 
ATOM      4  C   UNL     1      32.448 -13.049 -22.319  0.00  0.00    -0.023 C 
ATOM      5  C   UNL     1      33.721 -14.217 -20.503  0.00  0.00    -0.023 C 
ATOM      6  C   UNL     1      33.507 -13.528 -23.313  0.00  0.00    -0.077 C 
ATOM      7  C   UNL     1      34.738 -14.657 -21.557  0.00  0.00    -0.077 C 
ATOM      8  H   UNL     1      33.363 -15.487 -22.799  0.00  0.00    -0.079 HD
BRANCH   2   9
ATOM      9  C   UNL     1      35.082 -15.267 -23.862  0.00  0.00    -0.050 C 
BRANCH   9  10
ATOM     10  C   UNL     1      35.109 -16.770 -23.947  0.00  0.00    -0.043 C 
ATOM     11  C   UNL     1      34.509 -17.404 -25.027  0.00  0.00    -0.006 C 
ATOM     12  C   UNL     1      35.734 -17.501 -22.947  0.00  0.00    -0.006 C 
ATOM     13  C   UNL     1      34.534 -18.796 -25.106  0.00  0.00    -0.000 C 
ATOM     14  C   UNL     1      35.760 -18.893 -23.026  0.00  0.00    -0.000 C 
ATOM     15  C   UNL     1      35.159 -19.541 -24.106  0.00  0.00    -0.000 C 
ENDBRANCH   9  10
ENDBRANCH   2   9
ENDBRANCH   1   3
BRANCH   1  16
ATOM     16  C   UNL     1      31.205 -11.262 -20.331  0.00  0.00    +0.069 C 
BRANCH  16  18
ATOM     17  O   UNL     1      32.765  -9.782 -19.242  0.00  0.00    -0.291 OA
ATOM     18  C   UNL     1      32.072  -9.991 -20.259  0.00  0.00    +0.173 C 
BRANCH  18  20
ATOM     19  N   UNL     1      31.515  -5.442 -21.866  0.00  0.00    -0.333 N 
ATOM     20  C   UNL     1      32.077  -9.053 -21.369  0.00  0.00    +0.036 C 
ATOM     21  C   UNL     1      32.096  -7.215 -23.500  0.00  0.00    -0.009 C 
ATOM     22  C   UNL     1      32.182  -6.307 -24.710  0.00  0.00    +0.028 C 
ATOM     23  C   UNL     1      31.822  -6.756 -22.192  0.00  0.00    +0.041 C 
ATOM     24  C   UNL     1      32.926  -4.999 -24.440  0.00  0.00    +0.006 C 
ATOM     25  C   UNL     1      32.087  -3.938 -23.728  0.00  0.00    +0.022 C 
ATOM     26  C   UNL     1      31.837  -7.697 -21.141  0.00  0.00    +0.017 C 
ATOM     27  C   UNL     1      30.998  -4.483 -22.816  0.00  0.00    +0.087 C 
ATOM     28  C   UNL     1      32.308  -9.502 -22.660  0.00  0.00    +0.003 C 
ATOM     29  C   UNL     1      32.316  -8.593 -23.715  0.00  0.00    -0.003 C 
ATOM     30  H   UNL     1      31.655  -5.147 -20.937  0.00  0.00    +0.147 HD
ENDBRANCH  18  20
ENDBRANCH  16  18
ENDBRANCH   1  16
TORSDOF 6
ENDMDL
MODEL 5
REMARK VINA RESULT:     -11.4      2.930      4.661
REMARK  Name = 198752
REMARK  6 active torsions:
REMARK  status: ('A' for Active; 'I' for Inactive)
REMARK    1  A    between atoms: C_1  and  C_3
REMARK    2  A    between atoms: C_1  and  C_16
REMARK    3  A    between atoms: N_2  and  C_9
REMARK    4  A    between atoms: C_9  and  C_10
REMARK    5  A    between atoms: C_16  and  C_18
REMARK    6  A    between atoms: C_18  and  C_20
REMARK                            x       y       z     vdW  Elec       q    Type
REMARK                         _______ _______ _______ _____ _____    ______ ____
ROOT
ATOM      1  C   UNL     1      33.029 -22.388 -18.710  0.00  0.00    +0.008 C 
ENDROOT
BRANCH   1   3
ATOM      2  N   UNL     1      35.459 -19.647 -21.000  0.00  0.00    +0.390 N 
ATOM      3  C   UNL     1      33.864 -21.826 -19.857  0.00  0.00    -0.004 C 
ATOM      4  C   UNL     1      35.297 -21.529 -19.403  0.00  0.00    -0.023 C 
ATOM      5  C   UNL     1      33.229 -20.554 -20.429  0.00  0.00    -0.023 C 
ATOM      6  C   UNL     1      36.111 -20.873 -20.519  0.00  0.00    -0.077 C 
ATOM      7  C   UNL     1      34.111 -19.930 -21.512  0.00  0.00    -0.077 C 
ATOM      8  H   UNL     1      35.368 -19.009 -20.211  0.00  0.00    -0.079 HD
BRANCH   2   9
ATOM      9  C   UNL     1      36.273 -19.003 -22.031  0.00  0.00    -0.050 C 
BRANCH   9  10
ATOM     10  C   UNL     1      35.737 -17.647 -22.402  0.00  0.00    -0.043 C 
ATOM     11  C   UNL     1      35.610 -17.306 -23.742  0.00  0.00    -0.006 C 
ATOM     12  C   UNL     1      35.377 -16.755 -21.401  0.00  0.00    -0.006 C 
ATOM     13  C   UNL     1      35.113 -16.048 -24.086  0.00  0.00    -0.000 C 
ATOM     14  C   UNL     1      34.881 -15.499 -21.745  0.00  0.00    -0.000 C 
ATOM     15  C   UNL     1      34.749 -15.145 -23.088  0.00  0.00    -0.000 C 
ENDBRANCH   9  10
ENDBRANCH   2   9
ENDBRANCH   1   3
BRANCH   1  16
ATOM     16  C   UNL     1      33.812 -23.424 -17.903  0.00  0.00    +0.069 C 
BRANCH  16  18
ATOM     17  O   UNL     1      32.235 -23.135 -16.102  0.00  0.00    -0.291 OA
ATOM     18  C   UNL     1      33.385 -23.499 -16.425  0.00  0.00    +0.173 C 
BRANCH  18  20
ATOM     19  N   UNL     1      37.725 -25.401 -15.360  0.00  0.00    -0.333 N 
ATOM     20  C   UNL     1      34.319 -23.990 -15.424  0.00  0.00    +0.036 C 
ATOM     21  C   UNL     1      36.148 -24.930 -13.504  0.00  0.00    -0.009 C 
ATOM     22  C   UNL     1      37.072 -25.364 -12.384  0.00  0.00    +0.028 C 
ATOM     23  C   UNL     1      36.516 -24.928 -14.868  0.00  0.00    +0.041 C 
ATOM     24  C   UNL     1      38.507 -24.863 -12.547  0.00  0.00    +0.006 C 
ATOM     25  C   UNL     1      39.347 -25.679 -13.529  0.00  0.00    +0.022 C 
ATOM     26  C   UNL     1      35.585 -24.435 -15.807  0.00  0.00    +0.017 C 
ATOM     27  C   UNL     1      38.562 -26.343 -14.650  0.00  0.00    +0.087 C 
ATOM     28  C   UNL     1      33.952 -24.028 -14.089  0.00  0.00    +0.003 C 
ATOM     29  C   UNL     1      34.856 -24.495 -13.138  0.00  0.00    -0.003 C 
ATOM     30  H   UNL     1      38.030 -25.079 -16.239  0.00  0.00    +0.147 HD
ENDBRANCH  18  20
ENDBRANCH  16  18
ENDBRANCH   1  16
TORSDOF 6
ENDMDL
MODEL 6
REMARK VINA RESULT:     -11.4      3.858      7.494
REMARK  Name = 198752
REMARK  6 active torsions:
REMARK  status: ('A' for Active; 'I' for Inactive)
REMARK    1  A    between atoms: C_1  and  C_3
REMARK    2  A    between atoms: C_1  and  C_16
REMARK    3  A    between atoms: N_2  and  C_9
REMARK    4  A    between atoms: C_9  and  C_10
REMARK    5  A    between atoms: C_16  and  C_18
REMARK    6  A    between atoms: C_18  and  C_20
REMARK                            x       y       z     vdW  Elec       q    Type
REMARK                         _______ _______ _______ _____ _____    ______ ____
ROOT
ATOM      1  C   UNL     1      34.954 -15.362 -22.546  0.00  0.00    +0.008 C 
ENDROOT
BRANCH   1   3
ATOM      2  N   UNL     1      32.572 -11.794 -22.040  0.00  0.00    +0.390 N 
ATOM      3  C   UNL     1      33.777 -14.397 -22.650  0.00  0.00    -0.004 C 
ATOM      4  C   UNL     1      34.181 -13.112 -23.380  0.00  0.00    -0.023 C 
ATOM      5  C   UNL     1      33.223 -14.052 -21.263  0.00  0.00    -0.023 C 
ATOM      6  C   UNL     1      33.034 -12.099 -23.400  0.00  0.00    -0.077 C 
ATOM      7  C   UNL     1      32.108 -13.008 -21.354  0.00  0.00    -0.077 C 
ATOM      8  H   UNL     1      33.362 -11.420 -21.515  0.00  0.00    -0.079 HD
BRANCH   2   9
ATOM      9  C   UNL     1      31.512 -10.787 -22.071  0.00  0.00    -0.050 C 
BRANCH   9  10
ATOM     10  C   UNL     1      32.064  -9.389 -21.983  0.00  0.00    -0.043 C 
ATOM     11  C   UNL     1      32.087  -8.591 -23.119  0.00  0.00    -0.006 C 
ATOM     12  C   UNL     1      32.540  -8.916 -20.768  0.00  0.00    -0.006 C 
ATOM     13  C   UNL     1      32.600  -7.296 -23.037  0.00  0.00    -0.000 C 
ATOM     14  C   UNL     1      33.051  -7.622 -20.686  0.00  0.00    -0.000 C 
ATOM     15  C   UNL     1      33.082  -6.812 -21.822  0.00  0.00    -0.000 C 
ENDBRANCH   9  10
ENDBRANCH   2   9
ENDBRANCH   1   3
BRANCH   1  16
ATOM     16  C   UNL     1      35.423 -15.825 -23.925  0.00  0.00    +0.069 C 
BRANCH  16  18
ATOM     17  O   UNL     1      34.961 -17.768 -25.276  0.00  0.00    -0.291 OA
ATOM     18  C   UNL     1      35.276 -17.343 -24.145  0.00  0.00    +0.173 C 
BRANCH  18  20
ATOM     19  N   UNL     1      33.514 -20.615 -21.019  0.00  0.00    -0.333 N 
ATOM     20  C   UNL     1      35.506 -18.261 -23.041  0.00  0.00    +0.036 C 
ATOM     21  C   UNL     1      35.929 -20.056 -20.916  0.00  0.00    -0.009 C 
ATOM     22  C   UNL     1      36.280 -21.027 -19.806  0.00  0.00    +0.028 C 
ATOM     23  C   UNL     1      34.636 -19.933 -21.471  0.00  0.00    +0.041 C 
ATOM     24  C   UNL     1      35.642 -22.405 -19.978  0.00  0.00    +0.006 C 
ATOM     25  C   UNL     1      34.177 -22.474 -19.548  0.00  0.00    +0.022 C 
ATOM     26  C   UNL     1      34.457 -19.038 -22.548  0.00  0.00    +0.017 C 
ATOM     27  C   UNL     1      33.402 -21.173 -19.689  0.00  0.00    +0.087 C 
ATOM     28  C   UNL     1      36.763 -18.359 -22.467  0.00  0.00    +0.003 C 
ATOM     29  C   UNL     1      36.973 -19.247 -21.414  0.00  0.00    -0.003 C 
ATOM     30  H   UNL     1      32.755 -20.725 -21.635  0.00  0.00    +0.147 HD
ENDBRANCH  18  20
ENDBRANCH  16  18
ENDBRANCH   1  16
TORSDOF 6
ENDMDL
MODEL 7
REMARK VINA RESULT:     -11.3      2.153      3.567
REMARK  Name = 198752
REMARK  6 active torsions:
REMARK  status: ('A' for Active; 'I' for Inactive)
REMARK    1  A    between atoms: C_1  and  C_3
REMARK    2  A    between atoms: C_1  and  C_16
REMARK    3  A    between atoms: N_2  and  C_9
REMARK    4  A    between atoms: C_9  and  C_10
REMARK    5  A    between atoms: C_16  and  C_18
REMARK    6  A    between atoms: C_18  and  C_20
REMARK                            x       y       z     vdW  Elec       q    Type
REMARK                         _______ _______ _______ _____ _____    ______ ____
ROOT
ATOM      1  C   UNL     1      35.820 -21.699 -19.333  0.00  0.00    +0.008 C 
ENDROOT
BRANCH   1   3
ATOM      2  N   UNL     1      35.758 -18.367 -22.081  0.00  0.00    +0.390 N 
ATOM      3  C   UNL     1      35.955 -20.907 -20.630  0.00  0.00    -0.004 C 
ATOM      4  C   UNL     1      37.002 -19.797 -20.491  0.00  0.00    -0.023 C 
ATOM      5  C   UNL     1      34.611 -20.302 -21.049  0.00  0.00    -0.023 C 
ATOM      6  C   UNL     1      37.072 -18.937 -21.754  0.00  0.00    -0.077 C 
ATOM      7  C   UNL     1      34.761 -19.424 -22.294  0.00  0.00    -0.077 C 
ATOM      8  H   UNL     1      35.454 -17.803 -21.288  0.00  0.00    -0.079 HD
BRANCH   2   9
ATOM      9  C   UNL     1      35.851 -17.506 -23.260  0.00  0.00    -0.050 C 
BRANCH   9  10
ATOM     10  C   UNL     1      35.270 -16.141 -23.004  0.00  0.00    -0.043 C 
ATOM     11  C   UNL     1      35.010 -15.743 -21.699  0.00  0.00    -0.006 C 
ATOM     12  C   UNL     1      35.004 -15.298 -24.074  0.00  0.00    -0.006 C 
ATOM     13  C   UNL     1      34.471 -14.478 -21.462  0.00  0.00    -0.000 C 
ATOM     14  C   UNL     1      34.467 -14.034 -23.837  0.00  0.00    -0.000 C 
ATOM     15  C   UNL     1      34.200 -13.624 -22.530  0.00  0.00    -0.000 C 
ENDBRANCH   9  10
ENDBRANCH   2   9
ENDBRANCH   1   3
BRANCH   1  16
ATOM     16  C   UNL     1      34.767 -22.801 -19.455  0.00  0.00    +0.069 C 
BRANCH  16  18
ATOM     17  O   UNL     1      32.547 -22.207 -18.724  0.00  0.00    -0.291 OA
ATOM     18  C   UNL     1      33.648 -22.700 -18.401  0.00  0.00    +0.173 C 
BRANCH  18  20
ATOM     19  N   UNL     1      36.714 -24.499 -15.092  0.00  0.00    -0.333 N 
ATOM     20  C   UNL     1      33.882 -23.176 -17.047  0.00  0.00    +0.036 C 
ATOM     21  C   UNL     1      34.360 -24.086 -14.429  0.00  0.00    -0.009 C 
ATOM     22  C   UNL     1      34.517 -24.508 -12.981  0.00  0.00    +0.028 C 
ATOM     23  C   UNL     1      35.424 -24.063 -15.358  0.00  0.00    +0.041 C 
ATOM     24  C   UNL     1      35.787 -23.968 -12.322  0.00  0.00    +0.006 C 
ATOM     25  C   UNL     1      37.052 -24.753 -12.667  0.00  0.00    +0.022 C 
ATOM     26  C   UNL     1      35.158 -23.584 -16.659  0.00  0.00    +0.017 C 
ATOM     27  C   UNL     1      37.041 -25.426 -14.031  0.00  0.00    +0.087 C 
ATOM     28  C   UNL     1      32.835 -23.237 -16.141  0.00  0.00    +0.003 C 
ATOM     29  C   UNL     1      33.071 -23.689 -14.844  0.00  0.00    -0.003 C 
ATOM     30  H   UNL     1      37.447 -24.160 -15.656  0.00  0.00    +0.147 HD
ENDBRANCH  18  20
ENDBRANCH  16  18
ENDBRANCH   1  16
TORSDOF 6
ENDMDL
MODEL 8
REMARK VINA RESULT:     -11.3      1.261      1.916
REMARK  Name = 198752
REMARK  6 active torsions:
REMARK  status: ('A' for Active; 'I' for Inactive)
REMARK    1  A    between atoms: C_1  and  C_3
REMARK    2  A    between atoms: C_1  and  C_16
REMARK    3  A    between atoms: N_2  and  C_9
REMARK    4  A    between atoms: C_9  and  C_10
REMARK    5  A    between atoms: C_16  and  C_18
REMARK    6  A    between atoms: C_18  and  C_20
REMARK                            x       y       z     vdW  Elec       q    Type
REMARK                         _______ _______ _______ _____ _____    ______ ____
ROOT
ATOM      1  C   UNL     1      36.635 -20.700 -19.794  0.00  0.00    +0.008 C 
ENDROOT
BRANCH   1   3
ATOM      2  N   UNL     1      35.508 -18.165 -23.105  0.00  0.00    +0.390 N 
ATOM      3  C   UNL     1      36.437 -20.217 -21.227  0.00  0.00    -0.004 C 
ATOM      4  C   UNL     1      37.218 -18.924 -21.486  0.00  0.00    -0.023 C 
ATOM      5  C   UNL     1      34.952 -19.994 -21.534  0.00  0.00    -0.023 C 
ATOM      6  C   UNL     1      36.945 -18.380 -22.890  0.00  0.00    -0.077 C 
ATOM      7  C   UNL     1      34.755 -19.415 -22.936  0.00  0.00    -0.077 C 
ATOM      8  H   UNL     1      35.180 -17.503 -22.402  0.00  0.00    -0.079 HD
BRANCH   2   9
ATOM      9  C   UNL     1      35.267 -17.597 -24.431  0.00  0.00    -0.050 C 
BRANCH   9  10
ATOM     10  C   UNL     1      34.782 -16.175 -24.352  0.00  0.00    -0.043 C 
ATOM     11  C   UNL     1      34.113 -15.620 -25.435  0.00  0.00    -0.006 C 
ATOM     12  C   UNL     1      35.008 -15.437 -23.198  0.00  0.00    -0.006 C 
ATOM     13  C   UNL     1      33.664 -14.301 -25.361  0.00  0.00    -0.000 C 
ATOM     14  C   UNL     1      34.558 -14.120 -23.125  0.00  0.00    -0.000 C 
ATOM     15  C   UNL     1      33.886 -13.551 -24.207  0.00  0.00    -0.000 C 
ENDBRANCH   9  10
ENDBRANCH   2   9
ENDBRANCH   1   3
BRANCH   1  16
ATOM     16  C   UNL     1      35.965 -22.053 -19.560  0.00  0.00    +0.069 C 
BRANCH  16  18
ATOM     17  O   UNL     1      36.868 -22.432 -17.357  0.00  0.00    -0.291 OA
ATOM     18  C   UNL     1      35.843 -22.428 -18.071  0.00  0.00    +0.173 C 
BRANCH  18  20
ATOM     19  N   UNL     1      33.253 -24.413 -14.473  0.00  0.00    -0.333 N 
ATOM     20  C   UNL     1      34.546 -22.773 -17.513  0.00  0.00    +0.036 C 
ATOM     21  C   UNL     1      32.045 -23.436 -16.407  0.00  0.00    -0.009 C 
ATOM     22  C   UNL     1      30.648 -23.701 -15.883  0.00  0.00    +0.028 C 
ATOM     23  C   UNL     1      33.223 -23.751 -15.693  0.00  0.00    +0.041 C 
ATOM     24  C   UNL     1      30.478 -23.364 -14.402  0.00  0.00    +0.006 C 
ATOM     25  C   UNL     1      31.015 -24.433 -13.451  0.00  0.00    +0.022 C 
ATOM     26  C   UNL     1      34.462 -23.390 -16.264  0.00  0.00    +0.017 C 
ATOM     27  C   UNL     1      32.177 -25.251 -13.993  0.00  0.00    +0.087 C 
ATOM     28  C   UNL     1      33.388 -22.501 -18.224  0.00  0.00    +0.003 C 
ATOM     29  C   UNL     1      32.150 -22.831 -17.678  0.00  0.00    -0.003 C 
ATOM     30  H   UNL     1      34.051 -24.308 -13.905  0.00  0.00    +0.147 HD
ENDBRANCH  18  20
ENDBRANCH  16  18
ENDBRANCH   1  16
TORSDOF 6
ENDMDL
MODEL 9
REMARK VINA RESULT:     -11.1      2.868      4.977
REMARK  Name = 198752
REMARK  6 active torsions:
REMARK  status: ('A' for Active; 'I' for Inactive)
REMARK    1  A    between atoms: C_1  and  C_3
REMARK    2  A    between atoms: C_1  and  C_16
REMARK    3  A    between atoms: N_2  and  C_9
REMARK    4  A    between atoms: C_9  and  C_10
REMARK    5  A    between atoms: C_16  and  C_18
REMARK    6  A    between atoms: C_18  and  C_20
REMARK                            x       y       z     vdW  Elec       q    Type
REMARK                         _______ _______ _______ _____ _____    ______ ____
ROOT
ATOM      1  C   UNL     1      33.567 -23.040 -18.804  0.00  0.00    +0.008 C 
ENDROOT
BRANCH   1   3
ATOM      2  N   UNL     1      35.660 -20.218 -21.317  0.00  0.00    +0.390 N 
ATOM      3  C   UNL     1      34.269 -21.760 -19.247  0.00  0.00    -0.004 C 
ATOM      4  C   UNL     1      33.532 -21.104 -20.419  0.00  0.00    -0.023 C 
ATOM      5  C   UNL     1      35.724 -22.037 -19.640  0.00  0.00    -0.023 C 
ATOM      6  C   UNL     1      34.284 -19.875 -20.933  0.00  0.00    -0.077 C 
ATOM      7  C   UNL     1      36.403 -20.777 -20.180  0.00  0.00    -0.077 C 
ATOM      8  H   UNL     1      35.615 -20.931 -22.044  0.00  0.00    -0.079 HD
BRANCH   2   9
ATOM      9  C   UNL     1      36.350 -19.045 -21.854  0.00  0.00    -0.050 C 
BRANCH   9  10
ATOM     10  C   UNL     1      35.677 -18.517 -23.092  0.00  0.00    -0.043 C 
ATOM     11  C   UNL     1      35.055 -19.402 -23.962  0.00  0.00    -0.006 C 
ATOM     12  C   UNL     1      35.686 -17.152 -23.347  0.00  0.00    -0.006 C 
ATOM     13  C   UNL     1      34.431 -18.911 -25.110  0.00  0.00    -0.000 C 
ATOM     14  C   UNL     1      35.062 -16.662 -24.493  0.00  0.00    -0.000 C 
ATOM     15  C   UNL     1      34.435 -17.543 -25.376  0.00  0.00    -0.000 C 
ENDBRANCH   9  10
ENDBRANCH   2   9
ENDBRANCH   1   3
BRANCH   1  16
ATOM     16  C   UNL     1      32.598 -22.779 -17.651  0.00  0.00    +0.069 C 
BRANCH  16  18
ATOM     17  O   UNL     1      31.961 -24.174 -15.791  0.00  0.00    -0.291 OA
ATOM     18  C   UNL     1      32.901 -23.615 -16.394  0.00  0.00    +0.173 C 
BRANCH  18  20
ATOM     19  N   UNL     1      36.445 -26.429 -14.629  0.00  0.00    -0.333 N 
ATOM     20  C   UNL     1      34.270 -23.746 -15.923  0.00  0.00    +0.036 C 
ATOM     21  C   UNL     1      36.921 -24.027 -15.022  0.00  0.00    -0.009 C 
ATOM     22  C   UNL     1      38.377 -24.074 -14.604  0.00  0.00    +0.028 C 
ATOM     23  C   UNL     1      36.077 -25.159 -15.053  0.00  0.00    +0.041 C 
ATOM     24  C   UNL     1      39.132 -25.283 -15.157  0.00  0.00    +0.006 C 
ATOM     25  C   UNL     1      38.889 -26.578 -14.383  0.00  0.00    +0.022 C 
ATOM     26  C   UNL     1      34.758 -24.992 -15.527  0.00  0.00    +0.017 C 
ATOM     27  C   UNL     1      37.530 -26.680 -13.707  0.00  0.00    +0.087 C 
ATOM     28  C   UNL     1      35.092 -22.633 -15.854  0.00  0.00    +0.003 C 
ATOM     29  C   UNL     1      36.404 -22.771 -15.406  0.00  0.00    -0.003 C 
ATOM     30  H   UNL     1      35.939 -27.201 -14.973  0.00  0.00    +0.147 HD
ENDBRANCH  18  20
ENDBRANCH  16  18
ENDBRANCH   1  16
TORSDOF 6
ENDMDL
