MODEL 1
REMARK VINA RESULT:     -11.6      0.000      0.000
REMARK  Name = 3151
REMARK  5 active torsions:
REMARK  status: ('A' for Active; 'I' for Inactive)
REMARK    1  A    between atoms: N_1  and  C_20
REMARK    2  A    between atoms: C_2  and  N_10
REMARK    3  A    between atoms: C_20  and  C_21
REMARK    4  A    between atoms: C_21  and  C_22
REMARK    5  A    between atoms: C_22  and  N_24
REMARK                            x       y       z     vdW  Elec       q    Type
REMARK                         _______ _______ _______ _____ _____    ______ ____
ROOT
ATOM      1  N   UNL     1      35.348 -15.720 -23.844  0.00  0.00    +0.387 N 
ATOM      2  C   UNL     1      35.096 -18.140 -22.222  0.00  0.00    +0.086 C 
ATOM      3  C   UNL     1      35.392 -16.773 -21.606  0.00  0.00    -0.000 C 
ATOM      4  C   UNL     1      35.564 -18.177 -23.677  0.00  0.00    -0.000 C 
ATOM      5  C   UNL     1      34.831 -15.642 -22.470  0.00  0.00    -0.075 C 
ATOM      6  C   UNL     1      34.997 -17.000 -24.472  0.00  0.00    -0.075 C 
ATOM      7  H   UNL     1      36.364 -15.658 -23.802  0.00  0.00    -0.080 HD
ENDROOT
BRANCH   2  10
ATOM      8 CL   UNL     1      33.628 -23.636 -18.257  0.00  0.00    -0.082 Cl
ATOM      9  O   UNL     1      38.030 -18.762 -21.738  0.00  0.00    -0.247 OA
ATOM     10  N   UNL     1      35.710 -19.193 -21.452  0.00  0.00    -0.282 N 
ATOM     11  N   UNL     1      37.208 -20.563 -20.443  0.00  0.00    -0.305 N 
ATOM     12  C   UNL     1      34.998 -20.175 -20.749  0.00  0.00    +0.079 A 
ATOM     13  C   UNL     1      37.103 -19.413 -21.277  0.00  0.00    +0.328 A 
ATOM     14  C   UNL     1      35.925 -21.012 -20.132  0.00  0.00    +0.077 A 
ATOM     15  C   UNL     1      33.640 -20.380 -20.616  0.00  0.00    +0.020 C 
ATOM     16  C   UNL     1      35.549 -22.087 -19.358  0.00  0.00    +0.030 C 
ATOM     17  C   UNL     1      33.233 -21.466 -19.834  0.00  0.00    +0.013 C 
ATOM     18  C   UNL     1      34.177 -22.309 -19.212  0.00  0.00    +0.059 C 
ATOM     19  H   UNL     1      38.049 -20.973 -20.137  0.00  0.00    +0.170 HD
ENDBRANCH   2  10
BRANCH   1  20
ATOM     20  C   UNL     1      34.842 -14.603 -24.644  0.00  0.00    -0.075 C 
BRANCH  20  21
ATOM     21  C   UNL     1      34.460 -13.403 -23.773  0.00  0.00    +0.002 C 
BRANCH  21  22
ATOM     22  C   UNL     1      32.960 -13.122 -23.706  0.00  0.00    +0.108 C 
BRANCH  22  24
ATOM     23  O   UNL     1      32.181 -14.192 -20.994  0.00  0.00    -0.247 OA
ATOM     24  N   UNL     1      32.585 -12.409 -22.516  0.00  0.00    -0.280 N 
ATOM     25  N   UNL     1      31.938 -11.918 -20.393  0.00  0.00    -0.305 N 
ATOM     26  C   UNL     1      32.508 -11.012 -22.388  0.00  0.00    +0.079 A 
ATOM     27  C   UNL     1      32.229 -13.001 -21.269  0.00  0.00    +0.328 A 
ATOM     28  C   UNL     1      32.110 -10.719 -21.085  0.00  0.00    +0.076 A 
ATOM     29  C   UNL     1      32.755 -10.013 -23.308  0.00  0.00    +0.019 C 
ATOM     30  C   UNL     1      31.941  -9.428 -20.637  0.00  0.00    +0.019 C 
ATOM     31  C   UNL     1      32.589  -8.693 -22.877  0.00  0.00    +0.002 C 
ATOM     32  C   UNL     1      32.187  -8.403 -21.555  0.00  0.00    +0.002 C 
ATOM     33  H   UNL     1      31.658 -12.001 -19.452  0.00  0.00    +0.170 HD
ENDBRANCH  22  24
ENDBRANCH  21  22
ENDBRANCH  20  21
ENDBRANCH   1  20
TORSDOF 5
ENDMDL
MODEL 2
REMARK VINA RESULT:     -11.5      1.669      2.201
REMARK  Name = 3151
REMARK  5 active torsions:
REMARK  status: ('A' for Active; 'I' for Inactive)
REMARK    1  A    between atoms: N_1  and  C_20
REMARK    2  A    between atoms: C_2  and  N_10
REMARK    3  A    between atoms: C_20  and  C_21
REMARK    4  A    between atoms: C_21  and  C_22
REMARK    5  A    between atoms: C_22  and  N_24
REMARK                            x       y       z     vdW  Elec       q    Type
REMARK                         _______ _______ _______ _____ _____    ______ ____
ROOT
ATOM      1  N   UNL     1      35.304 -16.831 -24.633  0.00  0.00    +0.387 N 
ATOM      2  C   UNL     1      35.054 -18.638 -22.345  0.00  0.00    +0.086 C 
ATOM      3  C   UNL     1      35.671 -17.245 -22.221  0.00  0.00    -0.000 C 
ATOM      4  C   UNL     1      35.190 -19.150 -23.779  0.00  0.00    -0.000 C 
ATOM      5  C   UNL     1      35.110 -16.293 -23.279  0.00  0.00    -0.075 C 
ATOM      6  C   UNL     1      34.644 -18.135 -24.785  0.00  0.00    -0.075 C 
ATOM      7  H   UNL     1      36.304 -16.966 -24.777  0.00  0.00    -0.080 HD
ENDROOT
BRANCH   2  10
ATOM      8 CL   UNL     1      33.550 -23.651 -17.798  0.00  0.00    -0.082 Cl
ATOM      9  O   UNL     1      37.972 -19.044 -21.602  0.00  0.00    -0.247 OA
ATOM     10  N   UNL     1      35.657 -19.552 -21.408  0.00  0.00    -0.282 N 
ATOM     11  N   UNL     1      37.140 -20.704 -20.138  0.00  0.00    -0.305 N 
ATOM     12  C   UNL     1      34.940 -20.470 -20.629  0.00  0.00    +0.079 A 
ATOM     13  C   UNL     1      37.043 -19.677 -21.119  0.00  0.00    +0.328 A 
ATOM     14  C   UNL     1      35.858 -21.174 -19.851  0.00  0.00    +0.077 A 
ATOM     15  C   UNL     1      33.587 -20.725 -20.556  0.00  0.00    +0.020 C 
ATOM     16  C   UNL     1      35.475 -22.160 -18.969  0.00  0.00    +0.030 C 
ATOM     17  C   UNL     1      33.173 -21.721 -19.666  0.00  0.00    +0.013 C 
ATOM     18  C   UNL     1      34.107 -22.431 -18.881  0.00  0.00    +0.059 C 
ATOM     19  H   UNL     1      37.974 -21.029 -19.729  0.00  0.00    +0.170 HD
ENDBRANCH   2  10
BRANCH   1  20
ATOM     20  C   UNL     1      34.808 -15.887 -25.634  0.00  0.00    -0.075 C 
BRANCH  20  21
ATOM     21  C   UNL     1      33.960 -14.778 -25.004  0.00  0.00    +0.002 C 
BRANCH  21  22
ATOM     22  C   UNL     1      34.731 -13.850 -24.068  0.00  0.00    +0.108 C 
BRANCH  22  24
ATOM     23  O   UNL     1      34.802 -11.228 -25.563  0.00  0.00    -0.247 OA
ATOM     24  N   UNL     1      34.025 -12.626 -23.801  0.00  0.00    -0.280 N 
ATOM     25  N   UNL     1      33.253 -10.492 -23.935  0.00  0.00    -0.305 N 
ATOM     26  C   UNL     1      33.126 -12.413 -22.743  0.00  0.00    +0.079 A 
ATOM     27  C   UNL     1      34.120 -11.427 -24.567  0.00  0.00    +0.328 A 
ATOM     28  C   UNL     1      32.657 -11.104 -22.831  0.00  0.00    +0.076 A 
ATOM     29  C   UNL     1      32.705 -13.263 -21.741  0.00  0.00    +0.019 C 
ATOM     30  C   UNL     1      31.754 -10.580 -21.934  0.00  0.00    +0.019 C 
ATOM     31  C   UNL     1      31.787 -12.754 -20.816  0.00  0.00    +0.002 C 
ATOM     32  C   UNL     1      31.316 -11.427 -20.912  0.00  0.00    +0.002 C 
ATOM     33  H   UNL     1      33.098  -9.565 -24.228  0.00  0.00    +0.170 HD
ENDBRANCH  22  24
ENDBRANCH  21  22
ENDBRANCH  20  21
ENDBRANCH   1  20
TORSDOF 5
ENDMDL
MODEL 3
REMARK VINA RESULT:     -11.5      3.000      4.909
REMARK  Name = 3151
REMARK  5 active torsions:
REMARK  status: ('A' for Active; 'I' for Inactive)
REMARK    1  A    between atoms: N_1  and  C_20
REMARK    2  A    between atoms: C_2  and  N_10
REMARK    3  A    between atoms: C_20  and  C_21
REMARK    4  A    between atoms: C_21  and  C_22
REMARK    5  A    between atoms: C_22  and  N_24
REMARK                            x       y       z     vdW  Elec       q    Type
REMARK                         _______ _______ _______ _____ _____    ______ ____
ROOT
ATOM      1  N   UNL     1      36.041 -18.957 -21.496  0.00  0.00    +0.387 N 
ATOM      2  C   UNL     1      35.495 -21.441 -20.051  0.00  0.00    +0.086 C 
ATOM      3  C   UNL     1      34.379 -20.578 -20.639  0.00  0.00    -0.000 C 
ATOM      4  C   UNL     1      36.731 -20.587 -19.769  0.00  0.00    -0.000 C 
ATOM      5  C   UNL     1      34.874 -19.779 -21.846  0.00  0.00    -0.075 C 
ATOM      6  C   UNL     1      37.148 -19.789 -21.005  0.00  0.00    -0.075 C 
ATOM      7  H   UNL     1      35.767 -18.324 -20.745  0.00  0.00    -0.080 HD
ENDROOT
BRANCH   2  10
ATOM      8 CL   UNL     1      37.610 -23.550 -13.793  0.00  0.00    -0.082 Cl
ATOM      9  O   UNL     1      32.778 -22.616 -19.364  0.00  0.00    -0.247 OA
ATOM     10  N   UNL     1      35.047 -22.116 -18.858  0.00  0.00    -0.282 N 
ATOM     11  N   UNL     1      33.796 -23.204 -17.312  0.00  0.00    -0.305 N 
ATOM     12  C   UNL     1      35.854 -22.356 -17.738  0.00  0.00    +0.079 A 
ATOM     13  C   UNL     1      33.747 -22.638 -18.618  0.00  0.00    +0.328 A 
ATOM     14  C   UNL     1      35.079 -23.025 -16.792  0.00  0.00    +0.077 A 
ATOM     15  C   UNL     1      37.174 -22.041 -17.495  0.00  0.00    +0.020 C 
ATOM     16  C   UNL     1      35.577 -23.410 -15.567  0.00  0.00    +0.030 C 
ATOM     17  C   UNL     1      37.704 -22.423 -16.258  0.00  0.00    +0.013 C 
ATOM     18  C   UNL     1      36.914 -23.100 -15.305  0.00  0.00    +0.059 C 
ATOM     19  H   UNL     1      33.048 -23.647 -16.851  0.00  0.00    +0.170 HD
ENDBRANCH   2  10
BRANCH   1  20
ATOM     20  C   UNL     1      36.471 -18.162 -22.647  0.00  0.00    -0.075 C 
BRANCH  20  21
ATOM     21  C   UNL     1      35.312 -17.871 -23.605  0.00  0.00    +0.002 C 
BRANCH  21  22
ATOM     22  C   UNL     1      35.594 -16.766 -24.620  0.00  0.00    +0.108 C 
BRANCH  22  24
ATOM     23  O   UNL     1      33.869 -15.615 -26.814  0.00  0.00    -0.247 OA
ATOM     24  N   UNL     1      34.629 -15.702 -24.561  0.00  0.00    -0.280 N 
ATOM     25  N   UNL     1      33.046 -14.174 -25.129  0.00  0.00    -0.305 N 
ATOM     26  C   UNL     1      34.294 -14.965 -23.413  0.00  0.00    +0.079 A 
ATOM     27  C   UNL     1      33.854 -15.220 -25.656  0.00  0.00    +0.328 A 
ATOM     28  C   UNL     1      33.323 -14.030 -23.769  0.00  0.00    +0.076 A 
ATOM     29  C   UNL     1      34.767 -15.056 -22.120  0.00  0.00    +0.019 C 
ATOM     30  C   UNL     1      32.780 -13.147 -22.863  0.00  0.00    +0.019 C 
ATOM     31  C   UNL     1      34.230 -14.169 -21.181  0.00  0.00    +0.002 C 
ATOM     32  C   UNL     1      33.247 -13.225 -21.548  0.00  0.00    +0.002 C 
ATOM     33  H   UNL     1      32.397 -13.638 -25.641  0.00  0.00    +0.170 HD
ENDBRANCH  22  24
ENDBRANCH  21  22
ENDBRANCH  20  21
ENDBRANCH   1  20
TORSDOF 5
ENDMDL
MODEL 4
REMARK VINA RESULT:     -11.1      4.106      6.794
REMARK  Name = 3151
REMARK  5 active torsions:
REMARK  status: ('A' for Active; 'I' for Inactive)
REMARK    1  A    between atoms: N_1  and  C_20
REMARK    2  A    between atoms: C_2  and  N_10
REMARK    3  A    between atoms: C_20  and  C_21
REMARK    4  A    between atoms: C_21  and  C_22
REMARK    5  A    between atoms: C_22  and  N_24
REMARK                            x       y       z     vdW  Elec       q    Type
REMARK                         _______ _______ _______ _____ _____    ______ ____
ROOT
ATOM      1  N   UNL     1      32.210 -10.125 -23.030  0.00  0.00    +0.387 N 
ATOM      2  C   UNL     1      33.778 -12.522 -23.624  0.00  0.00    +0.086 C 
ATOM      3  C   UNL     1      33.851 -11.264 -24.490  0.00  0.00    -0.000 C 
ATOM      4  C   UNL     1      32.436 -12.584 -22.895  0.00  0.00    -0.000 C 
ATOM      5  C   UNL     1      33.525 -10.010 -23.676  0.00  0.00    -0.075 C 
ATOM      6  C   UNL     1      32.158 -11.287 -22.132  0.00  0.00    -0.075 C 
ATOM      7  H   UNL     1      31.511 -10.259 -23.760  0.00  0.00    -0.080 HD
ENDROOT
BRANCH   2  10
ATOM      8 CL   UNL     1      36.090 -19.049 -23.274  0.00  0.00    -0.082 Cl
ATOM      9  O   UNL     1      33.243 -13.027 -26.573  0.00  0.00    -0.247 OA
ATOM     10  N   UNL     1      33.991 -13.705 -24.420  0.00  0.00    -0.282 N 
ATOM     11  N   UNL     1      34.088 -15.191 -26.129  0.00  0.00    -0.305 N 
ATOM     12  C   UNL     1      34.520 -14.904 -23.924  0.00  0.00    +0.079 A 
ATOM     13  C   UNL     1      33.710 -13.856 -25.805  0.00  0.00    +0.328 A 
ATOM     14  C   UNL     1      34.577 -15.812 -24.979  0.00  0.00    +0.077 A 
ATOM     15  C   UNL     1      34.940 -15.246 -22.655  0.00  0.00    +0.020 C 
ATOM     16  C   UNL     1      35.051 -17.095 -24.825  0.00  0.00    +0.030 C 
ATOM     17  C   UNL     1      35.427 -16.544 -22.473  0.00  0.00    +0.013 C 
ATOM     18  C   UNL     1      35.482 -17.458 -23.546  0.00  0.00    +0.059 C 
ATOM     19  H   UNL     1      34.016 -15.606 -27.018  0.00  0.00    +0.170 HD
ENDBRANCH   2  10
BRANCH   1  20
ATOM     20  C   UNL     1      31.893  -8.898 -22.297  0.00  0.00    -0.075 C 
BRANCH  20  21
ATOM     21  C   UNL     1      33.148  -8.233 -21.724  0.00  0.00    +0.002 C 
BRANCH  21  22
ATOM     22  C   UNL     1      32.975  -6.758 -21.370  0.00  0.00    +0.108 C 
BRANCH  22  24
ATOM     23  O   UNL     1      30.415  -5.200 -21.731  0.00  0.00    -0.247 OA
ATOM     24  N   UNL     1      32.534  -5.970 -22.489  0.00  0.00    -0.280 N 
ATOM     25  N   UNL     1      31.297  -4.635 -23.850  0.00  0.00    -0.305 N 
ATOM     26  C   UNL     1      33.249  -5.770 -23.682  0.00  0.00    +0.079 A 
ATOM     27  C   UNL     1      31.299  -5.264 -22.573  0.00  0.00    +0.328 A 
ATOM     28  C   UNL     1      32.485  -4.951 -24.511  0.00  0.00    +0.076 A 
ATOM     29  C   UNL     1      34.485  -6.242 -24.075  0.00  0.00    +0.019 C 
ATOM     30  C   UNL     1      32.909  -4.565 -25.762  0.00  0.00    +0.019 C 
ATOM     31  C   UNL     1      34.938  -5.863 -25.343  0.00  0.00    +0.002 C 
ATOM     32  C   UNL     1      34.159  -5.033 -26.178  0.00  0.00    +0.002 C 
ATOM     33  H   UNL     1      30.575  -4.070 -24.210  0.00  0.00    +0.170 HD
ENDBRANCH  22  24
ENDBRANCH  21  22
ENDBRANCH  20  21
ENDBRANCH   1  20
TORSDOF 5
ENDMDL
MODEL 5
REMARK VINA RESULT:     -10.9      4.183     10.103
REMARK  Name = 3151
REMARK  5 active torsions:
REMARK  status: ('A' for Active; 'I' for Inactive)
REMARK    1  A    between atoms: N_1  and  C_20
REMARK    2  A    between atoms: C_2  and  N_10
REMARK    3  A    between atoms: C_20  and  C_21
REMARK    4  A    between atoms: C_21  and  C_22
REMARK    5  A    between atoms: C_22  and  N_24
REMARK                            x       y       z     vdW  Elec       q    Type
REMARK                         _______ _______ _______ _____ _____    ______ ____
ROOT
ATOM      1  N   UNL     1      35.847 -21.111 -20.581  0.00  0.00    +0.387 N 
ATOM      2  C   UNL     1      35.313 -18.519 -21.827  0.00  0.00    +0.086 C 
ATOM      3  C   UNL     1      34.262 -19.627 -21.767  0.00  0.00    -0.000 C 
ATOM      4  C   UNL     1      36.718 -19.118 -21.759  0.00  0.00    -0.000 C 
ATOM      5  C   UNL     1      34.491 -20.544 -20.565  0.00  0.00    -0.075 C 
ATOM      6  C   UNL     1      36.865 -20.052 -20.556  0.00  0.00    -0.075 C 
ATOM      7  H   UNL     1      35.959 -21.635 -21.447  0.00  0.00    -0.080 HD
ENDROOT
BRANCH   2  10
ATOM      8 CL   UNL     1      34.295 -12.007 -23.980  0.00  0.00    -0.082 Cl
ATOM      9  O   UNL     1      35.301 -19.331 -24.755  0.00  0.00    -0.247 OA
ATOM     10  N   UNL     1      35.148 -17.718 -23.015  0.00  0.00    -0.282 N 
ATOM     11  N   UNL     1      34.956 -17.027 -25.165  0.00  0.00    -0.305 N 
ATOM     12  C   UNL     1      34.951 -16.331 -23.009  0.00  0.00    +0.079 A 
ATOM     13  C   UNL     1      35.155 -18.183 -24.358  0.00  0.00    +0.328 A 
ATOM     14  C   UNL     1      34.834 -15.913 -24.334  0.00  0.00    +0.077 A 
ATOM     15  C   UNL     1      34.870 -15.437 -21.962  0.00  0.00    +0.020 C 
ATOM     16  C   UNL     1      34.632 -14.595 -24.678  0.00  0.00    +0.030 C 
ATOM     17  C   UNL     1      34.664 -14.092 -22.286  0.00  0.00    +0.013 C 
ATOM     18  C   UNL     1      34.547 -13.676 -23.628  0.00  0.00    +0.059 C 
ATOM     19  H   UNL     1      34.912 -17.016 -26.148  0.00  0.00    +0.170 HD
ENDBRANCH   2  10
BRANCH   1  20
ATOM     20  C   UNL     1      36.033 -22.024 -19.452  0.00  0.00    -0.075 C 
BRANCH  20  21
ATOM     21  C   UNL     1      34.828 -22.015 -18.506  0.00  0.00    +0.002 C 
BRANCH  21  22
ATOM     22  C   UNL     1      34.199 -23.386 -18.272  0.00  0.00    +0.108 C 
BRANCH  22  24
ATOM     23  O   UNL     1      36.046 -24.328 -16.078  0.00  0.00    -0.247 OA
ATOM     24  N   UNL     1      33.917 -23.635 -16.884  0.00  0.00    -0.280 N 
ATOM     25  N   UNL     1      34.137 -24.187 -14.691  0.00  0.00    -0.305 N 
ATOM     26  C   UNL     1      32.668 -23.477 -16.261  0.00  0.00    +0.079 A 
ATOM     27  C   UNL     1      34.859 -24.082 -15.912  0.00  0.00    +0.328 A 
ATOM     28  C   UNL     1      32.810 -23.818 -14.917  0.00  0.00    +0.076 A 
ATOM     29  C   UNL     1      31.455 -23.069 -16.777  0.00  0.00    +0.019 C 
ATOM     30  C   UNL     1      31.761 -23.768 -14.028  0.00  0.00    +0.019 C 
ATOM     31  C   UNL     1      30.373 -23.011 -15.892  0.00  0.00    +0.002 C 
ATOM     32  C   UNL     1      30.524 -23.356 -14.532  0.00  0.00    +0.002 C 
ATOM     33  H   UNL     1      34.511 -24.474 -13.826  0.00  0.00    +0.170 HD
ENDBRANCH  22  24
ENDBRANCH  21  22
ENDBRANCH  20  21
ENDBRANCH   1  20
TORSDOF 5
ENDMDL
MODEL 6
REMARK VINA RESULT:     -10.9      4.478     11.029
REMARK  Name = 3151
REMARK  5 active torsions:
REMARK  status: ('A' for Active; 'I' for Inactive)
REMARK    1  A    between atoms: N_1  and  C_20
REMARK    2  A    between atoms: C_2  and  N_10
REMARK    3  A    between atoms: C_20  and  C_21
REMARK    4  A    between atoms: C_21  and  C_22
REMARK    5  A    between atoms: C_22  and  N_24
REMARK                            x       y       z     vdW  Elec       q    Type
REMARK                         _______ _______ _______ _____ _____    ______ ____
ROOT
ATOM      1  N   UNL     1      35.593 -21.572 -19.962  0.00  0.00    +0.387 N 
ATOM      2  C   UNL     1      35.274 -19.012 -21.342  0.00  0.00    +0.086 C 
ATOM      3  C   UNL     1      34.163 -20.060 -21.301  0.00  0.00    -0.000 C 
ATOM      4  C   UNL     1      36.638 -19.680 -21.165  0.00  0.00    -0.000 C 
ATOM      5  C   UNL     1      34.271 -20.935 -20.051  0.00  0.00    -0.075 C 
ATOM      6  C   UNL     1      36.664 -20.567 -19.919  0.00  0.00    -0.075 C 
ATOM      7  H   UNL     1      35.726 -22.138 -20.799  0.00  0.00    -0.080 HD
ENDROOT
BRANCH   2  10
ATOM      8 CL   UNL     1      34.539 -12.577 -23.817  0.00  0.00    -0.082 Cl
ATOM      9  O   UNL     1      35.497 -19.936 -24.228  0.00  0.00    -0.247 OA
ATOM     10  N   UNL     1      35.222 -18.256 -22.568  0.00  0.00    -0.282 N 
ATOM     11  N   UNL     1      35.223 -17.647 -24.752  0.00  0.00    -0.305 N 
ATOM     12  C   UNL     1      35.046 -16.867 -22.632  0.00  0.00    +0.079 A 
ATOM     13  C   UNL     1      35.336 -18.773 -23.887  0.00  0.00    +0.328 A 
ATOM     14  C   UNL     1      35.047 -16.500 -23.977  0.00  0.00    +0.077 A 
ATOM     15  C   UNL     1      34.891 -15.932 -21.630  0.00  0.00    +0.020 C 
ATOM     16  C   UNL     1      34.895 -15.194 -24.386  0.00  0.00    +0.030 C 
ATOM     17  C   UNL     1      34.733 -14.599 -22.020  0.00  0.00    +0.013 C 
ATOM     18  C   UNL     1      34.736 -14.234 -23.383  0.00  0.00    +0.059 C 
ATOM     19  H   UNL     1      35.262 -17.673 -25.735  0.00  0.00    +0.170 HD
ENDBRANCH   2  10
BRANCH   1  20
ATOM     20  C   UNL     1      35.662 -22.443 -18.788  0.00  0.00    -0.075 C 
BRANCH  20  21
ATOM     21  C   UNL     1      36.807 -22.049 -17.850  0.00  0.00    +0.002 C 
BRANCH  21  22
ATOM     22  C   UNL     1      36.448 -22.087 -16.366  0.00  0.00    +0.108 C 
BRANCH  22  24
ATOM     23  O   UNL     1      33.871 -23.614 -15.994  0.00  0.00    -0.247 OA
ATOM     24  N   UNL     1      36.240 -23.425 -15.884  0.00  0.00    -0.280 N 
ATOM     25  N   UNL     1      35.259 -25.370 -15.234  0.00  0.00    -0.305 N 
ATOM     26  C   UNL     1      37.248 -24.315 -15.476  0.00  0.00    +0.079 A 
ATOM     27  C   UNL     1      34.977 -24.070 -15.740  0.00  0.00    +0.328 A 
ATOM     28  C   UNL     1      36.640 -25.504 -15.079  0.00  0.00    +0.076 A 
ATOM     29  C   UNL     1      38.618 -24.156 -15.431  0.00  0.00    +0.019 C 
ATOM     30  C   UNL     1      37.359 -26.585 -14.622  0.00  0.00    +0.019 C 
ATOM     31  C   UNL     1      39.371 -25.241 -14.970  0.00  0.00    +0.002 C 
ATOM     32  C   UNL     1      38.749 -26.443 -14.570  0.00  0.00    +0.002 C 
ATOM     33  H   UNL     1      34.590 -26.062 -15.027  0.00  0.00    +0.170 HD
ENDBRANCH  22  24
ENDBRANCH  21  22
ENDBRANCH  20  21
ENDBRANCH   1  20
TORSDOF 5
ENDMDL
MODEL 7
REMARK VINA RESULT:     -10.8      4.916     11.250
REMARK  Name = 3151
REMARK  5 active torsions:
REMARK  status: ('A' for Active; 'I' for Inactive)
REMARK    1  A    between atoms: N_1  and  C_20
REMARK    2  A    between atoms: C_2  and  N_10
REMARK    3  A    between atoms: C_20  and  C_21
REMARK    4  A    between atoms: C_21  and  C_22
REMARK    5  A    between atoms: C_22  and  N_24
REMARK                            x       y       z     vdW  Elec       q    Type
REMARK                         _______ _______ _______ _____ _____    ______ ____
ROOT
ATOM      1  N   UNL     1      32.984 -12.152 -22.459  0.00  0.00    +0.387 N 
ATOM      2  C   UNL     1      32.097  -9.374 -22.682  0.00  0.00    +0.086 C 
ATOM      3  C   UNL     1      33.384  -9.874 -23.338  0.00  0.00    -0.000 C 
ATOM      4  C   UNL     1      31.739 -10.252 -21.482  0.00  0.00    -0.000 C 
ATOM      5  C   UNL     1      33.297 -11.367 -23.661  0.00  0.00    -0.075 C 
ATOM      6  C   UNL     1      31.707 -11.732 -21.868  0.00  0.00    -0.075 C 
ATOM      7  H   UNL     1      33.719 -11.984 -21.773  0.00  0.00    -0.080 HD
ENDROOT
BRANCH   2  10
ATOM      8 CL   UNL     1      32.314  -2.935 -25.245  0.00  0.00    -0.082 Cl
ATOM      9  O   UNL     1      32.414  -8.129 -19.929  0.00  0.00    -0.247 OA
ATOM     10  N   UNL     1      32.223  -7.991 -22.294  0.00  0.00    -0.282 N 
ATOM     11  N   UNL     1      32.453  -6.076 -21.103  0.00  0.00    -0.305 N 
ATOM     12  C   UNL     1      32.220  -6.917 -23.194  0.00  0.00    +0.079 A 
ATOM     13  C   UNL     1      32.368  -7.492 -20.972  0.00  0.00    +0.328 A 
ATOM     14  C   UNL     1      32.361  -5.744 -22.455  0.00  0.00    +0.077 A 
ATOM     15  C   UNL     1      32.104  -6.893 -24.568  0.00  0.00    +0.020 C 
ATOM     16  C   UNL     1      32.395  -4.499 -23.044  0.00  0.00    +0.030 C 
ATOM     17  C   UNL     1      32.137  -5.641 -25.190  0.00  0.00    +0.013 C 
ATOM     18  C   UNL     1      32.280  -4.457 -24.436  0.00  0.00    +0.059 C 
ATOM     19  H   UNL     1      32.558  -5.438 -20.361  0.00  0.00    +0.170 HD
ENDBRANCH   2  10
BRANCH   1  20
ATOM     20  C   UNL     1      32.955 -13.581 -22.775  0.00  0.00    -0.075 C 
BRANCH  20  21
ATOM     21  C   UNL     1      33.556 -13.874 -24.153  0.00  0.00    +0.002 C 
BRANCH  21  22
ATOM     22  C   UNL     1      34.903 -14.592 -24.114  0.00  0.00    +0.108 C 
BRANCH  22  24
ATOM     23  O   UNL     1      33.968 -15.877 -26.681  0.00  0.00    -0.247 OA
ATOM     24  N   UNL     1      34.796 -15.985 -24.453  0.00  0.00    -0.280 N 
ATOM     25  N   UNL     1      34.403 -17.921 -25.576  0.00  0.00    -0.305 N 
ATOM     26  C   UNL     1      35.122 -17.060 -23.609  0.00  0.00    +0.079 A 
ATOM     27  C   UNL     1      34.340 -16.505 -25.699  0.00  0.00    +0.328 A 
ATOM     28  C   UNL     1      34.879 -18.243 -24.304  0.00  0.00    +0.076 A 
ATOM     29  C   UNL     1      35.603 -17.069 -22.316  0.00  0.00    +0.019 C 
ATOM     30  C   UNL     1      35.101 -19.484 -23.751  0.00  0.00    +0.019 C 
ATOM     31  C   UNL     1      35.835 -18.319 -21.731  0.00  0.00    +0.002 C 
ATOM     32  C   UNL     1      35.588 -19.513 -22.441  0.00  0.00    +0.002 C 
ATOM     33  H   UNL     1      34.152 -18.570 -26.274  0.00  0.00    +0.170 HD
ENDBRANCH  22  24
ENDBRANCH  21  22
ENDBRANCH  20  21
ENDBRANCH   1  20
TORSDOF 5
ENDMDL
MODEL 8
REMARK VINA RESULT:     -10.8      3.576     10.134
REMARK  Name = 3151
REMARK  5 active torsions:
REMARK  status: ('A' for Active; 'I' for Inactive)
REMARK    1  A    between atoms: N_1  and  C_20
REMARK    2  A    between atoms: C_2  and  N_10
REMARK    3  A    between atoms: C_20  and  C_21
REMARK    4  A    between atoms: C_21  and  C_22
REMARK    5  A    between atoms: C_22  and  N_24
REMARK                            x       y       z     vdW  Elec       q    Type
REMARK                         _______ _______ _______ _____ _____    ______ ____
ROOT
ATOM      1  N   UNL     1      34.934 -14.777 -23.494  0.00  0.00    +0.387 N 
ATOM      2  C   UNL     1      32.889 -12.782 -22.869  0.00  0.00    +0.086 C 
ATOM      3  C   UNL     1      33.530 -12.887 -24.252  0.00  0.00    -0.000 C 
ATOM      4  C   UNL     1      33.831 -13.346 -21.806  0.00  0.00    -0.000 C 
ATOM      5  C   UNL     1      34.008 -14.312 -24.536  0.00  0.00    -0.075 C 
ATOM      6  C   UNL     1      34.298 -14.756 -22.170  0.00  0.00    -0.075 C 
ATOM      7  H   UNL     1      35.729 -14.139 -23.471  0.00  0.00    -0.080 HD
ENDROOT
BRANCH   2  10
ATOM      8 CL   UNL     1      34.671  -6.209 -24.174  0.00  0.00    -0.082 Cl
ATOM      9  O   UNL     1      30.660 -11.675 -21.125  0.00  0.00    -0.247 OA
ATOM     10  N   UNL     1      32.529 -11.418 -22.573  0.00  0.00    -0.282 N 
ATOM     11  N   UNL     1      31.511  -9.562 -21.760  0.00  0.00    -0.305 N 
ATOM     12  C   UNL     1      33.200 -10.297 -23.080  0.00  0.00    +0.079 A 
ATOM     13  C   UNL     1      31.462 -10.985 -21.739  0.00  0.00    +0.328 A 
ATOM     14  C   UNL     1      32.569  -9.160 -22.577  0.00  0.00    +0.077 A 
ATOM     15  C   UNL     1      34.287 -10.204 -23.924  0.00  0.00    +0.020 C 
ATOM     16  C   UNL     1      32.987  -7.886 -22.887  0.00  0.00    +0.030 C 
ATOM     17  C   UNL     1      34.731  -8.920 -24.253  0.00  0.00    +0.013 C 
ATOM     18  C   UNL     1      34.088  -7.773 -23.740  0.00  0.00    +0.059 C 
ATOM     19  H   UNL     1      30.899  -8.961 -21.278  0.00  0.00    +0.170 HD
ENDBRANCH   2  10
BRANCH   1  20
ATOM     20  C   UNL     1      35.421 -16.122 -23.806  0.00  0.00    -0.075 C 
BRANCH  20  21
ATOM     21  C   UNL     1      35.414 -17.032 -22.574  0.00  0.00    +0.002 C 
BRANCH  21  22
ATOM     22  C   UNL     1      35.304 -18.522 -22.891  0.00  0.00    +0.108 C 
BRANCH  22  24
ATOM     23  O   UNL     1      38.106 -18.841 -21.814  0.00  0.00    -0.247 OA
ATOM     24  N   UNL     1      35.782 -19.351 -21.818  0.00  0.00    -0.280 N 
ATOM     25  N   UNL     1      37.130 -20.373 -20.301  0.00  0.00    -0.305 N 
ATOM     26  C   UNL     1      34.994 -20.208 -21.032  0.00  0.00    +0.079 A 
ATOM     27  C   UNL     1      37.134 -19.439 -21.374  0.00  0.00    +0.328 A 
ATOM     28  C   UNL     1      35.826 -20.832 -20.105  0.00  0.00    +0.076 A 
ATOM     29  C   UNL     1      33.640 -20.469 -21.075  0.00  0.00    +0.019 C 
ATOM     30  C   UNL     1      35.357 -21.738 -19.182  0.00  0.00    +0.019 C 
ATOM     31  C   UNL     1      33.138 -21.388 -20.146  0.00  0.00    +0.002 C 
ATOM     32  C   UNL     1      33.987 -22.015 -19.209  0.00  0.00    +0.002 C 
ATOM     33  H   UNL     1      37.919 -20.652 -19.781  0.00  0.00    +0.170 HD
ENDBRANCH  22  24
ENDBRANCH  21  22
ENDBRANCH  20  21
ENDBRANCH   1  20
TORSDOF 5
ENDMDL
MODEL 9
REMARK VINA RESULT:     -10.7      3.152      5.626
REMARK  Name = 3151
REMARK  5 active torsions:
REMARK  status: ('A' for Active; 'I' for Inactive)
REMARK    1  A    between atoms: N_1  and  C_20
REMARK    2  A    between atoms: C_2  and  N_10
REMARK    3  A    between atoms: C_20  and  C_21
REMARK    4  A    between atoms: C_21  and  C_22
REMARK    5  A    between atoms: C_22  and  N_24
REMARK                            x       y       z     vdW  Elec       q    Type
REMARK                         _______ _______ _______ _____ _____    ______ ____
ROOT
ATOM      1  N   UNL     1      34.922 -20.243 -20.700  0.00  0.00    +0.387 N 
ATOM      2  C   UNL     1      34.983 -22.407 -18.733  0.00  0.00    +0.086 C 
ATOM      3  C   UNL     1      33.701 -21.642 -19.065  0.00  0.00    -0.000 C 
ATOM      4  C   UNL     1      36.207 -21.542 -19.034  0.00  0.00    -0.000 C 
ATOM      5  C   UNL     1      33.739 -21.090 -20.491  0.00  0.00    -0.075 C 
ATOM      6  C   UNL     1      36.162 -20.994 -20.462  0.00  0.00    -0.075 C 
ATOM      7  H   UNL     1      34.884 -19.477 -20.029  0.00  0.00    -0.080 HD
ENDROOT
BRANCH   2  10
ATOM      8 CL   UNL     1      30.821 -24.768 -13.715  0.00  0.00    -0.082 Cl
ATOM      9  O   UNL     1      37.261 -22.610 -16.733  0.00  0.00    -0.247 OA
ATOM     10  N   UNL     1      34.979 -22.841 -17.358  0.00  0.00    -0.282 N 
ATOM     11  N   UNL     1      35.596 -23.391 -15.247  0.00  0.00    -0.305 N 
ATOM     12  C   UNL     1      33.837 -23.272 -16.670  0.00  0.00    +0.079 A 
ATOM     13  C   UNL     1      36.100 -22.906 -16.487  0.00  0.00    +0.328 A 
ATOM     14  C   UNL     1      34.223 -23.608 -15.374  0.00  0.00    +0.077 A 
ATOM     15  C   UNL     1      32.526 -23.387 -17.084  0.00  0.00    +0.020 C 
ATOM     16  C   UNL     1      33.330 -24.072 -14.434  0.00  0.00    +0.030 C 
ATOM     17  C   UNL     1      31.600 -23.856 -16.147  0.00  0.00    +0.013 C 
ATOM     18  C   UNL     1      31.998 -24.194 -14.837  0.00  0.00    +0.059 C 
ATOM     19  H   UNL     1      36.128 -23.548 -14.435  0.00  0.00    +0.170 HD
ENDBRANCH   2  10
BRANCH   1  20
ATOM     20  C   UNL     1      34.916 -19.683 -22.053  0.00  0.00    -0.075 C 
BRANCH  20  21
ATOM     21  C   UNL     1      35.632 -18.330 -22.114  0.00  0.00    +0.002 C 
BRANCH  21  22
ATOM     22  C   UNL     1      35.923 -17.833 -23.528  0.00  0.00    +0.108 C 
BRANCH  22  24
ATOM     23  O   UNL     1      34.980 -16.835 -26.217  0.00  0.00    -0.247 OA
ATOM     24  N   UNL     1      35.191 -16.640 -23.855  0.00  0.00    -0.280 N 
ATOM     25  N   UNL     1      34.096 -15.010 -25.000  0.00  0.00    -0.305 N 
ATOM     26  C   UNL     1      34.757 -15.669 -22.937  0.00  0.00    +0.079 A 
ATOM     27  C   UNL     1      34.785 -16.245 -25.163  0.00  0.00    +0.328 A 
ATOM     28  C   UNL     1      34.087 -14.673 -23.645  0.00  0.00    +0.076 A 
ATOM     29  C   UNL     1      34.906 -15.602 -21.566  0.00  0.00    +0.019 C 
ATOM     30  C   UNL     1      33.537 -13.572 -23.031  0.00  0.00    +0.019 C 
ATOM     31  C   UNL     1      34.355 -14.491 -20.919  0.00  0.00    +0.002 C 
ATOM     32  C   UNL     1      33.677 -13.487 -21.642  0.00  0.00    +0.002 C 
ATOM     33  H   UNL     1      33.692 -14.479 -25.724  0.00  0.00    +0.170 HD
ENDBRANCH  22  24
ENDBRANCH  21  22
ENDBRANCH  20  21
ENDBRANCH   1  20
TORSDOF 5
ENDMDL
