MODEL 1
REMARK VINA RESULT:     -11.3      0.000      0.000
REMARK  Name = 445579
REMARK  10 active torsions:
REMARK  status: ('A' for Active; 'I' for Inactive)
REMARK    1  A    between atoms: C_1  and  O_18
REMARK    2  A    between atoms: C_4  and  C_9
REMARK    3  A    between atoms: N_8  and  C_11
REMARK    4  A    between atoms: C_11  and  C_12
REMARK    5  A    between atoms: O_18  and  C_24
REMARK    6  A    between atoms: C_20  and  O_27
REMARK    7  A    between atoms: C_21  and  O_25
REMARK    8  A    between atoms: C_22  and  C_31
REMARK    9  A    between atoms: C_23  and  O_29
REMARK   10  A    between atoms: C_31  and  O_32
REMARK                            x       y       z     vdW  Elec       q    Type
REMARK                         _______ _______ _______ _____ _____    ______ ____
ROOT
ATOM      1  C   UNL     1      33.930 -23.973 -15.356  0.00  0.00    +0.142 C 
ATOM      2  C   UNL     1      34.201 -23.681 -16.689  0.00  0.00    +0.042 C 
ATOM      3  C   UNL     1      32.669 -23.731 -14.821  0.00  0.00    +0.037 C 
ATOM      4  C   UNL     1      33.199 -23.139 -17.495  0.00  0.00    +0.056 C 
ATOM      5  C   UNL     1      31.668 -23.189 -15.628  0.00  0.00    +0.003 C 
ATOM      6  C   UNL     1      31.933 -22.894 -16.965  0.00  0.00    +0.005 C 
ENDROOT
BRANCH   4   9
ATOM      7  O   UNL     1      33.920 -23.682 -19.672  0.00  0.00    -0.270 OA
ATOM      8  N   UNL     1      33.181 -21.531 -19.302  0.00  0.00    -0.297 N 
ATOM      9  C   UNL     1      33.476 -22.831 -18.890  0.00  0.00    +0.246 C 
ATOM     10  H   UNL     1      32.828 -20.893 -18.639  0.00  0.00    +0.150 HD
BRANCH   8  11
ATOM     11  C   UNL     1      33.371 -21.081 -20.663  0.00  0.00    +0.117 C 
BRANCH  11  12
ATOM     12  C   UNL     1      34.706 -20.424 -20.857  0.00  0.00    -0.003 C 
ATOM     13  C   UNL     1      34.827 -19.362 -21.747  0.00  0.00    -0.003 C 
ATOM     14  C   UNL     1      35.809 -20.883 -20.146  0.00  0.00    -0.003 C 
ATOM     15  C   UNL     1      36.068 -18.751 -21.928  0.00  0.00    -0.000 C 
ATOM     16  C   UNL     1      37.049 -20.271 -20.327  0.00  0.00    -0.000 C 
ATOM     17  C   UNL     1      37.179 -19.206 -21.217  0.00  0.00    -0.000 C 
ENDBRANCH  11  12
ENDBRANCH   8  11
ENDBRANCH   4   9
BRANCH   1  18
ATOM     18  O   UNL     1      34.912 -24.505 -14.565  0.00  0.00    -0.451 OA
BRANCH  18  24
ATOM     19  O   UNL     1      36.762 -23.254 -13.782  0.00  0.00    -0.316 OA
ATOM     20  C   UNL     1      37.808 -25.140 -12.633  0.00  0.00    +0.169 C 
ATOM     21  C   UNL     1      37.334 -26.074 -13.750  0.00  0.00    +0.173 C 
ATOM     22  C   UNL     1      36.873 -23.929 -12.519  0.00  0.00    +0.177 C 
ATOM     23  C   UNL     1      37.154 -25.291 -15.051  0.00  0.00    +0.210 C 
ATOM     24  C   UNL     1      36.247 -24.079 -14.830  0.00  0.00    +0.318 C 
BRANCH  21  25
ATOM     25  O   UNL     1      38.288 -27.113 -13.954  0.00  0.00    -0.379 OA
ATOM     26  H   UNL     1      37.825 -27.946 -14.136  0.00  0.00    +0.211 HD
ENDBRANCH  21  25
BRANCH  20  27
ATOM     27  O   UNL     1      39.129 -24.678 -12.924  0.00  0.00    -0.379 OA
ATOM     28  H   UNL     1      39.235 -23.772 -12.593  0.00  0.00    +0.211 HD
ENDBRANCH  20  27
BRANCH  23  29
ATOM     29  O   UNL     1      36.588 -26.126 -16.056  0.00  0.00    -0.377 OA
ATOM     30  H   UNL     1      36.624 -27.052 -15.766  0.00  0.00    +0.211 HD
ENDBRANCH  23  29
BRANCH  22  31
ATOM     31  C   UNL     1      37.367 -22.907 -11.502  0.00  0.00    +0.169 C 
BRANCH  31  32
ATOM     32  O   UNL     1      38.295 -22.047 -12.139  0.00  0.00    -0.379 OA
ATOM     33  H   UNL     1      37.995 -21.857 -13.041  0.00  0.00    +0.211 HD
ENDBRANCH  31  32
ENDBRANCH  22  31
ENDBRANCH  18  24
ENDBRANCH   1  18
TORSDOF 10
ENDMDL
MODEL 2
REMARK VINA RESULT:     -11.2      1.116      2.256
REMARK  Name = 445579
REMARK  10 active torsions:
REMARK  status: ('A' for Active; 'I' for Inactive)
REMARK    1  A    between atoms: C_1  and  O_18
REMARK    2  A    between atoms: C_4  and  C_9
REMARK    3  A    between atoms: N_8  and  C_11
REMARK    4  A    between atoms: C_11  and  C_12
REMARK    5  A    between atoms: O_18  and  C_24
REMARK    6  A    between atoms: C_20  and  O_27
REMARK    7  A    between atoms: C_21  and  O_25
REMARK    8  A    between atoms: C_22  and  C_31
REMARK    9  A    between atoms: C_23  and  O_29
REMARK   10  A    between atoms: C_31  and  O_32
REMARK                            x       y       z     vdW  Elec       q    Type
REMARK                         _______ _______ _______ _____ _____    ______ ____
ROOT
ATOM      1  C   UNL     1      34.334 -23.417 -15.421  0.00  0.00    +0.142 C 
ATOM      2  C   UNL     1      34.538 -23.141 -16.769  0.00  0.00    +0.042 C 
ATOM      3  C   UNL     1      33.044 -23.518 -14.908  0.00  0.00    +0.037 C 
ATOM      4  C   UNL     1      33.442 -22.964 -17.613  0.00  0.00    +0.056 C 
ATOM      5  C   UNL     1      31.949 -23.341 -15.753  0.00  0.00    +0.003 C 
ATOM      6  C   UNL     1      32.147 -23.064 -17.105  0.00  0.00    +0.005 C 
ENDROOT
BRANCH   4   9
ATOM      7  O   UNL     1      34.041 -23.542 -19.818  0.00  0.00    -0.270 OA
ATOM      8  N   UNL     1      33.350 -21.376 -19.436  0.00  0.00    -0.297 N 
ATOM      9  C   UNL     1      33.649 -22.676 -19.024  0.00  0.00    +0.246 C 
ATOM     10  H   UNL     1      33.041 -20.726 -18.763  0.00  0.00    +0.150 HD
BRANCH   8  11
ATOM     11  C   UNL     1      33.474 -20.945 -20.810  0.00  0.00    +0.117 C 
BRANCH  11  12
ATOM     12  C   UNL     1      34.774 -20.236 -21.061  0.00  0.00    -0.003 C 
ATOM     13  C   UNL     1      34.816 -19.176 -21.960  0.00  0.00    -0.003 C 
ATOM     14  C   UNL     1      35.922 -20.647 -20.394  0.00  0.00    -0.003 C 
ATOM     15  C   UNL     1      36.024 -18.518 -22.195  0.00  0.00    -0.000 C 
ATOM     16  C   UNL     1      37.129 -19.988 -20.628  0.00  0.00    -0.000 C 
ATOM     17  C   UNL     1      37.180 -18.924 -21.528  0.00  0.00    -0.000 C 
ENDBRANCH  11  12
ENDBRANCH   8  11
ENDBRANCH   4   9
BRANCH   1  18
ATOM     18  O   UNL     1      35.409 -23.590 -14.593  0.00  0.00    -0.451 OA
BRANCH  18  24
ATOM     19  O   UNL     1      36.609 -25.623 -14.424  0.00  0.00    -0.316 OA
ATOM     20  C   UNL     1      38.125 -24.818 -12.684  0.00  0.00    +0.169 C 
ATOM     21  C   UNL     1      36.979 -24.007 -12.072  0.00  0.00    +0.173 C 
ATOM     22  C   UNL     1      37.890 -25.019 -14.187  0.00  0.00    +0.177 C 
ATOM     23  C   UNL     1      35.635 -24.646 -12.421  0.00  0.00    +0.210 C 
ATOM     24  C   UNL     1      35.511 -24.851 -13.932  0.00  0.00    +0.318 C 
BRANCH  21  25
ATOM     25  O   UNL     1      37.122 -23.955 -10.655  0.00  0.00    -0.379 OA
ATOM     26  H   UNL     1      36.803 -24.785 -10.267  0.00  0.00    +0.211 HD
ENDBRANCH  21  25
BRANCH  20  27
ATOM     27  O   UNL     1      38.195 -26.099 -12.052  0.00  0.00    -0.379 OA
ATOM     28  H   UNL     1      37.572 -26.705 -12.481  0.00  0.00    +0.211 HD
ENDBRANCH  20  27
BRANCH  23  29
ATOM     29  O   UNL     1      34.564 -23.824 -11.967  0.00  0.00    -0.377 OA
ATOM     30  H   UNL     1      34.924 -23.023 -11.554  0.00  0.00    +0.211 HD
ENDBRANCH  23  29
BRANCH  22  31
ATOM     31  C   UNL     1      38.940 -25.922 -14.823  0.00  0.00    +0.169 C 
BRANCH  31  32
ATOM     32  O   UNL     1      38.440 -27.248 -14.850  0.00  0.00    -0.379 OA
ATOM     33  H   UNL     1      37.487 -27.238 -14.674  0.00  0.00    +0.211 HD
ENDBRANCH  31  32
ENDBRANCH  22  31
ENDBRANCH  18  24
ENDBRANCH   1  18
TORSDOF 10
ENDMDL
MODEL 3
REMARK VINA RESULT:     -10.9      1.574      1.991
REMARK  Name = 445579
REMARK  10 active torsions:
REMARK  status: ('A' for Active; 'I' for Inactive)
REMARK    1  A    between atoms: C_1  and  O_18
REMARK    2  A    between atoms: C_4  and  C_9
REMARK    3  A    between atoms: N_8  and  C_11
REMARK    4  A    between atoms: C_11  and  C_12
REMARK    5  A    between atoms: O_18  and  C_24
REMARK    6  A    between atoms: C_20  and  O_27
REMARK    7  A    between atoms: C_21  and  O_25
REMARK    8  A    between atoms: C_22  and  C_31
REMARK    9  A    between atoms: C_23  and  O_29
REMARK   10  A    between atoms: C_31  and  O_32
REMARK                            x       y       z     vdW  Elec       q    Type
REMARK                         _______ _______ _______ _____ _____    ______ ____
ROOT
ATOM      1  C   UNL     1      34.373 -24.348 -14.791  0.00  0.00    +0.142 C 
ATOM      2  C   UNL     1      34.020 -23.695 -15.968  0.00  0.00    +0.042 C 
ATOM      3  C   UNL     1      33.398 -24.713 -13.867  0.00  0.00    +0.037 C 
ATOM      4  C   UNL     1      32.680 -23.404 -16.224  0.00  0.00    +0.056 C 
ATOM      5  C   UNL     1      32.058 -24.422 -14.124  0.00  0.00    +0.003 C 
ATOM      6  C   UNL     1      31.699 -23.768 -15.302  0.00  0.00    +0.005 C 
ENDROOT
BRANCH   4   9
ATOM      7  O   UNL     1      31.161 -22.289 -17.640  0.00  0.00    -0.270 OA
ATOM      8  N   UNL     1      33.321 -22.558 -18.397  0.00  0.00    -0.297 N 
ATOM      9  C   UNL     1      32.306 -22.723 -17.454  0.00  0.00    +0.246 C 
ATOM     10  H   UNL     1      34.215 -22.922 -18.199  0.00  0.00    +0.150 HD
BRANCH   8  11
ATOM     11  C   UNL     1      33.115 -21.875 -19.654  0.00  0.00    +0.117 C 
BRANCH  11  12
ATOM     12  C   UNL     1      34.355 -21.169 -20.120  0.00  0.00    -0.003 C 
ATOM     13  C   UNL     1      35.591 -21.534 -19.599  0.00  0.00    -0.003 C 
ATOM     14  C   UNL     1      34.256 -20.156 -21.068  0.00  0.00    -0.003 C 
ATOM     15  C   UNL     1      36.744 -20.877 -20.031  0.00  0.00    -0.000 C 
ATOM     16  C   UNL     1      35.409 -19.501 -21.500  0.00  0.00    -0.000 C 
ATOM     17  C   UNL     1      36.652 -19.861 -20.982  0.00  0.00    -0.000 C 
ENDBRANCH  11  12
ENDBRANCH   8  11
ENDBRANCH   4   9
BRANCH   1  18
ATOM     18  O   UNL     1      35.687 -24.633 -14.540  0.00  0.00    -0.451 OA
BRANCH  18  24
ATOM     19  O   UNL     1      36.354 -23.245 -12.743  0.00  0.00    -0.316 OA
ATOM     20  C   UNL     1      38.245 -24.652 -12.094  0.00  0.00    +0.169 C 
ATOM     21  C   UNL     1      38.504 -24.970 -13.570  0.00  0.00    +0.173 C 
ATOM     22  C   UNL     1      36.764 -24.314 -11.876  0.00  0.00    +0.177 C 
ATOM     23  C   UNL     1      37.978 -23.840 -14.454  0.00  0.00    +0.210 C 
ATOM     24  C   UNL     1      36.511 -23.542 -14.133  0.00  0.00    +0.318 C 
BRANCH  21  25
ATOM     25  O   UNL     1      39.902 -25.131 -13.795  0.00  0.00    -0.379 OA
ATOM     26  H   UNL     1      40.310 -24.262 -13.936  0.00  0.00    +0.211 HD
ENDBRANCH  21  25
BRANCH  20  27
ATOM     27  O   UNL     1      39.038 -23.529 -11.701  0.00  0.00    -0.379 OA
ATOM     28  H   UNL     1      39.668 -23.803 -11.016  0.00  0.00    +0.211 HD
ENDBRANCH  20  27
BRANCH  23  29
ATOM     29  O   UNL     1      38.096 -24.191 -15.829  0.00  0.00    -0.377 OA
ATOM     30  H   UNL     1      37.214 -24.227 -16.231  0.00  0.00    +0.211 HD
ENDBRANCH  23  29
BRANCH  22  31
ATOM     31  C   UNL     1      36.474 -23.872 -10.446  0.00  0.00    +0.169 C 
BRANCH  31  32
ATOM     32  O   UNL     1      35.598 -24.813  -9.850  0.00  0.00    -0.379 OA
ATOM     33  H   UNL     1      35.733 -25.683 -10.256  0.00  0.00    +0.211 HD
ENDBRANCH  31  32
ENDBRANCH  22  31
ENDBRANCH  18  24
ENDBRANCH   1  18
TORSDOF 10
ENDMDL
MODEL 4
REMARK VINA RESULT:     -10.7      2.586      4.184
REMARK  Name = 445579
REMARK  10 active torsions:
REMARK  status: ('A' for Active; 'I' for Inactive)
REMARK    1  A    between atoms: C_1  and  O_18
REMARK    2  A    between atoms: C_4  and  C_9
REMARK    3  A    between atoms: N_8  and  C_11
REMARK    4  A    between atoms: C_11  and  C_12
REMARK    5  A    between atoms: O_18  and  C_24
REMARK    6  A    between atoms: C_20  and  O_27
REMARK    7  A    between atoms: C_21  and  O_25
REMARK    8  A    between atoms: C_22  and  C_31
REMARK    9  A    between atoms: C_23  and  O_29
REMARK   10  A    between atoms: C_31  and  O_32
REMARK                            x       y       z     vdW  Elec       q    Type
REMARK                         _______ _______ _______ _____ _____    ______ ____
ROOT
ATOM      1  C   UNL     1      35.161 -22.321 -18.586  0.00  0.00    +0.142 C 
ATOM      2  C   UNL     1      35.896 -21.408 -19.337  0.00  0.00    +0.042 C 
ATOM      3  C   UNL     1      33.793 -22.469 -18.796  0.00  0.00    +0.037 C 
ATOM      4  C   UNL     1      35.256 -20.634 -20.305  0.00  0.00    +0.056 C 
ATOM      5  C   UNL     1      33.154 -21.695 -19.765  0.00  0.00    +0.003 C 
ATOM      6  C   UNL     1      33.885 -20.778 -20.519  0.00  0.00    +0.005 C 
ENDROOT
BRANCH   4   9
ATOM      7  O   UNL     1      37.192 -19.391 -20.817  0.00  0.00    -0.270 OA
ATOM      8  N   UNL     1      35.364 -19.128 -22.195  0.00  0.00    -0.297 N 
ATOM      9  C   UNL     1      36.019 -19.678 -21.092  0.00  0.00    +0.246 C 
ATOM     10  H   UNL     1      34.430 -19.391 -22.370  0.00  0.00    +0.150 HD
BRANCH   8  11
ATOM     11  C   UNL     1      35.998 -18.189 -23.092  0.00  0.00    +0.117 C 
BRANCH  11  12
ATOM     12  C   UNL     1      35.483 -16.793 -22.900  0.00  0.00    -0.003 C 
ATOM     13  C   UNL     1      35.305 -15.967 -24.004  0.00  0.00    -0.003 C 
ATOM     14  C   UNL     1      35.188 -16.337 -21.619  0.00  0.00    -0.003 C 
ATOM     15  C   UNL     1      34.827 -14.668 -23.826  0.00  0.00    -0.000 C 
ATOM     16  C   UNL     1      34.710 -15.040 -21.442  0.00  0.00    -0.000 C 
ATOM     17  C   UNL     1      34.529 -14.205 -22.544  0.00  0.00    -0.000 C 
ENDBRANCH  11  12
ENDBRANCH   8  11
ENDBRANCH   4   9
BRANCH   1  18
ATOM     18  O   UNL     1      35.788 -23.080 -17.637  0.00  0.00    -0.451 OA
BRANCH  18  24
ATOM     19  O   UNL     1      34.893 -22.615 -15.496  0.00  0.00    -0.316 OA
ATOM     20  C   UNL     1      35.816 -24.623 -14.452  0.00  0.00    +0.169 C 
ATOM     21  C   UNL     1      37.070 -24.489 -15.320  0.00  0.00    +0.173 C 
ATOM     22  C   UNL     1      34.612 -23.982 -15.154  0.00  0.00    +0.177 C 
ATOM     23  C   UNL     1      37.279 -23.030 -15.724  0.00  0.00    +0.210 C 
ATOM     24  C   UNL     1      36.014 -22.462 -16.371  0.00  0.00    +0.318 C 
BRANCH  21  25
ATOM     25  O   UNL     1      38.212 -24.947 -14.602  0.00  0.00    -0.379 OA
ATOM     26  H   UNL     1      38.454 -24.293 -13.927  0.00  0.00    +0.211 HD
ENDBRANCH  21  25
BRANCH  20  27
ATOM     27  O   UNL     1      36.028 -23.963 -13.201  0.00  0.00    -0.379 OA
ATOM     28  H   UNL     1      35.542 -24.431 -12.503  0.00  0.00    +0.211 HD
ENDBRANCH  20  27
BRANCH  23  29
ATOM     29  O   UNL     1      38.365 -22.920 -16.638  0.00  0.00    -0.377 OA
ATOM     30  H   UNL     1      39.097 -22.445 -16.215  0.00  0.00    +0.211 HD
ENDBRANCH  23  29
BRANCH  22  31
ATOM     31  C   UNL     1      33.363 -23.980 -14.281  0.00  0.00    +0.169 C 
BRANCH  31  32
ATOM     32  O   UNL     1      33.497 -24.991 -13.297  0.00  0.00    -0.379 OA
ATOM     33  H   UNL     1      33.205 -24.649 -12.439  0.00  0.00    +0.211 HD
ENDBRANCH  31  32
ENDBRANCH  22  31
ENDBRANCH  18  24
ENDBRANCH   1  18
TORSDOF 10
ENDMDL
MODEL 5
REMARK VINA RESULT:     -10.4      2.026      3.554
REMARK  Name = 445579
REMARK  10 active torsions:
REMARK  status: ('A' for Active; 'I' for Inactive)
REMARK    1  A    between atoms: C_1  and  O_18
REMARK    2  A    between atoms: C_4  and  C_9
REMARK    3  A    between atoms: N_8  and  C_11
REMARK    4  A    between atoms: C_11  and  C_12
REMARK    5  A    between atoms: O_18  and  C_24
REMARK    6  A    between atoms: C_20  and  O_27
REMARK    7  A    between atoms: C_21  and  O_25
REMARK    8  A    between atoms: C_22  and  C_31
REMARK    9  A    between atoms: C_23  and  O_29
REMARK   10  A    between atoms: C_31  and  O_32
REMARK                            x       y       z     vdW  Elec       q    Type
REMARK                         _______ _______ _______ _____ _____    ______ ____
ROOT
ATOM      1  C   UNL     1      35.135 -22.779 -17.148  0.00  0.00    +0.142 C 
ATOM      2  C   UNL     1      35.991 -22.088 -18.000  0.00  0.00    +0.042 C 
ATOM      3  C   UNL     1      33.833 -23.075 -17.541  0.00  0.00    +0.037 C 
ATOM      4  C   UNL     1      35.539 -21.686 -19.258  0.00  0.00    +0.056 C 
ATOM      5  C   UNL     1      33.383 -22.674 -18.799  0.00  0.00    +0.003 C 
ATOM      6  C   UNL     1      34.235 -21.980 -19.657  0.00  0.00    +0.005 C 
ENDROOT
BRANCH   4   9
ATOM      7  O   UNL     1      37.546 -21.403 -20.461  0.00  0.00    -0.270 OA
ATOM      8  N   UNL     1      35.939 -19.764 -20.670  0.00  0.00    -0.297 N 
ATOM      9  C   UNL     1      36.429 -20.964 -20.153  0.00  0.00    +0.246 C 
ATOM     10  H   UNL     1      35.043 -19.460 -20.392  0.00  0.00    +0.150 HD
BRANCH   8  11
ATOM     11  C   UNL     1      36.690 -18.947 -21.596  0.00  0.00    +0.117 C 
BRANCH  11  12
ATOM     12  C   UNL     1      35.892 -18.608 -22.821  0.00  0.00    -0.003 C 
ATOM     13  C   UNL     1      35.827 -17.289 -23.257  0.00  0.00    -0.003 C 
ATOM     14  C   UNL     1      35.225 -19.616 -23.509  0.00  0.00    -0.003 C 
ATOM     15  C   UNL     1      35.085 -16.974 -24.396  0.00  0.00    -0.000 C 
ATOM     16  C   UNL     1      34.485 -19.301 -24.648  0.00  0.00    -0.000 C 
ATOM     17  C   UNL     1      34.415 -17.980 -25.091  0.00  0.00    -0.000 C 
ENDBRANCH  11  12
ENDBRANCH   8  11
ENDBRANCH   4   9
BRANCH   1  18
ATOM     18  O   UNL     1      35.578 -23.172 -15.914  0.00  0.00    -0.451 OA
BRANCH  18  24
ATOM     19  O   UNL     1      36.462 -25.343 -15.590  0.00  0.00    -0.316 OA
ATOM     20  C   UNL     1      36.984 -24.998 -13.228  0.00  0.00    +0.169 C 
ATOM     21  C   UNL     1      35.720 -24.145 -13.081  0.00  0.00    +0.173 C 
ATOM     22  C   UNL     1      37.494 -24.947 -14.674  0.00  0.00    +0.177 C 
ATOM     23  C   UNL     1      34.685 -24.552 -14.130  0.00  0.00    +0.210 C 
ATOM     24  C   UNL     1      35.296 -24.518 -15.533  0.00  0.00    +0.318 C 
BRANCH  21  25
ATOM     25  O   UNL     1      35.165 -24.317 -11.781  0.00  0.00    -0.379 OA
ATOM     26  H   UNL     1      35.872 -24.276 -11.118  0.00  0.00    +0.211 HD
ENDBRANCH  21  25
BRANCH  20  27
ATOM     27  O   UNL     1      36.688 -26.354 -12.890  0.00  0.00    -0.379 OA
ATOM     28  H   UNL     1      37.469 -26.765 -12.486  0.00  0.00    +0.211 HD
ENDBRANCH  20  27
BRANCH  23  29
ATOM     29  O   UNL     1      33.564 -23.675 -14.084  0.00  0.00    -0.377 OA
ATOM     30  H   UNL     1      33.814 -22.853 -13.633  0.00  0.00    +0.211 HD
ENDBRANCH  23  29
BRANCH  22  31
ATOM     31  C   UNL     1      38.682 -25.874 -14.904  0.00  0.00    +0.169 C 
BRANCH  31  32
ATOM     32  O   UNL     1      38.205 -27.204 -15.005  0.00  0.00    -0.379 OA
ATOM     33  H   UNL     1      37.244 -27.214 -14.876  0.00  0.00    +0.211 HD
ENDBRANCH  31  32
ENDBRANCH  22  31
ENDBRANCH  18  24
ENDBRANCH   1  18
TORSDOF 10
ENDMDL
MODEL 6
REMARK VINA RESULT:     -10.3      1.715      2.370
REMARK  Name = 445579
REMARK  10 active torsions:
REMARK  status: ('A' for Active; 'I' for Inactive)
REMARK    1  A    between atoms: C_1  and  O_18
REMARK    2  A    between atoms: C_4  and  C_9
REMARK    3  A    between atoms: N_8  and  C_11
REMARK    4  A    between atoms: C_11  and  C_12
REMARK    5  A    between atoms: O_18  and  C_24
REMARK    6  A    between atoms: C_20  and  O_27
REMARK    7  A    between atoms: C_21  and  O_25
REMARK    8  A    between atoms: C_22  and  C_31
REMARK    9  A    between atoms: C_23  and  O_29
REMARK   10  A    between atoms: C_31  and  O_32
REMARK                            x       y       z     vdW  Elec       q    Type
REMARK                         _______ _______ _______ _____ _____    ______ ____
ROOT
ATOM      1  C   UNL     1      33.896 -24.389 -14.507  0.00  0.00    +0.142 C 
ATOM      2  C   UNL     1      33.551 -23.676 -15.651  0.00  0.00    +0.042 C 
ATOM      3  C   UNL     1      32.913 -24.994 -13.729  0.00  0.00    +0.037 C 
ATOM      4  C   UNL     1      32.211 -23.567 -16.021  0.00  0.00    +0.056 C 
ATOM      5  C   UNL     1      31.573 -24.885 -14.100  0.00  0.00    +0.003 C 
ATOM      6  C   UNL     1      31.222 -24.172 -15.246  0.00  0.00    +0.005 C 
ENDROOT
BRANCH   4   9
ATOM      7  O   UNL     1      30.690 -22.419 -17.409  0.00  0.00    -0.270 OA
ATOM      8  N   UNL     1      32.878 -22.566 -18.120  0.00  0.00    -0.297 N 
ATOM      9  C   UNL     1      31.845 -22.824 -17.217  0.00  0.00    +0.246 C 
ATOM     10  H   UNL     1      33.779 -22.911 -17.919  0.00  0.00    +0.150 HD
BRANCH   8  11
ATOM     11  C   UNL     1      32.681 -21.814 -19.338  0.00  0.00    +0.117 C 
BRANCH  11  12
ATOM     12  C   UNL     1      33.974 -21.285 -19.887  0.00  0.00    -0.003 C 
ATOM     13  C   UNL     1      33.953 -20.286 -20.854  0.00  0.00    -0.003 C 
ATOM     14  C   UNL     1      35.180 -21.801 -19.426  0.00  0.00    -0.003 C 
ATOM     15  C   UNL     1      35.155 -19.796 -21.366  0.00  0.00    -0.000 C 
ATOM     16  C   UNL     1      36.381 -21.309 -19.937  0.00  0.00    -0.000 C 
ATOM     17  C   UNL     1      36.369 -20.307 -20.907  0.00  0.00    -0.000 C 
ENDBRANCH  11  12
ENDBRANCH   8  11
ENDBRANCH   4   9
BRANCH   1  18
ATOM     18  O   UNL     1      35.211 -24.496 -14.144  0.00  0.00    -0.451 OA
BRANCH  18  24
ATOM     19  O   UNL     1      36.591 -24.373 -16.062  0.00  0.00    -0.316 OA
ATOM     20  C   UNL     1      38.635 -23.900 -14.809  0.00  0.00    +0.169 C 
ATOM     21  C   UNL     1      38.156 -24.831 -13.691  0.00  0.00    +0.173 C 
ATOM     22  C   UNL     1      37.435 -23.321 -15.569  0.00  0.00    +0.177 C 
ATOM     23  C   UNL     1      37.198 -25.881 -14.253  0.00  0.00    +0.210 C 
ATOM     24  C   UNL     1      36.063 -25.215 -15.033  0.00  0.00    +0.318 C 
BRANCH  21  25
ATOM     25  O   UNL     1      39.270 -25.484 -13.090  0.00  0.00    -0.379 OA
ATOM     26  H   UNL     1      40.020 -25.480 -13.706  0.00  0.00    +0.211 HD
ENDBRANCH  21  25
BRANCH  20  27
ATOM     27  O   UNL     1      39.452 -24.634 -15.725  0.00  0.00    -0.379 OA
ATOM     28  H   UNL     1      39.395 -24.229 -16.605  0.00  0.00    +0.211 HD
ENDBRANCH  20  27
BRANCH  23  29
ATOM     29  O   UNL     1      36.648 -26.664 -13.198  0.00  0.00    -0.377 OA
ATOM     30  H   UNL     1      37.343 -27.222 -12.814  0.00  0.00    +0.211 HD
ENDBRANCH  23  29
BRANCH  22  31
ATOM     31  C   UNL     1      37.857 -22.482 -16.770  0.00  0.00    +0.169 C 
BRANCH  31  32
ATOM     32  O   UNL     1      37.457 -21.141 -16.548  0.00  0.00    -0.379 OA
ATOM     33  H   UNL     1      37.844 -20.571 -17.230  0.00  0.00    +0.211 HD
ENDBRANCH  31  32
ENDBRANCH  22  31
ENDBRANCH  18  24
ENDBRANCH   1  18
TORSDOF 10
ENDMDL
MODEL 7
REMARK VINA RESULT:     -10.0     10.636     14.586
REMARK  Name = 445579
REMARK  10 active torsions:
REMARK  status: ('A' for Active; 'I' for Inactive)
REMARK    1  A    between atoms: C_1  and  O_18
REMARK    2  A    between atoms: C_4  and  C_9
REMARK    3  A    between atoms: N_8  and  C_11
REMARK    4  A    between atoms: C_11  and  C_12
REMARK    5  A    between atoms: O_18  and  C_24
REMARK    6  A    between atoms: C_20  and  O_27
REMARK    7  A    between atoms: C_21  and  O_25
REMARK    8  A    between atoms: C_22  and  C_31
REMARK    9  A    between atoms: C_23  and  O_29
REMARK   10  A    between atoms: C_31  and  O_32
REMARK                            x       y       z     vdW  Elec       q    Type
REMARK                         _______ _______ _______ _____ _____    ______ ____
ROOT
ATOM      1  C   UNL     1      32.405 -11.934 -22.128  0.00  0.00    +0.142 C 
ATOM      2  C   UNL     1      32.526 -10.548 -22.112  0.00  0.00    +0.042 C 
ATOM      3  C   UNL     1      31.933 -12.615 -21.010  0.00  0.00    +0.037 C 
ATOM      4  C   UNL     1      32.172  -9.835 -20.966  0.00  0.00    +0.056 C 
ATOM      5  C   UNL     1      31.579 -11.902 -19.865  0.00  0.00    +0.003 C 
ATOM      6  C   UNL     1      31.698 -10.513 -19.842  0.00  0.00    +0.005 C 
ENDROOT
BRANCH   4   9
ATOM      7  O   UNL     1      32.734  -7.782 -19.955  0.00  0.00    -0.270 OA
ATOM      8  N   UNL     1      31.924  -7.720 -22.112  0.00  0.00    -0.297 N 
ATOM      9  C   UNL     1      32.296  -8.386 -20.943  0.00  0.00    +0.246 C 
ATOM     10  H   UNL     1      31.583  -8.249 -22.870  0.00  0.00    +0.150 HD
BRANCH   8  11
ATOM     11  C   UNL     1      32.020  -6.285 -22.257  0.00  0.00    +0.117 C 
BRANCH  11  12
ATOM     12  C   UNL     1      32.826  -5.894 -23.461  0.00  0.00    -0.003 C 
ATOM     13  C   UNL     1      34.042  -6.523 -23.708  0.00  0.00    -0.003 C 
ATOM     14  C   UNL     1      32.351  -4.907 -24.317  0.00  0.00    -0.003 C 
ATOM     15  C   UNL     1      34.792  -6.159 -24.827  0.00  0.00    -0.000 C 
ATOM     16  C   UNL     1      33.101  -4.545 -25.436  0.00  0.00    -0.000 C 
ATOM     17  C   UNL     1      34.321  -5.170 -25.691  0.00  0.00    -0.000 C 
ENDBRANCH  11  12
ENDBRANCH   8  11
ENDBRANCH   4   9
BRANCH   1  18
ATOM     18  O   UNL     1      32.752 -12.632 -23.252  0.00  0.00    -0.451 OA
BRANCH  18  24
ATOM     19  O   UNL     1      34.806 -13.592 -22.575  0.00  0.00    -0.316 OA
ATOM     20  C   UNL     1      34.569 -15.583 -23.973  0.00  0.00    +0.169 C 
ATOM     21  C   UNL     1      33.903 -14.731 -25.059  0.00  0.00    +0.173 C 
ATOM     22  C   UNL     1      34.346 -14.953 -22.592  0.00  0.00    +0.177 C 
ATOM     23  C   UNL     1      34.363 -13.278 -24.946  0.00  0.00    +0.210 C 
ATOM     24  C   UNL     1      34.147 -12.752 -23.526  0.00  0.00    +0.318 C 
BRANCH  21  25
ATOM     25  O   UNL     1      34.241 -15.234 -26.348  0.00  0.00    -0.379 OA
ATOM     26  H   UNL     1      35.148 -15.578 -26.334  0.00  0.00    +0.211 HD
ENDBRANCH  21  25
BRANCH  20  27
ATOM     27  O   UNL     1      35.974 -15.663 -24.224  0.00  0.00    -0.379 OA
ATOM     28  H   UNL     1      36.183 -15.189 -25.045  0.00  0.00    +0.211 HD
ENDBRANCH  20  27
BRANCH  23  29
ATOM     29  O   UNL     1      33.647 -12.460 -25.866  0.00  0.00    -0.377 OA
ATOM     30  H   UNL     1      33.906 -12.689 -26.772  0.00  0.00    +0.211 HD
ENDBRANCH  23  29
BRANCH  22  31
ATOM     31  C   UNL     1      35.090 -15.695 -21.488  0.00  0.00    +0.169 C 
BRANCH  31  32
ATOM     32  O   UNL     1      35.325 -17.025 -21.916  0.00  0.00    -0.379 OA
ATOM     33  H   UNL     1      35.939 -17.458 -21.304  0.00  0.00    +0.211 HD
ENDBRANCH  31  32
ENDBRANCH  22  31
ENDBRANCH  18  24
ENDBRANCH   1  18
TORSDOF 10
ENDMDL
MODEL 8
REMARK VINA RESULT:      -9.9      1.447      2.942
REMARK  Name = 445579
REMARK  10 active torsions:
REMARK  status: ('A' for Active; 'I' for Inactive)
REMARK    1  A    between atoms: C_1  and  O_18
REMARK    2  A    between atoms: C_4  and  C_9
REMARK    3  A    between atoms: N_8  and  C_11
REMARK    4  A    between atoms: C_11  and  C_12
REMARK    5  A    between atoms: O_18  and  C_24
REMARK    6  A    between atoms: C_20  and  O_27
REMARK    7  A    between atoms: C_21  and  O_25
REMARK    8  A    between atoms: C_22  and  C_31
REMARK    9  A    between atoms: C_23  and  O_29
REMARK   10  A    between atoms: C_31  and  O_32
REMARK                            x       y       z     vdW  Elec       q    Type
REMARK                         _______ _______ _______ _____ _____    ______ ____
ROOT
ATOM      1  C   UNL     1      34.100 -23.920 -14.324  0.00  0.00    +0.142 C 
ATOM      2  C   UNL     1      33.738 -23.323 -15.528  0.00  0.00    +0.042 C 
ATOM      3  C   UNL     1      33.157 -24.605 -13.564  0.00  0.00    +0.037 C 
ATOM      4  C   UNL     1      32.419 -23.409 -15.974  0.00  0.00    +0.056 C 
ATOM      5  C   UNL     1      31.839 -24.692 -14.011  0.00  0.00    +0.003 C 
ATOM      6  C   UNL     1      31.469 -24.094 -15.216  0.00  0.00    +0.005 C 
ENDROOT
BRANCH   4   9
ATOM      7  O   UNL     1      30.868 -22.440 -17.461  0.00  0.00    -0.270 OA
ATOM      8  N   UNL     1      33.063 -22.574 -18.150  0.00  0.00    -0.297 N 
ATOM      9  C   UNL     1      32.034 -22.787 -17.231  0.00  0.00    +0.246 C 
ATOM     10  H   UNL     1      33.974 -22.868 -17.917  0.00  0.00    +0.150 HD
BRANCH   8  11
ATOM     11  C   UNL     1      32.847 -21.938 -19.430  0.00  0.00    +0.117 C 
BRANCH  11  12
ATOM     12  C   UNL     1      34.091 -21.274 -19.945  0.00  0.00    -0.003 C 
ATOM     13  C   UNL     1      35.335 -21.698 -19.491  0.00  0.00    -0.003 C 
ATOM     14  C   UNL     1      33.988 -20.241 -20.871  0.00  0.00    -0.003 C 
ATOM     15  C   UNL     1      36.492 -21.080 -19.969  0.00  0.00    -0.000 C 
ATOM     16  C   UNL     1      35.144 -19.625 -21.349  0.00  0.00    -0.000 C 
ATOM     17  C   UNL     1      36.396 -20.045 -20.898  0.00  0.00    -0.000 C 
ENDBRANCH  11  12
ENDBRANCH   8  11
ENDBRANCH   4   9
BRANCH   1  18
ATOM     18  O   UNL     1      35.393 -23.835 -13.887  0.00  0.00    -0.451 OA
BRANCH  18  24
ATOM     19  O   UNL     1      36.252 -26.028 -13.652  0.00  0.00    -0.316 OA
ATOM     20  C   UNL     1      38.594 -25.331 -13.680  0.00  0.00    +0.169 C 
ATOM     21  C   UNL     1      38.218 -24.064 -12.906  0.00  0.00    +0.173 C 
ATOM     22  C   UNL     1      37.395 -25.830 -14.498  0.00  0.00    +0.177 C 
ATOM     23  C   UNL     1      36.951 -24.302 -12.087  0.00  0.00    +0.210 C 
ATOM     24  C   UNL     1      35.827 -24.842 -12.974  0.00  0.00    +0.318 C 
BRANCH  21  25
ATOM     25  O   UNL     1      39.281 -23.693 -12.033  0.00  0.00    -0.379 OA
ATOM     26  H   UNL     1      39.207 -24.191 -11.204  0.00  0.00    +0.211 HD
ENDBRANCH  21  25
BRANCH  20  27
ATOM     27  O   UNL     1      38.984 -26.354 -12.761  0.00  0.00    -0.379 OA
ATOM     28  H   UNL     1      39.804 -26.770 -13.069  0.00  0.00    +0.211 HD
ENDBRANCH  20  27
BRANCH  23  29
ATOM     29  O   UNL     1      36.524 -23.091 -11.472  0.00  0.00    -0.377 OA
ATOM     30  H   UNL     1      35.646 -22.850 -11.808  0.00  0.00    +0.211 HD
ENDBRANCH  23  29
BRANCH  22  31
ATOM     31  C   UNL     1      37.678 -27.157 -15.192  0.00  0.00    +0.169 C 
BRANCH  31  32
ATOM     32  O   UNL     1      36.986 -27.177 -16.429  0.00  0.00    -0.379 OA
ATOM     33  H   UNL     1      36.883 -26.270 -16.756  0.00  0.00    +0.211 HD
ENDBRANCH  31  32
ENDBRANCH  22  31
ENDBRANCH  18  24
ENDBRANCH   1  18
TORSDOF 10
ENDMDL
MODEL 9
REMARK VINA RESULT:      -9.8      2.685      5.647
REMARK  Name = 445579
REMARK  10 active torsions:
REMARK  status: ('A' for Active; 'I' for Inactive)
REMARK    1  A    between atoms: C_1  and  O_18
REMARK    2  A    between atoms: C_4  and  C_9
REMARK    3  A    between atoms: N_8  and  C_11
REMARK    4  A    between atoms: C_11  and  C_12
REMARK    5  A    between atoms: O_18  and  C_24
REMARK    6  A    between atoms: C_20  and  O_27
REMARK    7  A    between atoms: C_21  and  O_25
REMARK    8  A    between atoms: C_22  and  C_31
REMARK    9  A    between atoms: C_23  and  O_29
REMARK   10  A    between atoms: C_31  and  O_32
REMARK                            x       y       z     vdW  Elec       q    Type
REMARK                         _______ _______ _______ _____ _____    ______ ____
ROOT
ATOM      1  C   UNL     1      34.437 -24.292 -14.281  0.00  0.00    +0.142 C 
ATOM      2  C   UNL     1      35.088 -23.786 -15.403  0.00  0.00    +0.042 C 
ATOM      3  C   UNL     1      35.066 -24.292 -13.040  0.00  0.00    +0.037 C 
ATOM      4  C   UNL     1      36.381 -23.276 -15.281  0.00  0.00    +0.056 C 
ATOM      5  C   UNL     1      36.358 -23.782 -12.919  0.00  0.00    +0.003 C 
ATOM      6  C   UNL     1      37.016 -23.274 -14.039  0.00  0.00    +0.005 C 
ENDROOT
BRANCH   4   9
ATOM      7  O   UNL     1      38.300 -22.662 -16.503  0.00  0.00    -0.270 OA
ATOM      8  N   UNL     1      36.252 -22.367 -17.519  0.00  0.00    -0.297 N 
ATOM      9  C   UNL     1      37.065 -22.746 -16.450  0.00  0.00    +0.246 C 
ATOM     10  H   UNL     1      35.275 -22.455 -17.424  0.00  0.00    +0.150 HD
BRANCH   8  11
ATOM     11  C   UNL     1      36.783 -21.852 -18.760  0.00  0.00    +0.117 C 
BRANCH  11  12
ATOM     12  C   UNL     1      35.707 -21.284 -19.639  0.00  0.00    -0.003 C 
ATOM     13  C   UNL     1      34.384 -21.664 -19.441  0.00  0.00    -0.003 C 
ATOM     14  C   UNL     1      36.043 -20.383 -20.644  0.00  0.00    -0.003 C 
ATOM     15  C   UNL     1      33.384 -21.136 -20.258  0.00  0.00    -0.000 C 
ATOM     16  C   UNL     1      35.043 -19.855 -21.460  0.00  0.00    -0.000 C 
ATOM     17  C   UNL     1      33.714 -20.232 -21.267  0.00  0.00    -0.000 C 
ENDBRANCH  11  12
ENDBRANCH   8  11
ENDBRANCH   4   9
BRANCH   1  18
ATOM     18  O   UNL     1      33.169 -24.792 -14.400  0.00  0.00    -0.451 OA
BRANCH  18  24
ATOM     19  O   UNL     1      31.748 -22.988 -14.968  0.00  0.00    -0.316 OA
ATOM     20  C   UNL     1      29.979 -24.405 -15.883  0.00  0.00    +0.169 C 
ATOM     21  C   UNL     1      30.272 -25.453 -14.805  0.00  0.00    +0.173 C 
ATOM     22  C   UNL     1      31.237 -23.576 -16.175  0.00  0.00    +0.177 C 
ATOM     23  C   UNL     1      30.888 -24.787 -13.575  0.00  0.00    +0.210 C 
ATOM     24  C   UNL     1      32.105 -23.946 -13.969  0.00  0.00    +0.318 C 
BRANCH  21  25
ATOM     25  O   UNL     1      29.068 -26.114 -14.428  0.00  0.00    -0.379 OA
ATOM     26  H   UNL     1      29.137 -26.413 -13.508  0.00  0.00    +0.211 HD
ENDBRANCH  21  25
BRANCH  20  27
ATOM     27  O   UNL     1      28.944 -23.529 -15.429  0.00  0.00    -0.379 OA
ATOM     28  H   UNL     1      28.099 -23.795 -15.826  0.00  0.00    +0.211 HD
ENDBRANCH  20  27
BRANCH  23  29
ATOM     29  O   UNL     1      31.284 -25.771 -12.625  0.00  0.00    -0.377 OA
ATOM     30  H   UNL     1      32.023 -26.288 -12.984  0.00  0.00    +0.211 HD
ENDBRANCH  23  29
BRANCH  22  31
ATOM     31  C   UNL     1      30.970 -22.439 -17.154  0.00  0.00    +0.169 C 
BRANCH  31  32
ATOM     32  O   UNL     1      29.582 -22.402 -17.436  0.00  0.00    -0.379 OA
ATOM     33  H   UNL     1      29.189 -21.618 -17.026  0.00  0.00    +0.211 HD
ENDBRANCH  31  32
ENDBRANCH  22  31
ENDBRANCH  18  24
ENDBRANCH   1  18
TORSDOF 10
ENDMDL
