MODEL 1
REMARK VINA RESULT:     -11.8      0.000      0.000
REMARK  Name = 158376
REMARK  11 active torsions:
REMARK  status: ('A' for Active; 'I' for Inactive)
REMARK    1  A    between atoms: C_1  and  N_22
REMARK    2  A    between atoms: C_2  and  C_9
REMARK    3  A    between atoms: N_8  and  CA_11
REMARK    4  A    between atoms: CA_11  and  C_13
REMARK    5  A    between atoms: CA_11  and  CB_16
REMARK    6  A    between atoms: C_13  and  O_14
REMARK    7  A    between atoms: CB_16  and  CG_17
REMARK    8  A    between atoms: CG_17  and  CD_19
REMARK    9  A    between atoms: CD_19  and  OE1_20
REMARK   10  A    between atoms: N_22  and  C_24
REMARK   11  A    between atoms: C_24  and  C_29
REMARK                            x       y       z     vdW  Elec       q    Type
REMARK                         _______ _______ _______ _____ _____    ______ ____
ROOT
ATOM      1  C   UNL     1      35.786 -19.592 -21.294  0.00  0.00    +0.048 C 
ATOM      2  C   UNL     1      34.719 -21.710 -19.825  0.00  0.00    +0.053 C 
ATOM      3  C   UNL     1      36.633 -20.444 -20.585  0.00  0.00    +0.015 C 
ATOM      4  C   UNL     1      34.407 -19.798 -21.269  0.00  0.00    +0.015 C 
ATOM      5  C   UNL     1      36.099 -21.503 -19.851  0.00  0.00    +0.006 C 
ATOM      6  C   UNL     1      33.874 -20.857 -20.533  0.00  0.00    +0.006 C 
ENDROOT
BRANCH   2   9
ATOM      7  O   UNL     1      33.935 -23.909 -19.605  0.00  0.00    -0.270 OA
ATOM      8  N   UNL     1      33.926 -22.591 -17.695  0.00  0.00    -0.293 N 
ATOM      9  C   ACE A   0      34.151 -22.838 -19.043  0.00  0.00    +0.246 C 
ATOM     10  H   UNL     1      34.131 -21.698 -17.337  0.00  0.00    +0.150 HD
BRANCH   8  11
ATOM     11  CA  UNL     1      33.403 -23.592 -16.801  0.00  0.00    +0.172 C 
BRANCH  11  13
ATOM     12  OXT UNL     1      31.772 -22.984 -15.097  0.00  0.00    -0.248 OA
ATOM     13  C   UNL     1      32.071 -23.091 -16.280  0.00  0.00    +0.332 C 
BRANCH  13  14
ATOM     14  O   UNL     1      31.236 -22.728 -17.289  0.00  0.00    -0.479 OA
ATOM     15  H   UNL     1      30.322 -22.615 -17.122  0.00  0.00    +0.295 HD
ENDBRANCH  13  14
ENDBRANCH  11  13
BRANCH  11  16
ATOM     16  CB  UNL     1      34.395 -23.977 -15.696  0.00  0.00    +0.043 C 
BRANCH  16  17
ATOM     17  CG  UNL     1      35.562 -23.007 -15.479  0.00  0.00    +0.112 C 
BRANCH  17  19
ATOM     18  OE2 UNL     1      37.952 -23.158 -15.029  0.00  0.00    -0.250 OA
ATOM     19  CD  UNL     1      36.912 -23.685 -15.399  0.00  0.00    +0.314 C 
BRANCH  19  20
ATOM     20  OE1 UNL     1      36.852 -24.973 -15.831  0.00  0.00    -0.480 OA
ATOM     21  HE1 UNL     1      37.204 -25.202 -16.669  0.00  0.00    +0.295 HD
ENDBRANCH  19  20
ENDBRANCH  17  19
ENDBRANCH  16  17
ENDBRANCH  11  16
ENDBRANCH   8  11
ENDBRANCH   2   9
BRANCH   1  22
ATOM     22  N   UNL     1      36.325 -18.522 -22.038  0.00  0.00    -0.302 N 
ATOM     23  C   UNL     1      37.684 -18.586 -22.538  0.00  0.00    +0.112 C 
BRANCH  22  24
ATOM     24  C   UNL     1      35.522 -17.349 -22.325  0.00  0.00    +0.118 C 
BRANCH  24  29
ATOM     25  O   UNL     1      34.503 -17.757 -25.855  0.00  0.00    -0.427 OA
ATOM     26  N   UNL     1      33.853 -15.612 -26.680  0.00  0.00    -0.294 NA
ATOM     27  N   UNL     1      34.036 -13.828 -25.032  0.00  0.00    -0.317 NA
ATOM     28  N   UNL     1      33.283 -13.405 -27.208  0.00  0.00    -0.283 N 
ATOM     29  C   UNL     1      35.057 -17.213 -23.742  0.00  0.00    +0.031 C 
ATOM     30  C   UNL     1      34.636 -16.035 -24.405  0.00  0.00    +0.180 C 
ATOM     31  C   UNL     1      34.304 -16.416 -25.701  0.00  0.00    +0.281 C 
ATOM     32  C   UNL     1      34.959 -18.228 -24.666  0.00  0.00    +0.176 C 
ATOM     33  C   UNL     1      34.486 -14.686 -24.089  0.00  0.00    +0.181 C 
ATOM     34  C   UNL     1      33.750 -14.337 -26.252  0.00  0.00    +0.200 C 
ATOM     35  H   UNL     1      33.056 -13.707 -28.118  0.00  0.00    +0.156 HD
ATOM     36  H   UNL     1      33.185 -12.457 -26.964  0.00  0.00    +0.156 HD
ATOM     37  N   UNL     1      34.797 -14.204 -22.804  0.00  0.00    -0.335 N 
ATOM     38  H   UNL     1      34.685 -13.249 -22.597  0.00  0.00    +0.144 HD
ATOM     39  H   UNL     1      35.126 -14.822 -22.112  0.00  0.00    +0.144 HD
ENDBRANCH  24  29
ENDBRANCH  22  24
ENDBRANCH   1  22
TORSDOF 11
ENDMDL
MODEL 2
REMARK VINA RESULT:     -11.5      1.476      1.910
REMARK  Name = 158376
REMARK  11 active torsions:
REMARK  status: ('A' for Active; 'I' for Inactive)
REMARK    1  A    between atoms: C_1  and  N_22
REMARK    2  A    between atoms: C_2  and  C_9
REMARK    3  A    between atoms: N_8  and  CA_11
REMARK    4  A    between atoms: CA_11  and  C_13
REMARK    5  A    between atoms: CA_11  and  CB_16
REMARK    6  A    between atoms: C_13  and  O_14
REMARK    7  A    between atoms: CB_16  and  CG_17
REMARK    8  A    between atoms: CG_17  and  CD_19
REMARK    9  A    between atoms: CD_19  and  OE1_20
REMARK   10  A    between atoms: N_22  and  C_24
REMARK   11  A    between atoms: C_24  and  C_29
REMARK                            x       y       z     vdW  Elec       q    Type
REMARK                         _______ _______ _______ _____ _____    ______ ____
ROOT
ATOM      1  C   UNL     1      35.670 -19.631 -21.288  0.00  0.00    +0.048 C 
ATOM      2  C   UNL     1      34.553 -21.748 -19.855  0.00  0.00    +0.053 C 
ATOM      3  C   UNL     1      36.493 -20.495 -20.566  0.00  0.00    +0.015 C 
ATOM      4  C   UNL     1      34.289 -19.825 -21.293  0.00  0.00    +0.015 C 
ATOM      5  C   UNL     1      35.935 -21.554 -19.850  0.00  0.00    +0.006 C 
ATOM      6  C   UNL     1      33.730 -20.884 -20.576  0.00  0.00    +0.006 C 
ENDROOT
BRANCH   2   9
ATOM      7  O   UNL     1      33.986 -24.006 -19.573  0.00  0.00    -0.270 OA
ATOM      8  N   UNL     1      33.425 -22.556 -17.851  0.00  0.00    -0.293 N 
ATOM      9  C   ACE A   0      33.958 -22.876 -19.092  0.00  0.00    +0.246 C 
ATOM     10  H   UNL     1      33.450 -21.619 -17.552  0.00  0.00    +0.150 HD
BRANCH   8  11
ATOM     11  CA  UNL     1      32.836 -23.544 -16.983  0.00  0.00    +0.172 C 
BRANCH  11  13
ATOM     12  OXT UNL     1      30.811 -22.226 -17.286  0.00  0.00    -0.248 OA
ATOM     13  C   UNL     1      31.351 -23.255 -16.900  0.00  0.00    +0.332 C 
BRANCH  13  14
ATOM     14  O   UNL     1      30.660 -24.299 -16.372  0.00  0.00    -0.479 OA
ATOM     15  H   UNL     1      30.452 -24.309 -15.459  0.00  0.00    +0.295 HD
ENDBRANCH  13  14
ENDBRANCH  11  13
BRANCH  11  16
ATOM     16  CB  UNL     1      33.529 -23.622 -15.617  0.00  0.00    +0.043 C 
BRANCH  16  17
ATOM     17  CG  UNL     1      32.639 -23.347 -14.399  0.00  0.00    +0.112 C 
BRANCH  17  19
ATOM     18  OE2 UNL     1      31.320 -25.084 -13.312  0.00  0.00    -0.250 OA
ATOM     19  CD  UNL     1      32.405 -24.561 -13.527  0.00  0.00    +0.314 C 
BRANCH  19  20
ATOM     20  OE1 UNL     1      33.561 -25.000 -12.961  0.00  0.00    -0.480 OA
ATOM     21  HE1 UNL     1      33.600 -25.153 -12.037  0.00  0.00    +0.295 HD
ENDBRANCH  19  20
ENDBRANCH  17  19
ENDBRANCH  16  17
ENDBRANCH  11  16
ENDBRANCH   8  11
ENDBRANCH   2   9
BRANCH   1  22
ATOM     22  N   UNL     1      36.234 -18.561 -22.013  0.00  0.00    -0.302 N 
ATOM     23  C   UNL     1      37.602 -18.635 -22.485  0.00  0.00    +0.112 C 
BRANCH  22  24
ATOM     24  C   UNL     1      35.447 -17.380 -22.310  0.00  0.00    +0.118 C 
BRANCH  24  29
ATOM     25  O   UNL     1      34.504 -17.756 -25.864  0.00  0.00    -0.427 OA
ATOM     26  N   UNL     1      33.873 -15.604 -26.684  0.00  0.00    -0.294 NA
ATOM     27  N   UNL     1      34.022 -13.834 -25.018  0.00  0.00    -0.317 NA
ATOM     28  N   UNL     1      33.316 -13.393 -27.205  0.00  0.00    -0.283 N 
ATOM     29  C   UNL     1      35.014 -17.231 -23.735  0.00  0.00    +0.031 C 
ATOM     30  C   UNL     1      34.608 -16.047 -24.397  0.00  0.00    +0.180 C 
ATOM     31  C   UNL     1      34.303 -16.417 -25.703  0.00  0.00    +0.281 C 
ATOM     32  C   UNL     1      34.934 -18.238 -24.669  0.00  0.00    +0.176 C 
ATOM     33  C   UNL     1      34.451 -14.701 -24.072  0.00  0.00    +0.181 C 
ATOM     34  C   UNL     1      33.762 -14.333 -26.248  0.00  0.00    +0.200 C 
ATOM     35  H   UNL     1      33.109 -13.686 -28.122  0.00  0.00    +0.156 HD
ATOM     36  H   UNL     1      33.214 -12.447 -26.955  0.00  0.00    +0.156 HD
ATOM     37  N   UNL     1      34.735 -14.230 -22.777  0.00  0.00    -0.335 N 
ATOM     38  H   UNL     1      34.620 -13.276 -22.564  0.00  0.00    +0.144 HD
ATOM     39  H   UNL     1      35.049 -14.854 -22.084  0.00  0.00    +0.144 HD
ENDBRANCH  24  29
ENDBRANCH  22  24
ENDBRANCH   1  22
TORSDOF 11
ENDMDL
MODEL 3
REMARK VINA RESULT:     -11.1      1.537      2.192
REMARK  Name = 158376
REMARK  11 active torsions:
REMARK  status: ('A' for Active; 'I' for Inactive)
REMARK    1  A    between atoms: C_1  and  N_22
REMARK    2  A    between atoms: C_2  and  C_9
REMARK    3  A    between atoms: N_8  and  CA_11
REMARK    4  A    between atoms: CA_11  and  C_13
REMARK    5  A    between atoms: CA_11  and  CB_16
REMARK    6  A    between atoms: C_13  and  O_14
REMARK    7  A    between atoms: CB_16  and  CG_17
REMARK    8  A    between atoms: CG_17  and  CD_19
REMARK    9  A    between atoms: CD_19  and  OE1_20
REMARK   10  A    between atoms: N_22  and  C_24
REMARK   11  A    between atoms: C_24  and  C_29
REMARK                            x       y       z     vdW  Elec       q    Type
REMARK                         _______ _______ _______ _____ _____    ______ ____
ROOT
ATOM      1  C   UNL     1      35.520 -20.145 -20.969  0.00  0.00    +0.048 C 
ATOM      2  C   UNL     1      34.286 -22.040 -19.334  0.00  0.00    +0.053 C 
ATOM      3  C   UNL     1      36.295 -20.990 -20.175  0.00  0.00    +0.015 C 
ATOM      4  C   UNL     1      34.129 -20.247 -20.947  0.00  0.00    +0.015 C 
ATOM      5  C   UNL     1      35.678 -21.937 -19.358  0.00  0.00    +0.006 C 
ATOM      6  C   UNL     1      33.513 -21.195 -20.129  0.00  0.00    +0.006 C 
ENDROOT
BRANCH   2   9
ATOM      7  O   UNL     1      33.822 -24.243 -18.680  0.00  0.00    -0.270 OA
ATOM      8  N   UNL     1      32.848 -22.546 -17.433  0.00  0.00    -0.293 N 
ATOM      9  C   ACE A   0      33.630 -23.049 -18.464  0.00  0.00    +0.246 C 
ATOM     10  H   UNL     1      32.755 -21.570 -17.342  0.00  0.00    +0.150 HD
BRANCH   8  11
ATOM     11  CA  UNL     1      32.167 -23.397 -16.491  0.00  0.00    +0.172 C 
BRANCH  11  13
ATOM     12  OXT UNL     1      30.049 -22.604 -17.394  0.00  0.00    -0.248 OA
ATOM     13  C   UNL     1      30.721 -22.950 -16.431  0.00  0.00    +0.332 C 
BRANCH  13  14
ATOM     14  O   UNL     1      30.224 -23.010 -15.167  0.00  0.00    -0.479 OA
ATOM     15  H   UNL     1      30.219 -22.244 -14.629  0.00  0.00    +0.295 HD
ENDBRANCH  13  14
ENDBRANCH  11  13
BRANCH  11  16
ATOM     16  CB  UNL     1      32.860 -23.440 -15.123  0.00  0.00    +0.043 C 
BRANCH  16  17
ATOM     17  CG  UNL     1      33.971 -24.486 -14.969  0.00  0.00    +0.112 C 
BRANCH  17  19
ATOM     18  OE2 UNL     1      36.115 -24.214 -16.094  0.00  0.00    -0.250 OA
ATOM     19  CD  UNL     1      35.364 -23.930 -15.171  0.00  0.00    +0.314 C 
BRANCH  19  20
ATOM     20  OE1 UNL     1      35.716 -23.086 -14.166  0.00  0.00    -0.480 OA
ATOM     21  HE1 UNL     1      35.852 -22.176 -14.345  0.00  0.00    +0.295 HD
ENDBRANCH  19  20
ENDBRANCH  17  19
ENDBRANCH  16  17
ENDBRANCH  11  16
ENDBRANCH   8  11
ENDBRANCH   2   9
BRANCH   1  22
ATOM     22  N   UNL     1      36.143 -19.188 -21.797  0.00  0.00    -0.302 N 
ATOM     23  C   UNL     1      37.566 -18.934 -21.683  0.00  0.00    +0.112 C 
BRANCH  22  24
ATOM     24  C   UNL     1      35.372 -18.456 -22.782  0.00  0.00    +0.118 C 
BRANCH  24  29
ATOM     25  O   UNL     1      34.937 -15.084 -21.331  0.00  0.00    -0.427 OA
ATOM     26  N   UNL     1      34.491 -13.569 -23.122  0.00  0.00    -0.294 NA
ATOM     27  N   UNL     1      34.448 -14.626 -25.316  0.00  0.00    -0.317 NA
ATOM     28  N   UNL     1      34.077 -12.329 -25.062  0.00  0.00    -0.283 N 
ATOM     29  C   UNL     1      35.151 -17.005 -22.485  0.00  0.00    +0.031 C 
ATOM     30  C   UNL     1      34.876 -15.965 -23.406  0.00  0.00    +0.180 C 
ATOM     31  C   UNL     1      34.753 -14.801 -22.652  0.00  0.00    +0.281 C 
ATOM     32  C   UNL     1      35.177 -16.418 -21.241  0.00  0.00    +0.176 C 
ATOM     33  C   UNL     1      34.713 -15.841 -24.784  0.00  0.00    +0.181 C 
ATOM     34  C   UNL     1      34.355 -13.580 -24.464  0.00  0.00    +0.200 C 
ATOM     35  H   UNL     1      33.996 -11.524 -24.502  0.00  0.00    +0.156 HD
ATOM     36  H   UNL     1      33.965 -12.264 -26.038  0.00  0.00    +0.156 HD
ATOM     37  N   UNL     1      34.818 -16.961 -25.629  0.00  0.00    -0.335 N 
ATOM     38  H   UNL     1      34.700 -16.857 -26.601  0.00  0.00    +0.144 HD
ATOM     39  H   UNL     1      35.010 -17.849 -25.250  0.00  0.00    +0.144 HD
ENDBRANCH  24  29
ENDBRANCH  22  24
ENDBRANCH   1  22
TORSDOF 11
ENDMDL
MODEL 4
REMARK VINA RESULT:     -11.0      2.156      3.125
REMARK  Name = 158376
REMARK  11 active torsions:
REMARK  status: ('A' for Active; 'I' for Inactive)
REMARK    1  A    between atoms: C_1  and  N_22
REMARK    2  A    between atoms: C_2  and  C_9
REMARK    3  A    between atoms: N_8  and  CA_11
REMARK    4  A    between atoms: CA_11  and  C_13
REMARK    5  A    between atoms: CA_11  and  CB_16
REMARK    6  A    between atoms: C_13  and  O_14
REMARK    7  A    between atoms: CB_16  and  CG_17
REMARK    8  A    between atoms: CG_17  and  CD_19
REMARK    9  A    between atoms: CD_19  and  OE1_20
REMARK   10  A    between atoms: N_22  and  C_24
REMARK   11  A    between atoms: C_24  and  C_29
REMARK                            x       y       z     vdW  Elec       q    Type
REMARK                         _______ _______ _______ _____ _____    ______ ____
ROOT
ATOM      1  C   UNL     1      35.457 -20.089 -21.013  0.00  0.00    +0.048 C 
ATOM      2  C   UNL     1      34.181 -21.985 -19.413  0.00  0.00    +0.053 C 
ATOM      3  C   UNL     1      34.063 -20.151 -20.983  0.00  0.00    +0.015 C 
ATOM      4  C   UNL     1      36.212 -20.974 -20.244  0.00  0.00    +0.015 C 
ATOM      5  C   UNL     1      33.426 -21.099 -20.182  0.00  0.00    +0.006 C 
ATOM      6  C   UNL     1      35.573 -21.922 -19.444  0.00  0.00    +0.006 C 
ENDROOT
BRANCH   2   9
ATOM      7  O   UNL     1      33.788 -24.181 -18.692  0.00  0.00    -0.270 OA
ATOM      8  N   UNL     1      32.587 -22.497 -17.642  0.00  0.00    -0.293 N 
ATOM      9  C   ACE A   0      33.501 -22.994 -18.561  0.00  0.00    +0.246 C 
ATOM     10  H   UNL     1      32.424 -21.527 -17.613  0.00  0.00    +0.150 HD
BRANCH   8  11
ATOM     11  CA  UNL     1      31.866 -23.347 -16.728  0.00  0.00    +0.172 C 
BRANCH  11  13
ATOM     12  OXT UNL     1      29.620 -22.715 -17.427  0.00  0.00    -0.248 OA
ATOM     13  C   UNL     1      30.479 -22.763 -16.556  0.00  0.00    +0.332 C 
BRANCH  13  14
ATOM     14  O   UNL     1      30.269 -22.320 -15.288  0.00  0.00    -0.479 OA
ATOM     15  H   UNL     1      30.600 -21.485 -15.023  0.00  0.00    +0.295 HD
ENDBRANCH  13  14
ENDBRANCH  11  13
BRANCH  11  16
ATOM     16  CB  UNL     1      32.614 -23.568 -15.408  0.00  0.00    +0.043 C 
BRANCH  16  17
ATOM     17  CG  UNL     1      32.446 -24.951 -14.768  0.00  0.00    +0.112 C 
BRANCH  17  19
ATOM     18  OE2 UNL     1      30.899 -24.496 -12.941  0.00  0.00    -0.250 OA
ATOM     19  CD  UNL     1      31.170 -25.103 -13.969  0.00  0.00    +0.314 C 
BRANCH  19  20
ATOM     20  OE1 UNL     1      30.349 -26.041 -14.510  0.00  0.00    -0.480 OA
ATOM     21  HE1 UNL     1      29.584 -25.778 -14.981  0.00  0.00    +0.295 HD
ENDBRANCH  19  20
ENDBRANCH  17  19
ENDBRANCH  16  17
ENDBRANCH  11  16
ENDBRANCH   8  11
ENDBRANCH   2   9
BRANCH   1  22
ATOM     22  N   UNL     1      36.102 -19.130 -21.821  0.00  0.00    -0.302 N 
ATOM     23  C   UNL     1      37.524 -18.889 -21.680  0.00  0.00    +0.112 C 
BRANCH  22  24
ATOM     24  C   UNL     1      35.354 -18.383 -22.813  0.00  0.00    +0.118 C 
BRANCH  24  29
ATOM     25  O   UNL     1      34.903 -15.029 -21.327  0.00  0.00    -0.427 OA
ATOM     26  N   UNL     1      34.461 -13.496 -23.103  0.00  0.00    -0.294 NA
ATOM     27  N   UNL     1      34.432 -14.529 -25.309  0.00  0.00    -0.317 NA
ATOM     28  N   UNL     1      34.053 -12.235 -25.031  0.00  0.00    -0.283 N 
ATOM     29  C   UNL     1      35.128 -16.936 -22.501  0.00  0.00    +0.031 C 
ATOM     30  C   UNL     1      34.854 -15.887 -23.412  0.00  0.00    +0.180 C 
ATOM     31  C   UNL     1      34.724 -14.732 -22.646  0.00  0.00    +0.281 C 
ATOM     32  C   UNL     1      35.146 -16.363 -21.251  0.00  0.00    +0.176 C 
ATOM     33  C   UNL     1      34.698 -15.749 -24.789  0.00  0.00    +0.181 C 
ATOM     34  C   UNL     1      34.332 -13.492 -24.446  0.00  0.00    +0.200 C 
ATOM     35  H   UNL     1      33.967 -11.436 -24.462  0.00  0.00    +0.156 HD
ATOM     36  H   UNL     1      33.946 -12.160 -26.006  0.00  0.00    +0.156 HD
ATOM     37  N   UNL     1      34.810 -16.858 -25.646  0.00  0.00    -0.335 N 
ATOM     38  H   UNL     1      34.697 -16.744 -26.617  0.00  0.00    +0.144 HD
ATOM     39  H   UNL     1      35.003 -17.750 -25.276  0.00  0.00    +0.144 HD
ENDBRANCH  24  29
ENDBRANCH  22  24
ENDBRANCH   1  22
TORSDOF 11
ENDMDL
MODEL 5
REMARK VINA RESULT:     -10.8      3.772     11.185
REMARK  Name = 158376
REMARK  11 active torsions:
REMARK  status: ('A' for Active; 'I' for Inactive)
REMARK    1  A    between atoms: C_1  and  N_22
REMARK    2  A    between atoms: C_2  and  C_9
REMARK    3  A    between atoms: N_8  and  CA_11
REMARK    4  A    between atoms: CA_11  and  C_13
REMARK    5  A    between atoms: CA_11  and  CB_16
REMARK    6  A    between atoms: C_13  and  O_14
REMARK    7  A    between atoms: CB_16  and  CG_17
REMARK    8  A    between atoms: CG_17  and  CD_19
REMARK    9  A    between atoms: CD_19  and  OE1_20
REMARK   10  A    between atoms: N_22  and  C_24
REMARK   11  A    between atoms: C_24  and  C_29
REMARK                            x       y       z     vdW  Elec       q    Type
REMARK                         _______ _______ _______ _____ _____    ______ ____
ROOT
ATOM      1  C   UNL     1      34.408 -23.184 -16.593  0.00  0.00    +0.048 C 
ATOM      2  C   UNL     1      35.493 -22.057 -18.903  0.00  0.00    +0.053 C 
ATOM      3  C   UNL     1      33.659 -23.149 -17.770  0.00  0.00    +0.015 C 
ATOM      4  C   UNL     1      35.699 -22.657 -16.572  0.00  0.00    +0.015 C 
ATOM      5  C   UNL     1      34.202 -22.586 -18.924  0.00  0.00    +0.006 C 
ATOM      6  C   UNL     1      36.241 -22.093 -17.727  0.00  0.00    +0.006 C 
ENDROOT
BRANCH   2   9
ATOM      7  O   UNL     1      37.152 -21.865 -20.549  0.00  0.00    -0.270 OA
ATOM      8  N   UNL     1      35.309 -20.471 -20.744  0.00  0.00    -0.293 N 
ATOM      9  C   ACE A   0      36.071 -21.457 -20.133  0.00  0.00    +0.246 C 
ATOM     10  H   UNL     1      34.453 -20.210 -20.333  0.00  0.00    +0.150 HD
BRANCH   8  11
ATOM     11  CA  UNL     1      35.722 -19.812 -21.957  0.00  0.00    +0.172 C 
BRANCH  11  13
ATOM     12  OXT UNL     1      37.860 -18.712 -21.567  0.00  0.00    -0.248 OA
ATOM     13  C   UNL     1      36.636 -18.668 -21.569  0.00  0.00    +0.332 C 
BRANCH  13  14
ATOM     14  O   UNL     1      35.937 -17.546 -21.252  0.00  0.00    -0.479 OA
ATOM     15  H   UNL     1      35.127 -17.361 -21.683  0.00  0.00    +0.295 HD
ENDBRANCH  13  14
ENDBRANCH  11  13
BRANCH  11  16
ATOM     16  CB  UNL     1      34.538 -19.389 -22.835  0.00  0.00    +0.043 C 
BRANCH  16  17
ATOM     17  CG  UNL     1      34.815 -19.319 -24.342  0.00  0.00    +0.112 C 
BRANCH  17  19
ATOM     18  OE2 UNL     1      34.079 -17.538 -25.833  0.00  0.00    -0.250 OA
ATOM     19  CD  UNL     1      34.780 -17.915 -24.904  0.00  0.00    +0.314 C 
BRANCH  19  20
ATOM     20  OE1 UNL     1      35.667 -17.101 -24.273  0.00  0.00    -0.480 OA
ATOM     21  HE1 UNL     1      36.475 -16.876 -24.690  0.00  0.00    +0.295 HD
ENDBRANCH  19  20
ENDBRANCH  17  19
ENDBRANCH  16  17
ENDBRANCH  11  16
ENDBRANCH   8  11
ENDBRANCH   2   9
BRANCH   1  22
ATOM     22  N   UNL     1      33.860 -23.755 -15.426  0.00  0.00    -0.302 N 
ATOM     23  C   UNL     1      32.638 -23.227 -14.854  0.00  0.00    +0.112 C 
BRANCH  22  24
ATOM     24  C   UNL     1      34.506 -24.888 -14.790  0.00  0.00    +0.118 C 
BRANCH  24  29
ATOM     25  O   UNL     1      37.434 -23.634 -12.915  0.00  0.00    -0.427 OA
ATOM     26  N   UNL     1      39.299 -25.022 -13.459  0.00  0.00    -0.294 NA
ATOM     27  N   UNL     1      38.773 -26.804 -15.034  0.00  0.00    -0.317 NA
ATOM     28  N   UNL     1      40.933 -26.537 -14.173  0.00  0.00    -0.283 N 
ATOM     29  C   UNL     1      35.839 -24.610 -14.169  0.00  0.00    +0.031 C 
ATOM     30  C   UNL     1      37.051 -25.315 -14.368  0.00  0.00    +0.180 C 
ATOM     31  C   UNL     1      38.004 -24.681 -13.577  0.00  0.00    +0.281 C 
ATOM     32  C   UNL     1      36.126 -23.599 -13.281  0.00  0.00    +0.176 C 
ATOM     33  C   UNL     1      37.480 -26.413 -15.111  0.00  0.00    +0.181 C 
ATOM     34  C   UNL     1      39.590 -26.094 -14.224  0.00  0.00    +0.200 C 
ATOM     35  H   UNL     1      41.584 -26.066 -13.603  0.00  0.00    +0.156 HD
ATOM     36  H   UNL     1      41.215 -27.314 -14.706  0.00  0.00    +0.156 HD
ATOM     37  N   UNL     1      36.590 -27.119 -15.941  0.00  0.00    -0.335 N 
ATOM     38  H   UNL     1      36.909 -27.892 -16.460  0.00  0.00    +0.144 HD
ATOM     39  H   UNL     1      35.648 -26.840 -16.004  0.00  0.00    +0.144 HD
ENDBRANCH  24  29
ENDBRANCH  22  24
ENDBRANCH   1  22
TORSDOF 11
ENDMDL
MODEL 6
REMARK VINA RESULT:     -10.6      0.793      2.880
REMARK  Name = 158376
REMARK  11 active torsions:
REMARK  status: ('A' for Active; 'I' for Inactive)
REMARK    1  A    between atoms: C_1  and  N_22
REMARK    2  A    between atoms: C_2  and  C_9
REMARK    3  A    between atoms: N_8  and  CA_11
REMARK    4  A    between atoms: CA_11  and  C_13
REMARK    5  A    between atoms: CA_11  and  CB_16
REMARK    6  A    between atoms: C_13  and  O_14
REMARK    7  A    between atoms: CB_16  and  CG_17
REMARK    8  A    between atoms: CG_17  and  CD_19
REMARK    9  A    between atoms: CD_19  and  OE1_20
REMARK   10  A    between atoms: N_22  and  C_24
REMARK   11  A    between atoms: C_24  and  C_29
REMARK                            x       y       z     vdW  Elec       q    Type
REMARK                         _______ _______ _______ _____ _____    ______ ____
ROOT
ATOM      1  C   UNL     1      35.894 -19.642 -21.217  0.00  0.00    +0.048 C 
ATOM      2  C   UNL     1      35.037 -21.605 -19.428  0.00  0.00    +0.053 C 
ATOM      3  C   UNL     1      34.537 -19.952 -21.120  0.00  0.00    +0.015 C 
ATOM      4  C   UNL     1      36.822 -20.313 -20.420  0.00  0.00    +0.015 C 
ATOM      5  C   UNL     1      34.109 -20.933 -20.226  0.00  0.00    +0.006 C 
ATOM      6  C   UNL     1      36.392 -21.294 -19.526  0.00  0.00    +0.006 C 
ENDROOT
BRANCH   2   9
ATOM      7  O   UNL     1      33.970 -23.626 -18.904  0.00  0.00    -0.270 OA
ATOM      8  N   UNL     1      34.909 -22.442 -17.144  0.00  0.00    -0.293 N 
ATOM      9  C   ACE A   0      34.580 -22.649 -18.476  0.00  0.00    +0.246 C 
ATOM     10  H   UNL     1      35.401 -21.626 -16.898  0.00  0.00    +0.150 HD
BRANCH   8  11
ATOM     11  CA  UNL     1      34.558 -23.377 -16.105  0.00  0.00    +0.172 C 
BRANCH  11  13
ATOM     12  OXT UNL     1      35.457 -25.634 -15.922  0.00  0.00    -0.248 OA
ATOM     13  C   UNL     1      35.646 -24.430 -16.049  0.00  0.00    +0.332 C 
BRANCH  13  14
ATOM     14  O   UNL     1      36.884 -23.890 -16.195  0.00  0.00    -0.479 OA
ATOM     15  H   UNL     1      37.451 -23.813 -15.454  0.00  0.00    +0.295 HD
ENDBRANCH  13  14
ENDBRANCH  11  13
BRANCH  11  16
ATOM     16  CB  UNL     1      33.147 -23.953 -16.277  0.00  0.00    +0.043 C 
BRANCH  16  17
ATOM     17  CG  UNL     1      32.003 -23.089 -15.733  0.00  0.00    +0.112 C 
BRANCH  17  19
ATOM     18  OE2 UNL     1      30.290 -22.509 -17.367  0.00  0.00    -0.250 OA
ATOM     19  CD  UNL     1      30.702 -23.254 -16.488  0.00  0.00    +0.314 C 
BRANCH  19  20
ATOM     20  OE1 UNL     1      30.000 -24.331 -16.046  0.00  0.00    -0.480 OA
ATOM     21  HE1 UNL     1      29.362 -24.226 -15.368  0.00  0.00    +0.295 HD
ENDBRANCH  19  20
ENDBRANCH  17  19
ENDBRANCH  16  17
ENDBRANCH  11  16
ENDBRANCH   8  11
ENDBRANCH   2   9
BRANCH   1  22
ATOM     22  N   UNL     1      36.328 -18.649 -22.119  0.00  0.00    -0.302 N 
ATOM     23  C   UNL     1      37.594 -18.789 -22.811  0.00  0.00    +0.112 C 
BRANCH  22  24
ATOM     24  C   UNL     1      35.506 -17.484 -22.379  0.00  0.00    +0.118 C 
BRANCH  24  29
ATOM     25  O   UNL     1      34.432 -17.851 -25.897  0.00  0.00    -0.427 OA
ATOM     26  N   UNL     1      33.816 -15.689 -26.702  0.00  0.00    -0.294 NA
ATOM     27  N   UNL     1      34.057 -13.918 -25.048  0.00  0.00    -0.317 NA
ATOM     28  N   UNL     1      33.285 -13.468 -27.212  0.00  0.00    -0.283 N 
ATOM     29  C   UNL     1      35.026 -17.330 -23.789  0.00  0.00    +0.031 C 
ATOM     30  C   UNL     1      34.621 -16.140 -24.440  0.00  0.00    +0.180 C 
ATOM     31  C   UNL     1      34.263 -16.507 -25.734  0.00  0.00    +0.281 C 
ATOM     32  C   UNL     1      34.894 -18.338 -24.716  0.00  0.00    +0.176 C 
ATOM     33  C   UNL     1      34.502 -14.790 -24.115  0.00  0.00    +0.181 C 
ATOM     34  C   UNL     1      33.745 -14.415 -26.267  0.00  0.00    +0.200 C 
ATOM     35  H   UNL     1      33.040 -13.760 -28.120  0.00  0.00    +0.156 HD
ATOM     36  H   UNL     1      33.209 -12.520 -26.961  0.00  0.00    +0.156 HD
ATOM     37  N   UNL     1      34.840 -14.322 -22.833  0.00  0.00    -0.335 N 
ATOM     38  H   UNL     1      34.751 -13.365 -22.619  0.00  0.00    +0.144 HD
ATOM     39  H   UNL     1      35.166 -14.950 -22.148  0.00  0.00    +0.144 HD
ENDBRANCH  24  29
ENDBRANCH  22  24
ENDBRANCH   1  22
TORSDOF 11
ENDMDL
MODEL 7
REMARK VINA RESULT:     -10.6      2.059      2.987
REMARK  Name = 158376
REMARK  11 active torsions:
REMARK  status: ('A' for Active; 'I' for Inactive)
REMARK    1  A    between atoms: C_1  and  N_22
REMARK    2  A    between atoms: C_2  and  C_9
REMARK    3  A    between atoms: N_8  and  CA_11
REMARK    4  A    between atoms: CA_11  and  C_13
REMARK    5  A    between atoms: CA_11  and  CB_16
REMARK    6  A    between atoms: C_13  and  O_14
REMARK    7  A    between atoms: CB_16  and  CG_17
REMARK    8  A    between atoms: CG_17  and  CD_19
REMARK    9  A    between atoms: CD_19  and  OE1_20
REMARK   10  A    between atoms: N_22  and  C_24
REMARK   11  A    between atoms: C_24  and  C_29
REMARK                            x       y       z     vdW  Elec       q    Type
REMARK                         _______ _______ _______ _____ _____    ______ ____
ROOT
ATOM      1  C   UNL     1      34.822 -20.123 -21.353  0.00  0.00    +0.048 C 
ATOM      2  C   UNL     1      33.920 -21.837 -19.344  0.00  0.00    +0.053 C 
ATOM      3  C   UNL     1      33.464 -20.177 -21.041  0.00  0.00    +0.015 C 
ATOM      4  C   UNL     1      35.729 -20.925 -20.661  0.00  0.00    +0.015 C 
ATOM      5  C   UNL     1      33.013 -21.033 -20.037  0.00  0.00    +0.006 C 
ATOM      6  C   UNL     1      35.277 -21.782 -19.657  0.00  0.00    +0.006 C 
ENDROOT
BRANCH   2   9
ATOM      7  O   UNL     1      34.156 -23.677 -17.911  0.00  0.00    -0.270 OA
ATOM      8  N   UNL     1      32.192 -22.455 -17.741  0.00  0.00    -0.293 N 
ATOM      9  C   ACE A   0      33.439 -22.749 -18.275  0.00  0.00    +0.246 C 
ATOM     10  H   UNL     1      31.691 -21.688 -18.101  0.00  0.00    +0.150 HD
BRANCH   8  11
ATOM     11  CA  UNL     1      31.600 -23.231 -16.681  0.00  0.00    +0.172 C 
BRANCH  11  13
ATOM     12  OXT UNL     1      29.348 -22.722 -17.456  0.00  0.00    -0.248 OA
ATOM     13  C   UNL     1      30.158 -22.791 -16.540  0.00  0.00    +0.332 C 
BRANCH  13  14
ATOM     14  O   UNL     1      29.838 -22.508 -15.249  0.00  0.00    -0.479 OA
ATOM     15  H   UNL     1      30.225 -22.999 -14.553  0.00  0.00    +0.295 HD
ENDBRANCH  13  14
ENDBRANCH  11  13
BRANCH  11  16
ATOM     16  CB  UNL     1      32.401 -23.158 -15.375  0.00  0.00    +0.043 C 
BRANCH  16  17
ATOM     17  CG  UNL     1      32.575 -24.483 -14.623  0.00  0.00    +0.112 C 
BRANCH  17  19
ATOM     18  OE2 UNL     1      30.924 -24.401 -12.832  0.00  0.00    -0.250 OA
ATOM     19  CD  UNL     1      31.343 -24.917 -13.859  0.00  0.00    +0.314 C 
BRANCH  19  20
ATOM     20  OE1 UNL     1      30.755 -26.001 -14.432  0.00  0.00    -0.480 OA
ATOM     21  HE1 UNL     1      30.463 -25.959 -15.322  0.00  0.00    +0.295 HD
ENDBRANCH  19  20
ENDBRANCH  17  19
ENDBRANCH  16  17
ENDBRANCH  11  16
ENDBRANCH   8  11
ENDBRANCH   2   9
BRANCH   1  22
ATOM     22  N   UNL     1      35.279 -19.256 -22.367  0.00  0.00    -0.302 N 
ATOM     23  C   UNL     1      35.379 -19.718 -23.737  0.00  0.00    +0.112 C 
BRANCH  22  24
ATOM     24  C   UNL     1      35.641 -17.887 -22.055  0.00  0.00    +0.118 C 
BRANCH  24  29
ATOM     25  O   UNL     1      35.088 -15.933 -25.143  0.00  0.00    -0.427 OA
ATOM     26  N   UNL     1      34.262 -13.784 -24.510  0.00  0.00    -0.294 NA
ATOM     27  N   UNL     1      34.025 -13.491 -22.104  0.00  0.00    -0.317 NA
ATOM     28  N   UNL     1      33.474 -11.778 -23.601  0.00  0.00    -0.283 N 
ATOM     29  C   UNL     1      35.325 -16.876 -23.113  0.00  0.00    +0.031 C 
ATOM     30  C   UNL     1      34.832 -15.561 -22.934  0.00  0.00    +0.180 C 
ATOM     31  C   UNL     1      34.700 -15.018 -24.209  0.00  0.00    +0.281 C 
ATOM     32  C   UNL     1      35.464 -17.051 -24.470  0.00  0.00    +0.176 C 
ATOM     33  C   UNL     1      34.473 -14.744 -21.864  0.00  0.00    +0.181 C 
ATOM     34  C   UNL     1      33.947 -13.094 -23.395  0.00  0.00    +0.200 C 
ATOM     35  H   UNL     1      33.392 -11.423 -24.516  0.00  0.00    +0.156 HD
ATOM     36  H   UNL     1      33.226 -11.218 -22.831  0.00  0.00    +0.156 HD
ATOM     37  N   UNL     1      34.572 -15.203 -20.537  0.00  0.00    -0.335 N 
ATOM     38  H   UNL     1      34.315 -14.614 -19.792  0.00  0.00    +0.144 HD
ATOM     39  H   UNL     1      34.899 -16.114 -20.354  0.00  0.00    +0.144 HD
ENDBRANCH  24  29
ENDBRANCH  22  24
ENDBRANCH   1  22
TORSDOF 11
ENDMDL
MODEL 8
REMARK VINA RESULT:     -10.3      1.628      3.074
REMARK  Name = 158376
REMARK  11 active torsions:
REMARK  status: ('A' for Active; 'I' for Inactive)
REMARK    1  A    between atoms: C_1  and  N_22
REMARK    2  A    between atoms: C_2  and  C_9
REMARK    3  A    between atoms: N_8  and  CA_11
REMARK    4  A    between atoms: CA_11  and  C_13
REMARK    5  A    between atoms: CA_11  and  CB_16
REMARK    6  A    between atoms: C_13  and  O_14
REMARK    7  A    between atoms: CB_16  and  CG_17
REMARK    8  A    between atoms: CG_17  and  CD_19
REMARK    9  A    between atoms: CD_19  and  OE1_20
REMARK   10  A    between atoms: N_22  and  C_24
REMARK   11  A    between atoms: C_24  and  C_29
REMARK                            x       y       z     vdW  Elec       q    Type
REMARK                         _______ _______ _______ _____ _____    ______ ____
ROOT
ATOM      1  C   UNL     1      35.763 -19.961 -21.166  0.00  0.00    +0.048 C 
ATOM      2  C   UNL     1      34.822 -21.809 -19.300  0.00  0.00    +0.053 C 
ATOM      3  C   UNL     1      36.663 -20.649 -20.352  0.00  0.00    +0.015 C 
ATOM      4  C   UNL     1      34.393 -20.196 -21.048  0.00  0.00    +0.015 C 
ATOM      5  C   UNL     1      36.192 -21.574 -19.420  0.00  0.00    +0.006 C 
ATOM      6  C   UNL     1      33.923 -21.121 -20.114  0.00  0.00    +0.006 C 
ENDROOT
BRANCH   2   9
ATOM      7  O   UNL     1      33.762 -23.814 -18.703  0.00  0.00    -0.270 OA
ATOM      8  N   UNL     1      34.552 -22.484 -16.974  0.00  0.00    -0.293 N 
ATOM      9  C   ACE A   0      34.321 -22.794 -18.307  0.00  0.00    +0.246 C 
ATOM     10  H   UNL     1      35.008 -21.639 -16.756  0.00  0.00    +0.150 HD
BRANCH   8  11
ATOM     11  CA  UNL     1      34.148 -23.350 -15.895  0.00  0.00    +0.172 C 
BRANCH  11  13
ATOM     12  OXT UNL     1      36.408 -24.242 -16.068  0.00  0.00    -0.248 OA
ATOM     13  C   UNL     1      35.251 -24.367 -15.687  0.00  0.00    +0.332 C 
BRANCH  13  14
ATOM     14  O   UNL     1      34.820 -25.446 -14.982  0.00  0.00    -0.479 OA
ATOM     15  H   UNL     1      35.406 -25.893 -14.404  0.00  0.00    +0.295 HD
ENDBRANCH  13  14
ENDBRANCH  11  13
BRANCH  11  16
ATOM     16  CB  UNL     1      32.766 -23.973 -16.121  0.00  0.00    +0.043 C 
BRANCH  16  17
ATOM     17  CG  UNL     1      31.671 -23.544 -15.137  0.00  0.00    +0.112 C 
BRANCH  17  19
ATOM     18  OE2 UNL     1      31.101 -24.094 -12.832  0.00  0.00    -0.250 OA
ATOM     19  CD  UNL     1      31.572 -24.426 -13.912  0.00  0.00    +0.314 C 
BRANCH  19  20
ATOM     20  OE1 UNL     1      32.114 -25.653 -14.133  0.00  0.00    -0.480 OA
ATOM     21  HE1 UNL     1      31.919 -26.362 -13.553  0.00  0.00    +0.295 HD
ENDBRANCH  19  20
ENDBRANCH  17  19
ENDBRANCH  16  17
ENDBRANCH  11  16
ENDBRANCH   8  11
ENDBRANCH   2   9
BRANCH   1  22
ATOM     22  N   UNL     1      36.238 -19.027 -22.110  0.00  0.00    -0.302 N 
ATOM     23  C   UNL     1      37.661 -18.804 -22.269  0.00  0.00    +0.112 C 
BRANCH  22  24
ATOM     24  C   UNL     1      35.310 -18.290 -22.944  0.00  0.00    +0.118 C 
BRANCH  24  29
ATOM     25  O   UNL     1      34.928 -14.989 -21.323  0.00  0.00    -0.427 OA
ATOM     26  N   UNL     1      34.453 -13.388 -23.030  0.00  0.00    -0.294 NA
ATOM     27  N   UNL     1      34.356 -14.338 -25.270  0.00  0.00    -0.317 NA
ATOM     28  N   UNL     1      34.005 -12.053 -24.898  0.00  0.00    -0.283 N 
ATOM     29  C   UNL     1      35.105 -16.853 -22.573  0.00  0.00    +0.031 C 
ATOM     30  C   UNL     1      34.816 -15.769 -23.436  0.00  0.00    +0.180 C 
ATOM     31  C   UNL     1      34.717 -14.642 -22.625  0.00  0.00    +0.281 C 
ATOM     32  C   UNL     1      35.161 -16.327 -21.303  0.00  0.00    +0.176 C 
ATOM     33  C   UNL     1      34.624 -15.578 -24.803  0.00  0.00    +0.181 C 
ATOM     34  C   UNL     1      34.288 -13.333 -24.367  0.00  0.00    +0.200 C 
ATOM     35  H   UNL     1      33.941 -11.275 -24.298  0.00  0.00    +0.156 HD
ATOM     36  H   UNL     1      33.873 -11.941 -25.867  0.00  0.00    +0.156 HD
ATOM     37  N   UNL     1      34.704 -16.656 -25.703  0.00  0.00    -0.335 N 
ATOM     38  H   UNL     1      34.566 -16.505 -26.666  0.00  0.00    +0.144 HD
ATOM     39  H   UNL     1      34.898 -17.562 -25.371  0.00  0.00    +0.144 HD
ENDBRANCH  24  29
ENDBRANCH  22  24
ENDBRANCH   1  22
TORSDOF 11
ENDMDL
MODEL 9
REMARK VINA RESULT:     -10.2      2.208      3.609
REMARK  Name = 158376
REMARK  11 active torsions:
REMARK  status: ('A' for Active; 'I' for Inactive)
REMARK    1  A    between atoms: C_1  and  N_22
REMARK    2  A    between atoms: C_2  and  C_9
REMARK    3  A    between atoms: N_8  and  CA_11
REMARK    4  A    between atoms: CA_11  and  C_13
REMARK    5  A    between atoms: CA_11  and  CB_16
REMARK    6  A    between atoms: C_13  and  O_14
REMARK    7  A    between atoms: CB_16  and  CG_17
REMARK    8  A    between atoms: CG_17  and  CD_19
REMARK    9  A    between atoms: CD_19  and  OE1_20
REMARK   10  A    between atoms: N_22  and  C_24
REMARK   11  A    between atoms: C_24  and  C_29
REMARK                            x       y       z     vdW  Elec       q    Type
REMARK                         _______ _______ _______ _____ _____    ______ ____
ROOT
ATOM      1  C   UNL     1      34.887 -21.259 -19.794  0.00  0.00    +0.048 C 
ATOM      2  C   UNL     1      35.348 -22.842 -17.543  0.00  0.00    +0.053 C 
ATOM      3  C   UNL     1      33.846 -22.007 -19.243  0.00  0.00    +0.015 C 
ATOM      4  C   UNL     1      36.157 -21.302 -19.220  0.00  0.00    +0.015 C 
ATOM      5  C   UNL     1      34.076 -22.798 -18.117  0.00  0.00    +0.006 C 
ATOM      6  C   UNL     1      36.387 -22.095 -18.095  0.00  0.00    +0.006 C 
ENDROOT
BRANCH   2   9
ATOM      7  O   UNL     1      34.762 -24.533 -16.028  0.00  0.00    -0.270 OA
ATOM      8  N   UNL     1      36.786 -23.456 -15.674  0.00  0.00    -0.293 N 
ATOM      9  C   ACE A   0      35.593 -23.685 -16.345  0.00  0.00    +0.246 C 
ATOM     10  H   UNL     1      37.388 -22.751 -16.006  0.00  0.00    +0.150 HD
BRANCH   8  11
ATOM     11  CA  UNL     1      37.178 -24.209 -14.510  0.00  0.00    +0.172 C 
BRANCH  11  13
ATOM     12  OXT UNL     1      37.376 -22.718 -12.594  0.00  0.00    -0.248 OA
ATOM     13  C   UNL     1      36.689 -23.455 -13.290  0.00  0.00    +0.332 C 
BRANCH  13  14
ATOM     14  O   UNL     1      35.364 -23.658 -13.066  0.00  0.00    -0.479 OA
ATOM     15  H   UNL     1      34.896 -24.293 -13.570  0.00  0.00    +0.295 HD
ENDBRANCH  13  14
ENDBRANCH  11  13
BRANCH  11  16
ATOM     16  CB  UNL     1      38.679 -24.522 -14.484  0.00  0.00    +0.043 C 
BRANCH  16  17
ATOM     17  CG  UNL     1      39.054 -26.006 -14.573  0.00  0.00    +0.112 C 
BRANCH  17  19
ATOM     18  OE2 UNL     1      41.399 -26.596 -14.276  0.00  0.00    -0.250 OA
ATOM     19  CD  UNL     1      40.482 -26.249 -15.008  0.00  0.00    +0.314 C 
BRANCH  19  20
ATOM     20  OE1 UNL     1      40.652 -25.996 -16.333  0.00  0.00    -0.480 OA
ATOM     21  HE1 UNL     1      40.696 -26.706 -16.943  0.00  0.00    +0.295 HD
ENDBRANCH  19  20
ENDBRANCH  17  19
ENDBRANCH  16  17
ENDBRANCH  11  16
ENDBRANCH   8  11
ENDBRANCH   2   9
BRANCH   1  22
ATOM     22  N   UNL     1      34.654 -20.457 -20.930  0.00  0.00    -0.302 N 
ATOM     23  C   UNL     1      33.301 -20.189 -21.375  0.00  0.00    +0.112 C 
BRANCH  22  24
ATOM     24  C   UNL     1      35.765 -19.878 -21.660  0.00  0.00    +0.118 C 
BRANCH  24  29
ATOM     25  O   UNL     1      34.918 -18.870 -25.114  0.00  0.00    -0.427 OA
ATOM     26  N   UNL     1      34.611 -16.502 -25.130  0.00  0.00    -0.294 NA
ATOM     27  N   UNL     1      34.930 -15.455 -22.954  0.00  0.00    -0.317 NA
ATOM     28  N   UNL     1      34.374 -14.192 -24.845  0.00  0.00    -0.283 N 
ATOM     29  C   UNL     1      35.410 -19.188 -22.941  0.00  0.00    +0.031 C 
ATOM     30  C   UNL     1      35.191 -17.804 -23.146  0.00  0.00    +0.180 C 
ATOM     31  C   UNL     1      34.890 -17.654 -24.496  0.00  0.00    +0.281 C 
ATOM     32  C   UNL     1      35.234 -19.789 -24.165  0.00  0.00    +0.176 C 
ATOM     33  C   UNL     1      35.203 -16.645 -22.372  0.00  0.00    +0.181 C 
ATOM     34  C   UNL     1      34.654 -15.457 -24.278  0.00  0.00    +0.200 C 
ATOM     35  H   UNL     1      34.165 -14.119 -25.804  0.00  0.00    +0.156 HD
ATOM     36  H   UNL     1      34.388 -13.386 -24.281  0.00  0.00    +0.156 HD
ATOM     37  N   UNL     1      35.497 -16.694 -20.998  0.00  0.00    -0.335 N 
ATOM     38  H   UNL     1      35.502 -15.867 -20.465  0.00  0.00    +0.144 HD
ATOM     39  H   UNL     1      35.698 -17.557 -20.567  0.00  0.00    +0.144 HD
ENDBRANCH  24  29
ENDBRANCH  22  24
ENDBRANCH   1  22
TORSDOF 11
ENDMDL
