MODEL 1
REMARK VINA RESULT:     -12.8      0.000      0.000
REMARK  Name = 21081761
REMARK  5 active torsions:
REMARK  status: ('A' for Active; 'I' for Inactive)
REMARK    1  A    between atoms: N_2  and  C_6
REMARK    2  A    between atoms: C_3  and  C_25
REMARK    3  A    between atoms: C_7  and  O_12
REMARK    4  A    between atoms: O_12  and  C_16
REMARK    5  A    between atoms: N_24  and  C_31
REMARK                            x       y       z     vdW  Elec       q    Type
REMARK                         _______ _______ _______ _____ _____    ______ ____
ROOT
ATOM      1  O   UNL     1      32.894 -22.395 -20.238  0.00  0.00    -0.270 OA
ATOM      2  N   UNL     1      34.762 -21.155 -19.501  0.00  0.00    -0.280 N 
ATOM      3  C   UNL     1      33.717 -22.076 -19.389  0.00  0.00    +0.254 C 
ATOM      4  H   UNL     1      35.321 -21.035 -18.699  0.00  0.00    +0.155 HD
ENDROOT
BRANCH   2   6
ATOM      5  F   UNL     1      37.992 -18.613 -21.944  0.00  0.00    -0.201 F 
ATOM      6  C   UNL     1      35.109 -20.384 -20.610  0.00  0.00    +0.053 C 
ATOM      7  C   UNL     1      35.802 -18.841 -22.828  0.00  0.00    +0.173 C 
ATOM      8  C   UNL     1      36.401 -19.872 -20.728  0.00  0.00    +0.047 C 
ATOM      9  C   UNL     1      34.163 -20.125 -21.603  0.00  0.00    +0.018 C 
ATOM     10  C   UNL     1      36.748 -19.100 -21.837  0.00  0.00    +0.176 C 
ATOM     11  C   UNL     1      34.509 -19.352 -22.711  0.00  0.00    +0.041 C 
BRANCH   7  12
ATOM     12  O   UNL     1      36.144 -18.075 -23.927  0.00  0.00    -0.451 OA
BRANCH  12  16
ATOM     13  N   UNL     1      34.034 -14.181 -22.491  0.00  0.00    -0.297 N 
ATOM     14  N   UNL     1      33.750 -14.714 -24.822  0.00  0.00    -0.229 NA
ATOM     15  C   UNL     1      35.034 -16.043 -23.211  0.00  0.00    +0.067 C 
ATOM     16  C   UNL     1      35.371 -16.982 -24.200  0.00  0.00    +0.150 C 
ATOM     17  C   UNL     1      34.241 -14.966 -23.594  0.00  0.00    +0.135 C 
ATOM     18  C   UNL     1      35.303 -15.884 -21.825  0.00  0.00    +0.022 C 
ATOM     19  C   UNL     1      34.675 -14.730 -21.409  0.00  0.00    +0.063 C 
ATOM     20  C   UNL     1      34.889 -16.769 -25.490  0.00  0.00    +0.058 C 
ATOM     21  C   UNL     1      34.105 -15.649 -25.734  0.00  0.00    +0.103 C 
ATOM     22  H   UNL     1      33.507 -13.350 -22.475  0.00  0.00    +0.154 HD
ENDBRANCH  12  16
ENDBRANCH   7  12
ENDBRANCH   2   6
BRANCH   3  25
ATOM     23  O   UNL     1      35.981 -22.933 -17.843  0.00  0.00    -0.269 OA
ATOM     24  N   UNL     1      34.678 -23.633 -15.998  0.00  0.00    -0.233 N 
ATOM     25  C   UNL     1      33.660 -22.701 -18.062  0.00  0.00    +0.108 C 
ATOM     26  C   UNL     1      34.891 -23.083 -17.290  0.00  0.00    +0.261 C 
ATOM     27  C   UNL     1      33.377 -23.859 -15.546  0.00  0.00    +0.072 C 
ATOM     28  C   UNL     1      32.444 -22.941 -17.558  0.00  0.00    +0.010 C 
ATOM     29  C   UNL     1      32.297 -23.546 -16.268  0.00  0.00    +0.017 C 
BRANCH  24  31
ATOM     30  F   UNL     1      39.049 -24.968 -12.797  0.00  0.00    -0.204 F 
ATOM     31  C   UNL     1      35.814 -23.980 -15.166  0.00  0.00    +0.059 C 
ATOM     32  C   UNL     1      36.355 -25.265 -15.224  0.00  0.00    +0.018 C 
ATOM     33  C   UNL     1      36.366 -23.029 -14.307  0.00  0.00    +0.018 C 
ATOM     34  C   UNL     1      37.448 -25.598 -14.424  0.00  0.00    +0.031 C 
ATOM     35  C   UNL     1      37.459 -23.362 -13.507  0.00  0.00    +0.031 C 
ATOM     36  C   UNL     1      38.000 -24.647 -13.566  0.00  0.00    +0.140 C 
ENDBRANCH  24  31
ENDBRANCH   3  25
TORSDOF 5
ENDMDL
MODEL 2
REMARK VINA RESULT:     -12.7      2.742     10.855
REMARK  Name = 21081761
REMARK  5 active torsions:
REMARK  status: ('A' for Active; 'I' for Inactive)
REMARK    1  A    between atoms: N_2  and  C_6
REMARK    2  A    between atoms: C_3  and  C_25
REMARK    3  A    between atoms: C_7  and  O_12
REMARK    4  A    between atoms: O_12  and  C_16
REMARK    5  A    between atoms: N_24  and  C_31
REMARK                            x       y       z     vdW  Elec       q    Type
REMARK                         _______ _______ _______ _____ _____    ______ ____
ROOT
ATOM      1  O   UNL     1      36.649 -17.900 -21.462  0.00  0.00    -0.270 OA
ATOM      2  N   UNL     1      34.636 -19.058 -21.877  0.00  0.00    -0.280 N 
ATOM      3  C   UNL     1      35.590 -18.054 -22.056  0.00  0.00    +0.254 C 
ATOM      4  H   UNL     1      33.842 -19.010 -22.457  0.00  0.00    +0.155 HD
ENDROOT
BRANCH   2   6
ATOM      5  F   UNL     1      37.108 -22.064 -19.098  0.00  0.00    -0.201 F 
ATOM      6  C   UNL     1      34.672 -20.122 -20.976  0.00  0.00    +0.053 C 
ATOM      7  C   UNL     1      34.744 -22.252 -19.176  0.00  0.00    +0.173 C 
ATOM      8  C   UNL     1      35.894 -20.573 -20.475  0.00  0.00    +0.047 C 
ATOM      9  C   UNL     1      33.486 -20.737 -20.575  0.00  0.00    +0.018 C 
ATOM     10  C   UNL     1      35.931 -21.638 -19.575  0.00  0.00    +0.176 C 
ATOM     11  C   UNL     1      33.522 -21.803 -19.676  0.00  0.00    +0.041 C 
BRANCH   7  12
ATOM     12  O   UNL     1      34.779 -23.308 -18.285  0.00  0.00    -0.451 OA
BRANCH  12  16
ATOM     13  N   UNL     1      33.938 -23.745 -13.726  0.00  0.00    -0.297 N 
ATOM     14  N   UNL     1      32.023 -23.213 -15.086  0.00  0.00    -0.229 NA
ATOM     15  C   UNL     1      34.308 -23.529 -15.918  0.00  0.00    +0.067 C 
ATOM     16  C   UNL     1      33.900 -23.281 -17.239  0.00  0.00    +0.150 C 
ATOM     17  C   UNL     1      33.333 -23.477 -14.926  0.00  0.00    +0.135 C 
ATOM     18  C   UNL     1      35.535 -23.842 -15.273  0.00  0.00    +0.022 C 
ATOM     19  C   UNL     1      35.276 -23.969 -13.926  0.00  0.00    +0.063 C 
ATOM     20  C   UNL     1      32.553 -23.002 -17.462  0.00  0.00    +0.058 C 
ATOM     21  C   UNL     1      31.686 -22.983 -16.377  0.00  0.00    +0.103 C 
ATOM     22  H   UNL     1      33.483 -23.774 -12.854  0.00  0.00    +0.154 HD
ENDBRANCH  12  16
ENDBRANCH   7  12
ENDBRANCH   2   6
BRANCH   3  25
ATOM     23  O   UNL     1      34.513 -15.428 -21.618  0.00  0.00    -0.269 OA
ATOM     24  N   UNL     1      34.411 -14.893 -23.919  0.00  0.00    -0.233 N 
ATOM     25  C   UNL     1      35.208 -17.099 -23.104  0.00  0.00    +0.108 C 
ATOM     26  C   UNL     1      34.693 -15.721 -22.800  0.00  0.00    +0.261 C 
ATOM     27  C   UNL     1      34.548 -15.403 -25.210  0.00  0.00    +0.072 C 
ATOM     28  C   UNL     1      35.321 -17.515 -24.371  0.00  0.00    +0.010 C 
ATOM     29  C   UNL     1      34.972 -16.647 -25.456  0.00  0.00    +0.017 C 
BRANCH  24  31
ATOM     30  F   UNL     1      32.676  -9.650 -23.125  0.00  0.00    -0.204 F 
ATOM     31  C   UNL     1      33.961 -13.530 -23.712  0.00  0.00    +0.059 C 
ATOM     32  C   UNL     1      34.487 -12.496 -24.487  0.00  0.00    +0.018 C 
ATOM     33  C   UNL     1      32.999 -13.253 -22.739  0.00  0.00    +0.018 C 
ATOM     34  C   UNL     1      34.053 -11.186 -24.289  0.00  0.00    +0.031 C 
ATOM     35  C   UNL     1      32.565 -11.943 -22.541  0.00  0.00    +0.031 C 
ATOM     36  C   UNL     1      33.092 -10.909 -23.316  0.00  0.00    +0.140 C 
ENDBRANCH  24  31
ENDBRANCH   3  25
TORSDOF 5
ENDMDL
MODEL 3
REMARK VINA RESULT:     -12.3      5.350     12.426
REMARK  Name = 21081761
REMARK  5 active torsions:
REMARK  status: ('A' for Active; 'I' for Inactive)
REMARK    1  A    between atoms: N_2  and  C_6
REMARK    2  A    between atoms: C_3  and  C_25
REMARK    3  A    between atoms: C_7  and  O_12
REMARK    4  A    between atoms: O_12  and  C_16
REMARK    5  A    between atoms: N_24  and  C_31
REMARK                            x       y       z     vdW  Elec       q    Type
REMARK                         _______ _______ _______ _____ _____    ______ ____
ROOT
ATOM      1  O   UNL     1      31.674 -13.487 -21.144  0.00  0.00    -0.270 OA
ATOM      2  N   UNL     1      33.890 -13.082 -21.847  0.00  0.00    -0.280 N 
ATOM      3  C   UNL     1      32.615 -12.742 -21.388  0.00  0.00    +0.254 C 
ATOM      4  H   UNL     1      34.514 -12.334 -21.986  0.00  0.00    +0.155 HD
ENDROOT
BRANCH   2   6
ATOM      5  F   UNL     1      35.362 -16.351 -25.011  0.00  0.00    -0.201 F 
ATOM      6  C   UNL     1      34.386 -14.355 -22.132  0.00  0.00    +0.053 C 
ATOM      7  C   UNL     1      35.376 -16.899 -22.703  0.00  0.00    +0.173 C 
ATOM      8  C   UNL     1      34.632 -14.728 -23.454  0.00  0.00    +0.047 C 
ATOM      9  C   UNL     1      34.637 -15.254 -21.096  0.00  0.00    +0.018 C 
ATOM     10  C   UNL     1      35.127 -16.000 -23.740  0.00  0.00    +0.176 C 
ATOM     11  C   UNL     1      35.131 -16.527 -21.381  0.00  0.00    +0.041 C 
BRANCH   7  12
ATOM     12  O   UNL     1      35.866 -18.161 -22.985  0.00  0.00    -0.451 OA
BRANCH  12  16
ATOM     13  N   UNL     1      34.103 -21.236 -19.966  0.00  0.00    -0.297 N 
ATOM     14  N   UNL     1      36.461 -20.799 -19.742  0.00  0.00    -0.229 NA
ATOM     15  C   UNL     1      34.979 -19.765 -21.400  0.00  0.00    +0.067 C 
ATOM     16  C   UNL     1      36.042 -19.019 -21.937  0.00  0.00    +0.150 C 
ATOM     17  C   UNL     1      35.266 -20.610 -20.332  0.00  0.00    +0.135 C 
ATOM     18  C   UNL     1      33.592 -19.901 -21.671  0.00  0.00    +0.022 C 
ATOM     19  C   UNL     1      33.079 -20.811 -20.774  0.00  0.00    +0.063 C 
ATOM     20  C   UNL     1      37.303 -19.177 -21.363  0.00  0.00    +0.058 C 
ATOM     21  C   UNL     1      37.447 -20.056 -20.298  0.00  0.00    +0.103 C 
ATOM     22  H   UNL     1      34.015 -21.890 -19.236  0.00  0.00    +0.154 HD
ENDBRANCH  12  16
ENDBRANCH   7  12
ENDBRANCH   2   6
BRANCH   3  25
ATOM     23  O   UNL     1      33.120 -10.727 -23.370  0.00  0.00    -0.269 OA
ATOM     24  N   UNL     1      32.452  -8.937 -21.975  0.00  0.00    -0.233 N 
ATOM     25  C   UNL     1      32.456 -11.296 -21.198  0.00  0.00    +0.108 C 
ATOM     26  C   UNL     1      32.694 -10.300 -22.296  0.00  0.00    +0.261 C 
ATOM     27  C   UNL     1      32.088  -8.586 -20.675  0.00  0.00    +0.072 C 
ATOM     28  C   UNL     1      32.099 -10.883 -19.976  0.00  0.00    +0.010 C 
ATOM     29  C   UNL     1      31.918  -9.488 -19.702  0.00  0.00    +0.017 C 
BRANCH  24  31
ATOM     30  F   UNL     1      33.053  -5.014 -25.896  0.00  0.00    -0.204 F 
ATOM     31  C   UNL     1      32.608  -7.917 -22.994  0.00  0.00    +0.059 C 
ATOM     32  C   UNL     1      33.852  -7.319 -23.197  0.00  0.00    +0.018 C 
ATOM     33  C   UNL     1      31.514  -7.535 -23.772  0.00  0.00    +0.018 C 
ATOM     34  C   UNL     1      34.002  -6.339 -24.178  0.00  0.00    +0.031 C 
ATOM     35  C   UNL     1      31.664  -6.555 -24.752  0.00  0.00    +0.031 C 
ATOM     36  C   UNL     1      32.908  -5.956 -24.955  0.00  0.00    +0.140 C 
ENDBRANCH  24  31
ENDBRANCH   3  25
TORSDOF 5
ENDMDL
MODEL 4
REMARK VINA RESULT:     -12.3      5.096      8.479
REMARK  Name = 21081761
REMARK  5 active torsions:
REMARK  status: ('A' for Active; 'I' for Inactive)
REMARK    1  A    between atoms: N_2  and  C_6
REMARK    2  A    between atoms: C_3  and  C_25
REMARK    3  A    between atoms: C_7  and  O_12
REMARK    4  A    between atoms: O_12  and  C_16
REMARK    5  A    between atoms: N_24  and  C_31
REMARK                            x       y       z     vdW  Elec       q    Type
REMARK                         _______ _______ _______ _____ _____    ______ ____
ROOT
ATOM      1  O   UNL     1      35.392 -14.126 -23.729  0.00  0.00    -0.270 OA
ATOM      2  N   UNL     1      33.576 -14.726 -22.347  0.00  0.00    -0.280 N 
ATOM      3  C   UNL     1      34.682 -14.952 -23.169  0.00  0.00    +0.254 C 
ATOM      4  H   UNL     1      33.132 -15.528 -21.988  0.00  0.00    +0.155 HD
ENDROOT
BRANCH   2   6
ATOM      5  F   UNL     1      31.828 -11.813 -18.982  0.00  0.00    -0.201 F 
ATOM      6  C   UNL     1      33.022 -13.502 -21.974  0.00  0.00    +0.053 C 
ATOM      7  C   UNL     1      31.913 -11.053 -21.227  0.00  0.00    +0.173 C 
ATOM      8  C   UNL     1      32.694 -13.261 -20.639  0.00  0.00    +0.047 C 
ATOM      9  C   UNL     1      32.796 -12.516 -22.935  0.00  0.00    +0.018 C 
ATOM     10  C   UNL     1      32.139 -12.037 -20.266  0.00  0.00    +0.176 C 
ATOM     11  C   UNL     1      32.241 -11.292 -22.562  0.00  0.00    +0.041 C 
BRANCH   7  12
ATOM     12  O   UNL     1      31.362  -9.840 -20.858  0.00  0.00    -0.451 OA
BRANCH  12  16
ATOM     13  N   UNL     1      32.185  -6.396 -23.882  0.00  0.00    -0.297 N 
ATOM     14  N   UNL     1      33.501  -6.341 -21.866  0.00  0.00    -0.229 NA
ATOM     15  C   UNL     1      31.814  -8.035 -22.411  0.00  0.00    +0.067 C 
ATOM     16  C   UNL     1      32.045  -8.707 -21.199  0.00  0.00    +0.150 C 
ATOM     17  C   UNL     1      32.564  -6.890 -22.661  0.00  0.00    +0.135 C 
ATOM     18  C   UNL     1      30.960  -8.221 -23.531  0.00  0.00    +0.022 C 
ATOM     19  C   UNL     1      31.211  -7.198 -24.419  0.00  0.00    +0.063 C 
ATOM     20  C   UNL     1      33.006  -8.181 -20.337  0.00  0.00    +0.058 C 
ATOM     21  C   UNL     1      33.683  -7.029 -20.714  0.00  0.00    +0.103 C 
ATOM     22  H   UNL     1      32.554  -5.589 -24.308  0.00  0.00    +0.154 HD
ENDBRANCH  12  16
ENDBRANCH   7  12
ENDBRANCH   2   6
BRANCH   3  25
ATOM     23  O   UNL     1      35.211 -16.814 -21.048  0.00  0.00    -0.269 OA
ATOM     24  N   UNL     1      35.418 -18.674 -22.494  0.00  0.00    -0.233 N 
ATOM     25  C   UNL     1      34.973 -16.381 -23.337  0.00  0.00    +0.108 C 
ATOM     26  C   UNL     1      35.195 -17.308 -22.176  0.00  0.00    +0.261 C 
ATOM     27  C   UNL     1      35.495 -19.071 -23.829  0.00  0.00    +0.072 C 
ATOM     28  C   UNL     1      35.053 -16.838 -24.592  0.00  0.00    +0.010 C 
ATOM     29  C   UNL     1      35.331 -18.220 -24.848  0.00  0.00    +0.017 C 
BRANCH  24  31
ATOM     30  F   UNL     1      36.075 -22.406 -18.399  0.00  0.00    -0.204 F 
ATOM     31  C   UNL     1      35.589 -19.644 -21.429  0.00  0.00    +0.059 C 
ATOM     32  C   UNL     1      34.493 -20.374 -20.969  0.00  0.00    +0.018 C 
ATOM     33  C   UNL     1      36.850 -19.847 -20.866  0.00  0.00    +0.018 C 
ATOM     34  C   UNL     1      34.658 -21.307 -19.946  0.00  0.00    +0.031 C 
ATOM     35  C   UNL     1      37.014 -20.780 -19.843  0.00  0.00    +0.031 C 
ATOM     36  C   UNL     1      35.918 -21.510 -19.383  0.00  0.00    +0.140 C 
ENDBRANCH  24  31
ENDBRANCH   3  25
TORSDOF 5
ENDMDL
MODEL 5
REMARK VINA RESULT:     -12.2      2.290      3.498
REMARK  Name = 21081761
REMARK  5 active torsions:
REMARK  status: ('A' for Active; 'I' for Inactive)
REMARK    1  A    between atoms: N_2  and  C_6
REMARK    2  A    between atoms: C_3  and  C_25
REMARK    3  A    between atoms: C_7  and  O_12
REMARK    4  A    between atoms: O_12  and  C_16
REMARK    5  A    between atoms: N_24  and  C_31
REMARK                            x       y       z     vdW  Elec       q    Type
REMARK                         _______ _______ _______ _____ _____    ______ ____
ROOT
ATOM      1  O   UNL     1      35.871 -22.936 -20.276  0.00  0.00    -0.270 OA
ATOM      2  N   UNL     1      35.182 -20.748 -19.726  0.00  0.00    -0.280 N 
ATOM      3  C   UNL     1      35.436 -22.101 -19.492  0.00  0.00    +0.254 C 
ATOM      4  H   UNL     1      34.830 -20.235 -18.962  0.00  0.00    +0.155 HD
ENDROOT
BRANCH   2   6
ATOM      5  F   UNL     1      38.004 -18.248 -22.669  0.00  0.00    -0.201 F 
ATOM      6  C   UNL     1      35.368 -20.033 -20.909  0.00  0.00    +0.053 C 
ATOM      7  C   UNL     1      35.737 -18.601 -23.275  0.00  0.00    +0.173 C 
ATOM      8  C   UNL     1      36.616 -19.485 -21.206  0.00  0.00    +0.047 C 
ATOM      9  C   UNL     1      34.304 -19.865 -21.796  0.00  0.00    +0.018 C 
ATOM     10  C   UNL     1      36.801 -18.769 -22.389  0.00  0.00    +0.176 C 
ATOM     11  C   UNL     1      34.488 -19.148 -22.978  0.00  0.00    +0.041 C 
BRANCH   7  12
ATOM     12  O   UNL     1      35.919 -17.891 -24.446  0.00  0.00    -0.451 OA
BRANCH  12  16
ATOM     13  N   UNL     1      33.941 -13.991 -22.849  0.00  0.00    -0.297 N 
ATOM     14  N   UNL     1      33.444 -14.541 -25.140  0.00  0.00    -0.229 NA
ATOM     15  C   UNL     1      34.875 -15.856 -23.645  0.00  0.00    +0.067 C 
ATOM     16  C   UNL     1      35.121 -16.801 -24.655  0.00  0.00    +0.150 C 
ATOM     17  C   UNL     1      34.047 -14.784 -23.961  0.00  0.00    +0.135 C 
ATOM     18  C   UNL     1      35.270 -15.687 -22.291  0.00  0.00    +0.022 C 
ATOM     19  C   UNL     1      34.680 -14.531 -21.827  0.00  0.00    +0.063 C 
ATOM     20  C   UNL     1      34.521 -16.598 -25.897  0.00  0.00    +0.058 C 
ATOM     21  C   UNL     1      33.715 -15.482 -26.074  0.00  0.00    +0.103 C 
ATOM     22  H   UNL     1      33.414 -13.161 -22.790  0.00  0.00    +0.154 HD
ENDBRANCH  12  16
ENDBRANCH   7  12
ENDBRANCH   2   6
BRANCH   3  25
ATOM     23  O   UNL     1      32.843 -22.867 -18.527  0.00  0.00    -0.269 OA
ATOM     24  N   UNL     1      33.603 -23.342 -16.339  0.00  0.00    -0.233 N 
ATOM     25  C   UNL     1      35.120 -22.502 -18.117  0.00  0.00    +0.108 C 
ATOM     26  C   UNL     1      33.745 -22.936 -17.692  0.00  0.00    +0.261 C 
ATOM     27  C   UNL     1      34.691 -23.251 -15.470  0.00  0.00    +0.072 C 
ATOM     28  C   UNL     1      36.117 -22.450 -17.227  0.00  0.00    +0.010 C 
ATOM     29  C   UNL     1      35.896 -22.826 -15.862  0.00  0.00    +0.017 C 
BRANCH  24  31
ATOM     30  F   UNL     1      28.673 -25.201 -14.504  0.00  0.00    -0.204 F 
ATOM     31  C   UNL     1      32.322 -23.825 -15.862  0.00  0.00    +0.059 C 
ATOM     32  C   UNL     1      31.143 -23.209 -16.283  0.00  0.00    +0.018 C 
ATOM     33  C   UNL     1      32.268 -24.907 -14.981  0.00  0.00    +0.018 C 
ATOM     34  C   UNL     1      29.911 -23.674 -15.825  0.00  0.00    +0.031 C 
ATOM     35  C   UNL     1      31.035 -25.372 -14.523  0.00  0.00    +0.031 C 
ATOM     36  C   UNL     1      29.857 -24.756 -14.945  0.00  0.00    +0.140 C 
ENDBRANCH  24  31
ENDBRANCH   3  25
TORSDOF 5
ENDMDL
MODEL 6
REMARK VINA RESULT:     -12.1      1.059      2.062
REMARK  Name = 21081761
REMARK  5 active torsions:
REMARK  status: ('A' for Active; 'I' for Inactive)
REMARK    1  A    between atoms: N_2  and  C_6
REMARK    2  A    between atoms: C_3  and  C_25
REMARK    3  A    between atoms: C_7  and  O_12
REMARK    4  A    between atoms: O_12  and  C_16
REMARK    5  A    between atoms: N_24  and  C_31
REMARK                            x       y       z     vdW  Elec       q    Type
REMARK                         _______ _______ _______ _____ _____    ______ ____
ROOT
ATOM      1  O   UNL     1      33.816 -23.795 -19.587  0.00  0.00    -0.270 OA
ATOM      2  N   UNL     1      34.505 -21.722 -18.695  0.00  0.00    -0.280 N 
ATOM      3  C   UNL     1      34.054 -23.043 -18.649  0.00  0.00    +0.254 C 
ATOM      4  H   UNL     1      34.638 -21.280 -17.825  0.00  0.00    +0.155 HD
ENDROOT
BRANCH   2   6
ATOM      5  F   UNL     1      37.655 -19.466 -21.497  0.00  0.00    -0.201 F 
ATOM      6  C   UNL     1      34.789 -20.952 -19.822  0.00  0.00    +0.053 C 
ATOM      7  C   UNL     1      35.355 -19.410 -22.077  0.00  0.00    +0.173 C 
ATOM      8  C   UNL     1      36.105 -20.585 -20.105  0.00  0.00    +0.047 C 
ATOM      9  C   UNL     1      33.756 -20.548 -20.669  0.00  0.00    +0.018 C 
ATOM     10  C   UNL     1      36.389 -19.814 -21.232  0.00  0.00    +0.176 C 
ATOM     11  C   UNL     1      34.039 -19.776 -21.795  0.00  0.00    +0.041 C 
BRANCH   7  12
ATOM     12  O   UNL     1      35.636 -18.644 -23.193  0.00  0.00    -0.451 OA
BRANCH  12  16
ATOM     13  N   UNL     1      34.084 -14.812 -25.335  0.00  0.00    -0.297 N 
ATOM     14  N   UNL     1      34.630 -14.547 -23.004  0.00  0.00    -0.229 NA
ATOM     15  C   UNL     1      34.831 -16.632 -24.279  0.00  0.00    +0.067 C 
ATOM     16  C   UNL     1      35.306 -17.319 -23.149  0.00  0.00    +0.150 C 
ATOM     17  C   UNL     1      34.524 -15.284 -24.125  0.00  0.00    +0.135 C 
ATOM     18  C   UNL     1      34.561 -16.965 -25.633  0.00  0.00    +0.022 C 
ATOM     19  C   UNL     1      34.103 -15.826 -26.258  0.00  0.00    +0.063 C 
ATOM     20  C   UNL     1      35.435 -16.603 -21.959  0.00  0.00    +0.058 C 
ATOM     21  C   UNL     1      35.092 -15.258 -21.949  0.00  0.00    +0.103 C 
ATOM     22  H   UNL     1      33.798 -13.887 -25.514  0.00  0.00    +0.154 HD
ENDBRANCH  12  16
ENDBRANCH   7  12
ENDBRANCH   2   6
BRANCH   3  25
ATOM     23  O   UNL     1      36.151 -23.620 -16.775  0.00  0.00    -0.269 OA
ATOM     24  N   UNL     1      34.669 -24.181 -15.020  0.00  0.00    -0.233 N 
ATOM     25  C   UNL     1      33.866 -23.525 -17.276  0.00  0.00    +0.108 C 
ATOM     26  C   UNL     1      35.011 -23.762 -16.333  0.00  0.00    +0.261 C 
ATOM     27  C   UNL     1      33.333 -24.421 -14.695  0.00  0.00    +0.072 C 
ATOM     28  C   UNL     1      32.608 -23.768 -16.888  0.00  0.00    +0.010 C 
ATOM     29  C   UNL     1      32.333 -24.239 -15.563  0.00  0.00    +0.017 C 
BRANCH  24  31
ATOM     30  F   UNL     1      38.680 -24.952 -11.219  0.00  0.00    -0.204 F 
ATOM     31  C   UNL     1      35.711 -24.382 -14.032  0.00  0.00    +0.059 C 
ATOM     32  C   UNL     1      35.820 -23.512 -12.947  0.00  0.00    +0.018 C 
ATOM     33  C   UNL     1      36.605 -25.445 -14.167  0.00  0.00    +0.018 C 
ATOM     34  C   UNL     1      36.822 -23.705 -11.996  0.00  0.00    +0.031 C 
ATOM     35  C   UNL     1      37.608 -25.638 -13.217  0.00  0.00    +0.031 C 
ATOM     36  C   UNL     1      37.716 -24.768 -12.131  0.00  0.00    +0.140 C 
ENDBRANCH  24  31
ENDBRANCH   3  25
TORSDOF 5
ENDMDL
MODEL 7
REMARK VINA RESULT:     -12.0      2.960     10.953
REMARK  Name = 21081761
REMARK  5 active torsions:
REMARK  status: ('A' for Active; 'I' for Inactive)
REMARK    1  A    between atoms: N_2  and  C_6
REMARK    2  A    between atoms: C_3  and  C_25
REMARK    3  A    between atoms: C_7  and  O_12
REMARK    4  A    between atoms: O_12  and  C_16
REMARK    5  A    between atoms: N_24  and  C_31
REMARK                            x       y       z     vdW  Elec       q    Type
REMARK                         _______ _______ _______ _____ _____    ______ ____
ROOT
ATOM      1  O   UNL     1      36.758 -17.913 -21.648  0.00  0.00    -0.270 OA
ATOM      2  N   UNL     1      34.687 -19.015 -21.892  0.00  0.00    -0.280 N 
ATOM      3  C   UNL     1      35.654 -18.045 -22.161  0.00  0.00    +0.254 C 
ATOM      4  H   UNL     1      33.854 -18.953 -22.414  0.00  0.00    +0.155 HD
ENDROOT
BRANCH   2   6
ATOM      5  F   UNL     1      32.547 -22.014 -18.843  0.00  0.00    -0.201 F 
ATOM      6  C   UNL     1      34.757 -20.063 -20.974  0.00  0.00    +0.053 C 
ATOM      7  C   UNL     1      34.897 -22.156 -19.135  0.00  0.00    +0.173 C 
ATOM      8  C   UNL     1      33.596 -20.526 -20.353  0.00  0.00    +0.047 C 
ATOM      9  C   UNL     1      35.988 -20.648 -20.675  0.00  0.00    +0.018 C 
ATOM     10  C   UNL     1      33.666 -21.573 -19.434  0.00  0.00    +0.176 C 
ATOM     11  C   UNL     1      36.058 -21.694 -19.755  0.00  0.00    +0.041 C 
BRANCH   7  12
ATOM     12  O   UNL     1      34.967 -23.193 -18.223  0.00  0.00    -0.451 OA
BRANCH  12  16
ATOM     13  N   UNL     1      35.581 -23.638 -13.630  0.00  0.00    -0.297 N 
ATOM     14  N   UNL     1      37.391 -22.586 -14.819  0.00  0.00    -0.229 NA
ATOM     15  C   UNL     1      35.317 -23.410 -15.835  0.00  0.00    +0.067 C 
ATOM     16  C   UNL     1      35.740 -23.004 -17.112  0.00  0.00    +0.150 C 
ATOM     17  C   UNL     1      36.180 -23.170 -14.770  0.00  0.00    +0.135 C 
ATOM     18  C   UNL     1      34.165 -24.043 -15.298  0.00  0.00    +0.022 C 
ATOM     19  C   UNL     1      34.355 -24.170 -13.939  0.00  0.00    +0.063 C 
ATOM     20  C   UNL     1      36.988 -22.393 -17.221  0.00  0.00    +0.058 C 
ATOM     21  C   UNL     1      37.747 -22.216 -16.072  0.00  0.00    +0.103 C 
ATOM     22  H   UNL     1      35.969 -23.599 -12.726  0.00  0.00    +0.154 HD
ENDBRANCH  12  16
ENDBRANCH   7  12
ENDBRANCH   2   6
BRANCH   3  25
ATOM     23  O   UNL     1      34.609 -15.411 -21.697  0.00  0.00    -0.269 OA
ATOM     24  N   UNL     1      34.398 -14.897 -23.995  0.00  0.00    -0.233 N 
ATOM     25  C   UNL     1      35.226 -17.099 -23.198  0.00  0.00    +0.108 C 
ATOM     26  C   UNL     1      34.731 -15.716 -22.883  0.00  0.00    +0.261 C 
ATOM     27  C   UNL     1      34.470 -15.420 -25.287  0.00  0.00    +0.072 C 
ATOM     28  C   UNL     1      35.276 -17.527 -24.465  0.00  0.00    +0.010 C 
ATOM     29  C   UNL     1      34.878 -16.668 -25.541  0.00  0.00    +0.017 C 
BRANCH  24  31
ATOM     30  F   UNL     1      32.721  -9.641 -23.170  0.00  0.00    -0.204 F 
ATOM     31  C   UNL     1      33.962 -13.531 -23.780  0.00  0.00    +0.059 C 
ATOM     32  C   UNL     1      34.475 -12.503 -24.572  0.00  0.00    +0.018 C 
ATOM     33  C   UNL     1      33.029 -13.245 -22.783  0.00  0.00    +0.018 C 
ATOM     34  C   UNL     1      34.055 -11.189 -24.366  0.00  0.00    +0.031 C 
ATOM     35  C   UNL     1      32.609 -11.931 -22.577  0.00  0.00    +0.031 C 
ATOM     36  C   UNL     1      33.122 -10.903 -23.368  0.00  0.00    +0.140 C 
ENDBRANCH  24  31
ENDBRANCH   3  25
TORSDOF 5
ENDMDL
MODEL 8
REMARK VINA RESULT:     -12.0      2.849     10.802
REMARK  Name = 21081761
REMARK  5 active torsions:
REMARK  status: ('A' for Active; 'I' for Inactive)
REMARK    1  A    between atoms: N_2  and  C_6
REMARK    2  A    between atoms: C_3  and  C_25
REMARK    3  A    between atoms: C_7  and  O_12
REMARK    4  A    between atoms: O_12  and  C_16
REMARK    5  A    between atoms: N_24  and  C_31
REMARK                            x       y       z     vdW  Elec       q    Type
REMARK                         _______ _______ _______ _____ _____    ______ ____
ROOT
ATOM      1  O   UNL     1      36.483 -17.630 -21.352  0.00  0.00    -0.270 OA
ATOM      2  N   UNL     1      34.587 -18.859 -22.033  0.00  0.00    -0.280 N 
ATOM      3  C   UNL     1      35.491 -17.795 -22.052  0.00  0.00    +0.254 C 
ATOM      4  H   UNL     1      33.846 -18.809 -22.679  0.00  0.00    +0.155 HD
ENDROOT
BRANCH   2   6
ATOM      5  F   UNL     1      37.014 -22.214 -19.641  0.00  0.00    -0.201 F 
ATOM      6  C   UNL     1      34.606 -19.984 -21.209  0.00  0.00    +0.053 C 
ATOM      7  C   UNL     1      34.643 -22.236 -19.562  0.00  0.00    +0.173 C 
ATOM      8  C   UNL     1      35.823 -20.550 -20.827  0.00  0.00    +0.047 C 
ATOM      9  C   UNL     1      33.407 -20.545 -20.765  0.00  0.00    +0.018 C 
ATOM     10  C   UNL     1      35.842 -21.677 -20.004  0.00  0.00    +0.176 C 
ATOM     11  C   UNL     1      33.426 -21.671 -19.943  0.00  0.00    +0.041 C 
BRANCH   7  12
ATOM     12  O   UNL     1      34.661 -23.353 -18.748  0.00  0.00    -0.451 OA
BRANCH  12  16
ATOM     13  N   UNL     1      32.455 -22.902 -14.673  0.00  0.00    -0.297 N 
ATOM     14  N   UNL     1      34.855 -22.717 -14.578  0.00  0.00    -0.229 NA
ATOM     15  C   UNL     1      33.543 -23.114 -16.611  0.00  0.00    +0.067 C 
ATOM     16  C   UNL     1      34.706 -23.148 -17.398  0.00  0.00    +0.150 C 
ATOM     17  C   UNL     1      33.700 -22.899 -15.246  0.00  0.00    +0.135 C 
ATOM     18  C   UNL     1      32.149 -23.248 -16.849  0.00  0.00    +0.022 C 
ATOM     19  C   UNL     1      31.505 -23.113 -15.639  0.00  0.00    +0.063 C 
ATOM     20  C   UNL     1      35.931 -22.966 -16.756  0.00  0.00    +0.058 C 
ATOM     21  C   UNL     1      35.941 -22.759 -15.384  0.00  0.00    +0.103 C 
ATOM     22  H   UNL     1      32.270 -22.773 -13.714  0.00  0.00    +0.154 HD
ENDBRANCH  12  16
ENDBRANCH   7  12
ENDBRANCH   2   6
BRANCH   3  25
ATOM     23  O   UNL     1      34.305 -15.234 -21.524  0.00  0.00    -0.269 OA
ATOM     24  N   UNL     1      34.336 -14.555 -23.789  0.00  0.00    -0.233 N 
ATOM     25  C   UNL     1      35.148 -16.786 -23.061  0.00  0.00    +0.108 C 
ATOM     26  C   UNL     1      34.571 -15.445 -22.707  0.00  0.00    +0.261 C 
ATOM     27  C   UNL     1      34.572 -14.977 -25.097  0.00  0.00    +0.072 C 
ATOM     28  C   UNL     1      35.356 -17.116 -24.341  0.00  0.00    +0.010 C 
ATOM     29  C   UNL     1      35.051 -16.190 -25.391  0.00  0.00    +0.017 C 
BRANCH  24  31
ATOM     30  F   UNL     1      32.386  -9.425 -22.788  0.00  0.00    -0.204 F 
ATOM     31  C   UNL     1      33.829 -13.221 -23.528  0.00  0.00    +0.059 C 
ATOM     32  C   UNL     1      34.319 -12.135 -24.254  0.00  0.00    +0.018 C 
ATOM     33  C   UNL     1      32.851 -13.025 -22.553  0.00  0.00    +0.018 C 
ATOM     34  C   UNL     1      33.831 -10.853 -24.004  0.00  0.00    +0.031 C 
ATOM     35  C   UNL     1      32.363 -11.742 -22.303  0.00  0.00    +0.031 C 
ATOM     36  C   UNL     1      32.853 -10.656 -23.029  0.00  0.00    +0.140 C 
ENDBRANCH  24  31
ENDBRANCH   3  25
TORSDOF 5
ENDMDL
MODEL 9
REMARK VINA RESULT:     -11.7      2.752     10.926
REMARK  Name = 21081761
REMARK  5 active torsions:
REMARK  status: ('A' for Active; 'I' for Inactive)
REMARK    1  A    between atoms: N_2  and  C_6
REMARK    2  A    between atoms: C_3  and  C_25
REMARK    3  A    between atoms: C_7  and  O_12
REMARK    4  A    between atoms: O_12  and  C_16
REMARK    5  A    between atoms: N_24  and  C_31
REMARK                            x       y       z     vdW  Elec       q    Type
REMARK                         _______ _______ _______ _____ _____    ______ ____
ROOT
ATOM      1  O   UNL     1      36.954 -19.681 -20.622  0.00  0.00    -0.270 OA
ATOM      2  N   UNL     1      34.820 -20.686 -20.688  0.00  0.00    -0.280 N 
ATOM      3  C   UNL     1      35.849 -19.848 -21.124  0.00  0.00    +0.254 C 
ATOM      4  H   UNL     1      33.999 -20.681 -21.230  0.00  0.00    +0.155 HD
ENDROOT
BRANCH   2   6
ATOM      5  F   UNL     1      32.464 -23.494 -17.617  0.00  0.00    -0.201 F 
ATOM      6  C   UNL     1      34.815 -21.530 -19.578  0.00  0.00    +0.053 C 
ATOM      7  C   UNL     1      34.805 -23.217 -17.355  0.00  0.00    +0.173 C 
ATOM      8  C   UNL     1      33.620 -22.103 -19.141  0.00  0.00    +0.047 C 
ATOM      9  C   UNL     1      36.006 -21.802 -18.903  0.00  0.00    +0.018 C 
ATOM     10  C   UNL     1      33.615 -22.946 -18.030  0.00  0.00    +0.176 C 
ATOM     11  C   UNL     1      36.001 -22.644 -17.791  0.00  0.00    +0.041 C 
BRANCH   7  12
ATOM     12  O   UNL     1      34.801 -24.051 -16.253  0.00  0.00    -0.451 OA
BRANCH  12  16
ATOM     13  N   UNL     1      38.335 -26.319 -14.243  0.00  0.00    -0.297 N 
ATOM     14  N   UNL     1      38.206 -23.963 -13.758  0.00  0.00    -0.229 NA
ATOM     15  C   UNL     1      36.650 -25.202 -15.192  0.00  0.00    +0.067 C 
ATOM     16  C   UNL     1      35.905 -24.040 -15.449  0.00  0.00    +0.150 C 
ATOM     17  C   UNL     1      37.758 -25.081 -14.358  0.00  0.00    +0.135 C 
ATOM     18  C   UNL     1      36.575 -26.566 -15.581  0.00  0.00    +0.022 C 
ATOM     19  C   UNL     1      37.623 -27.229 -14.982  0.00  0.00    +0.063 C 
ATOM     20  C   UNL     1      36.326 -22.852 -14.852  0.00  0.00    +0.058 C 
ATOM     21  C   UNL     1      37.451 -22.876 -14.039  0.00  0.00    +0.103 C 
ATOM     22  H   UNL     1      39.138 -26.524 -13.711  0.00  0.00    +0.154 HD
ENDBRANCH  12  16
ENDBRANCH   7  12
ENDBRANCH   2   6
BRANCH   3  25
ATOM     23  O   UNL     1      35.213 -17.051 -21.250  0.00  0.00    -0.269 OA
ATOM     24  N   UNL     1      34.929 -17.041 -23.598  0.00  0.00    -0.233 N 
ATOM     25  C   UNL     1      35.491 -19.106 -22.338  0.00  0.00    +0.108 C 
ATOM     26  C   UNL     1      35.215 -17.629 -22.337  0.00  0.00    +0.261 C 
ATOM     27  C   UNL     1      34.845 -17.846 -24.735  0.00  0.00    +0.072 C 
ATOM     28  C   UNL     1      35.400 -19.810 -23.472  0.00  0.00    +0.010 C 
ATOM     29  C   UNL     1      35.058 -19.165 -24.705  0.00  0.00    +0.017 C 
BRANCH  24  31
ATOM     30  F   UNL     1      34.056 -11.543 -23.962  0.00  0.00    -0.204 F 
ATOM     31  C   UNL     1      34.702 -15.612 -23.693  0.00  0.00    +0.059 C 
ATOM     32  C   UNL     1      34.269 -15.053 -24.895  0.00  0.00    +0.018 C 
ATOM     33  C   UNL     1      34.917 -14.796 -22.581  0.00  0.00    +0.018 C 
ATOM     34  C   UNL     1      34.050 -13.678 -24.986  0.00  0.00    +0.031 C 
ATOM     35  C   UNL     1      34.698 -13.422 -22.672  0.00  0.00    +0.031 C 
ATOM     36  C   UNL     1      34.265 -12.863 -23.874  0.00  0.00    +0.140 C 
ENDBRANCH  24  31
ENDBRANCH   3  25
TORSDOF 5
ENDMDL
