MODEL 1
REMARK VINA RESULT:     -11.7      0.000      0.000
REMARK  Name = 4369498
REMARK  8 active torsions:
REMARK  status: ('A' for Active; 'I' for Inactive)
REMARK    1  A    between atoms: N_2  and  C_11
REMARK    2  A    between atoms: C_5  and  C_25
REMARK    3  A    between atoms: C_8  and  S_14
REMARK    4  A    between atoms: C_13  and  O_23
REMARK    5  A    between atoms: S_14  and  N_17
REMARK    6  A    between atoms: N_17  and  C_19
REMARK    7  A    between atoms: C_19  and  C_20
REMARK    8  A    between atoms: C_26  and  C_32
REMARK                            x       y       z     vdW  Elec       q    Type
REMARK                         _______ _______ _______ _____ _____    ______ ____
ROOT
ATOM      1  O   UNL     1      33.665 -11.370 -23.273  0.00  0.00    -0.424 OA
ATOM      2  N   UNL     1      34.349 -13.410 -24.079  0.00  0.00    -0.265 N 
ATOM      3  N   UNL     1      32.414 -13.155 -22.671  0.00  0.00    -0.193 NA
ATOM      4  C   UNL     1      33.457 -12.714 -23.338  0.00  0.00    +0.293 C 
ATOM      5  C   UNL     1      32.647 -10.927 -22.483  0.00  0.00    +0.168 C 
ATOM      6  C   UNL     1      31.892 -12.014 -22.120  0.00  0.00    +0.141 C 
ATOM      7  H   UNL     1      35.056 -12.866 -24.494  0.00  0.00    +0.157 HD
ENDROOT
BRANCH   2  11
ATOM      8  C   UNL     1      35.145 -17.016 -23.699  0.00  0.00    +0.123 C 
ATOM      9  C   UNL     1      35.059 -15.647 -23.441  0.00  0.00    +0.038 C 
ATOM     10  C   UNL     1      34.598 -17.540 -24.870  0.00  0.00    +0.023 C 
ATOM     11  C   UNL     1      34.427 -14.804 -24.354  0.00  0.00    +0.087 C 
ATOM     12  C   UNL     1      33.966 -16.697 -25.783  0.00  0.00    +0.040 C 
ATOM     13  C   UNL     1      33.879 -15.329 -25.525  0.00  0.00    +0.152 C 
BRANCH   8  14
ATOM     14  S   UNL     1      35.941 -18.072 -22.558  0.00  0.00    +0.060 S 
ATOM     15  O   UNL     1      37.203 -18.519 -23.133  0.00  0.00    -0.153 OA
ATOM     16  O   UNL     1      35.942 -17.406 -21.263  0.00  0.00    -0.153 OA
BRANCH  14  17
ATOM     17  N   UNL     1      34.872 -19.405 -22.484  0.00  0.00    -0.179 NA
ATOM     18  H   UNL     1      35.274 -20.138 -23.067  0.00  0.00    +0.149 HD
BRANCH  17  19
ATOM     19  C   UNL     1      34.558 -20.019 -21.186  0.00  0.00    +0.091 C 
BRANCH  19  20
ATOM     20  C   UNL     1      35.537 -21.098 -20.861  0.00  0.00    +0.017 C 
ATOM     21  C   UNL     1      36.533 -20.877 -19.759  0.00  0.00    +0.001 C 
ATOM     22  C   UNL     1      35.403 -21.844 -19.565  0.00  0.00    +0.001 C 
ENDBRANCH  19  20
ENDBRANCH  17  19
ENDBRANCH  14  17
ENDBRANCH   8  14
BRANCH  13  23
ATOM     23  O   UNL     1      33.258 -14.521 -26.431  0.00  0.00    -0.470 OA
ATOM     24  C   UNL     1      34.085 -13.882 -27.401  0.00  0.00    +0.253 C 
ENDBRANCH  13  23
ENDBRANCH   2  11
BRANCH   5  25
ATOM     25  C   UNL     1      32.605  -9.509 -22.227  0.00  0.00    +0.036 C 
ATOM     26  C   UNL     1      32.934  -7.235 -22.977  0.00  0.00    +0.002 C 
ATOM     27  C   UNL     1      32.975  -8.607 -23.225  0.00  0.00    +0.003 C 
ATOM     28  C   UNL     1      32.192  -9.037 -20.980  0.00  0.00    +0.003 C 
ATOM     29  C   UNL     1      32.521  -6.765 -21.730  0.00  0.00    +0.000 C 
ATOM     30  C   UNL     1      32.150  -7.666 -20.732  0.00  0.00    +0.000 C 
BRANCH  26  32
ATOM     31  N   UNL     1      32.791  -4.338 -25.322  0.00  0.00    -0.242 NA
ATOM     32  C   UNL     1      33.318  -6.301 -24.011  0.00  0.00    +0.019 C 
ATOM     33  C   UNL     1      34.529  -6.431 -24.682  0.00  0.00    +0.003 C 
ATOM     34  C   UNL     1      32.492  -5.246 -24.366  0.00  0.00    +0.099 C 
ATOM     35  C   UNL     1      34.871  -5.517 -25.672  0.00  0.00    +0.021 C 
ATOM     36  C   UNL     1      33.975  -4.498 -25.952  0.00  0.00    +0.099 C 
ENDBRANCH  26  32
ENDBRANCH   5  25
TORSDOF 8
ENDMDL
MODEL 2
REMARK VINA RESULT:     -11.2      5.529     10.548
REMARK  Name = 4369498
REMARK  8 active torsions:
REMARK  status: ('A' for Active; 'I' for Inactive)
REMARK    1  A    between atoms: N_2  and  C_11
REMARK    2  A    between atoms: C_5  and  C_25
REMARK    3  A    between atoms: C_8  and  S_14
REMARK    4  A    between atoms: C_13  and  O_23
REMARK    5  A    between atoms: S_14  and  N_17
REMARK    6  A    between atoms: N_17  and  C_19
REMARK    7  A    between atoms: C_19  and  C_20
REMARK    8  A    between atoms: C_26  and  C_32
REMARK                            x       y       z     vdW  Elec       q    Type
REMARK                         _______ _______ _______ _____ _____    ______ ____
ROOT
ATOM      1  O   UNL     1      34.035 -20.847 -20.315  0.00  0.00    -0.424 OA
ATOM      2  N   UNL     1      33.251 -22.111 -18.564  0.00  0.00    -0.265 N 
ATOM      3  N   UNL     1      35.597 -21.859 -19.031  0.00  0.00    -0.193 NA
ATOM      4  C   UNL     1      34.320 -21.646 -19.250  0.00  0.00    +0.293 C 
ATOM      5  C   UNL     1      35.263 -20.529 -20.812  0.00  0.00    +0.168 C 
ATOM      6  C   UNL     1      36.207 -21.145 -20.029  0.00  0.00    +0.141 C 
ATOM      7  H   UNL     1      32.377 -21.820 -18.911  0.00  0.00    +0.157 HD
ENDROOT
BRANCH   2  11
ATOM      8  C   UNL     1      34.312 -24.371 -15.816  0.00  0.00    +0.123 C 
ATOM      9  C   UNL     1      34.359 -23.538 -16.935  0.00  0.00    +0.038 C 
ATOM     10  C   UNL     1      33.095 -24.620 -15.183  0.00  0.00    +0.023 C 
ATOM     11  C   UNL     1      33.188 -22.956 -17.420  0.00  0.00    +0.087 C 
ATOM     12  C   UNL     1      31.924 -24.038 -15.669  0.00  0.00    +0.040 C 
ATOM     13  C   UNL     1      31.971 -23.206 -16.787  0.00  0.00    +0.152 C 
BRANCH   8  14
ATOM     14  S   UNL     1      35.777 -25.104 -15.210  0.00  0.00    +0.060 S 
ATOM     15  O   UNL     1      35.825 -24.929 -13.763  0.00  0.00    -0.153 OA
ATOM     16  O   UNL     1      35.868 -26.445 -15.770  0.00  0.00    -0.153 OA
BRANCH  14  17
ATOM     17  N   UNL     1      36.994 -24.134 -15.918  0.00  0.00    -0.179 NA
ATOM     18  H   UNL     1      36.614 -23.190 -15.991  0.00  0.00    +0.149 HD
BRANCH  17  19
ATOM     19  C   UNL     1      38.306 -24.014 -15.264  0.00  0.00    +0.091 C 
BRANCH  19  20
ATOM     20  C   UNL     1      38.936 -25.355 -15.093  0.00  0.00    +0.017 C 
ATOM     21  C   UNL     1      40.398 -25.442 -14.761  0.00  0.00    +0.001 C 
ATOM     22  C   UNL     1      39.371 -25.792 -13.725  0.00  0.00    +0.001 C 
ENDBRANCH  19  20
ENDBRANCH  17  19
ENDBRANCH  14  17
ENDBRANCH   8  14
BRANCH  13  23
ATOM     23  O   UNL     1      30.815 -22.648 -17.247  0.00  0.00    -0.470 OA
ATOM     24  C   UNL     1      29.621 -22.948 -16.528  0.00  0.00    +0.253 C 
ENDBRANCH  13  23
ENDBRANCH   2  11
BRANCH   5  25
ATOM     25  C   UNL     1      35.282 -19.672 -21.972  0.00  0.00    +0.036 C 
ATOM     26  C   UNL     1      35.149 -17.466 -22.948  0.00  0.00    +0.002 C 
ATOM     27  C   UNL     1      35.129 -18.294 -21.826  0.00  0.00    +0.003 C 
ATOM     28  C   UNL     1      35.455 -20.224 -23.242  0.00  0.00    +0.003 C 
ATOM     29  C   UNL     1      35.321 -18.018 -24.218  0.00  0.00    +0.000 C 
ATOM     30  C   UNL     1      35.475 -19.397 -24.365  0.00  0.00    +0.000 C 
BRANCH  26  32
ATOM     31  N   UNL     1      34.875 -13.851 -23.825  0.00  0.00    -0.242 NA
ATOM     32  C   UNL     1      34.989 -16.037 -22.797  0.00  0.00    +0.019 C 
ATOM     33  C   UNL     1      34.802 -15.464 -21.544  0.00  0.00    +0.003 C 
ATOM     34  C   UNL     1      35.018 -15.193 -23.896  0.00  0.00    +0.099 C 
ATOM     35  C   UNL     1      34.652 -14.087 -21.430  0.00  0.00    +0.021 C 
ATOM     36  C   UNL     1      34.696 -13.332 -22.590  0.00  0.00    +0.099 C 
ENDBRANCH  26  32
ENDBRANCH   5  25
TORSDOF 8
ENDMDL
MODEL 3
REMARK VINA RESULT:     -10.8      6.914     11.557
REMARK  Name = 4369498
REMARK  8 active torsions:
REMARK  status: ('A' for Active; 'I' for Inactive)
REMARK    1  A    between atoms: N_2  and  C_11
REMARK    2  A    between atoms: C_5  and  C_25
REMARK    3  A    between atoms: C_8  and  S_14
REMARK    4  A    between atoms: C_13  and  O_23
REMARK    5  A    between atoms: S_14  and  N_17
REMARK    6  A    between atoms: N_17  and  C_19
REMARK    7  A    between atoms: C_19  and  C_20
REMARK    8  A    between atoms: C_26  and  C_32
REMARK                            x       y       z     vdW  Elec       q    Type
REMARK                         _______ _______ _______ _____ _____    ______ ____
ROOT
ATOM      1  O   UNL     1      35.301 -21.341 -19.168  0.00  0.00    -0.424 OA
ATOM      2  N   UNL     1      34.665 -22.657 -17.395  0.00  0.00    -0.265 N 
ATOM      3  N   UNL     1      33.143 -22.018 -19.146  0.00  0.00    -0.193 NA
ATOM      4  C   UNL     1      34.311 -22.039 -18.545  0.00  0.00    +0.293 C 
ATOM      5  C   UNL     1      34.686 -20.832 -20.272  0.00  0.00    +0.168 C 
ATOM      6  C   UNL     1      33.378 -21.245 -20.254  0.00  0.00    +0.141 C 
ATOM      7  H   UNL     1      35.605 -22.535 -17.132  0.00  0.00    +0.157 HD
ENDROOT
BRANCH   2  11
ATOM      8  C   UNL     1      31.741 -24.047 -15.577  0.00  0.00    +0.123 C 
ATOM      9  C   UNL     1      32.511 -23.273 -16.447  0.00  0.00    +0.038 C 
ATOM     10  C   UNL     1      32.354 -25.004 -14.768  0.00  0.00    +0.023 C 
ATOM     11  C   UNL     1      33.892 -23.456 -16.506  0.00  0.00    +0.087 C 
ATOM     12  C   UNL     1      33.736 -25.186 -14.827  0.00  0.00    +0.040 C 
ATOM     13  C   UNL     1      34.505 -24.413 -15.697  0.00  0.00    +0.152 C 
BRANCH   8  14
ATOM     14  S   UNL     1      30.012 -23.817 -15.499  0.00  0.00    +0.060 S 
ATOM     15  O   UNL     1      29.386 -25.083 -15.136  0.00  0.00    -0.153 OA
ATOM     16  O   UNL     1      29.757 -22.636 -14.686  0.00  0.00    -0.153 OA
BRANCH  14  17
ATOM     17  N   UNL     1      29.615 -23.458 -17.123  0.00  0.00    -0.179 NA
ATOM     18  H   UNL     1      30.054 -24.175 -17.700  0.00  0.00    +0.149 HD
BRANCH  17  19
ATOM     19  C   UNL     1      28.205 -23.386 -17.532  0.00  0.00    +0.091 C 
BRANCH  19  20
ATOM     20  C   UNL     1      27.598 -22.089 -17.114  0.00  0.00    +0.017 C 
ATOM     21  C   UNL     1      26.339 -21.619 -17.783  0.00  0.00    +0.001 C 
ATOM     22  C   UNL     1      26.299 -22.096 -16.361  0.00  0.00    +0.001 C 
ENDBRANCH  19  20
ENDBRANCH  17  19
ENDBRANCH  14  17
ENDBRANCH   8  14
BRANCH  13  23
ATOM     23  O   UNL     1      35.853 -24.605 -15.739  0.00  0.00    -0.470 OA
ATOM     24  C   UNL     1      36.335 -25.893 -15.359  0.00  0.00    +0.253 C 
ENDBRANCH  13  23
ENDBRANCH   2  11
BRANCH   5  25
ATOM     25  C   UNL     1      35.503 -20.027 -21.146  0.00  0.00    +0.036 C 
ATOM     26  C   UNL     1      35.697 -18.452 -22.968  0.00  0.00    +0.002 C 
ATOM     27  C   UNL     1      34.907 -19.230 -22.123  0.00  0.00    +0.003 C 
ATOM     28  C   UNL     1      36.892 -20.044 -21.013  0.00  0.00    +0.003 C 
ATOM     29  C   UNL     1      37.086 -18.470 -22.835  0.00  0.00    +0.000 C 
ATOM     30  C   UNL     1      37.684 -19.266 -21.857  0.00  0.00    +0.000 C 
BRANCH  26  32
ATOM     31  N   UNL     1      33.810 -17.481 -26.035  0.00  0.00    -0.242 NA
ATOM     32  C   UNL     1      35.079 -17.626 -23.982  0.00  0.00    +0.019 C 
ATOM     33  C   UNL     1      35.136 -16.239 -23.911  0.00  0.00    +0.003 C 
ATOM     34  C   UNL     1      34.409 -18.193 -25.055  0.00  0.00    +0.099 C 
ATOM     35  C   UNL     1      34.532 -15.473 -24.901  0.00  0.00    +0.021 C 
ATOM     36  C   UNL     1      33.887 -16.136 -25.933  0.00  0.00    +0.099 C 
ENDBRANCH  26  32
ENDBRANCH   5  25
TORSDOF 8
ENDMDL
MODEL 4
REMARK VINA RESULT:     -10.8      2.922     11.211
REMARK  Name = 4369498
REMARK  8 active torsions:
REMARK  status: ('A' for Active; 'I' for Inactive)
REMARK    1  A    between atoms: N_2  and  C_11
REMARK    2  A    between atoms: C_5  and  C_25
REMARK    3  A    between atoms: C_8  and  S_14
REMARK    4  A    between atoms: C_13  and  O_23
REMARK    5  A    between atoms: S_14  and  N_17
REMARK    6  A    between atoms: N_17  and  C_19
REMARK    7  A    between atoms: C_19  and  C_20
REMARK    8  A    between atoms: C_26  and  C_32
REMARK                            x       y       z     vdW  Elec       q    Type
REMARK                         _______ _______ _______ _____ _____    ______ ____
ROOT
ATOM      1  O   UNL     1      33.308 -13.590 -23.095  0.00  0.00    -0.424 OA
ATOM      2  N   UNL     1      32.541 -11.679 -22.076  0.00  0.00    -0.265 N 
ATOM      3  N   UNL     1      33.998 -11.631 -23.990  0.00  0.00    -0.193 NA
ATOM      4  C   UNL     1      33.288 -12.229 -23.061  0.00  0.00    +0.293 C 
ATOM      5  C   UNL     1      34.116 -13.870 -24.156  0.00  0.00    +0.168 C 
ATOM      6  C   UNL     1      34.532 -12.679 -24.696  0.00  0.00    +0.141 C 
ATOM      7  H   UNL     1      32.089 -12.327 -21.488  0.00  0.00    +0.157 HD
ENDROOT
BRANCH   2  11
ATOM      8  C   UNL     1      31.850  -8.055 -22.485  0.00  0.00    +0.123 C 
ATOM      9  C   UNL     1      32.080  -9.398 -22.785  0.00  0.00    +0.038 C 
ATOM     10  C   UNL     1      31.842  -7.628 -21.157  0.00  0.00    +0.023 C 
ATOM     11  C   UNL     1      32.304 -10.313 -21.756  0.00  0.00    +0.087 C 
ATOM     12  C   UNL     1      32.065  -8.544 -20.128  0.00  0.00    +0.040 C 
ATOM     13  C   UNL     1      32.296  -9.886 -20.428  0.00  0.00    +0.152 C 
BRANCH   8  14
ATOM     14  S   UNL     1      31.574  -6.907 -23.772  0.00  0.00    +0.060 S 
ATOM     15  O   UNL     1      31.065  -7.621 -24.936  0.00  0.00    -0.153 OA
ATOM     16  O   UNL     1      30.804  -5.799 -23.221  0.00  0.00    -0.153 OA
BRANCH  14  17
ATOM     17  N   UNL     1      33.154  -6.354 -24.117  0.00  0.00    -0.179 NA
ATOM     18  H   UNL     1      33.595  -7.066 -24.698  0.00  0.00    +0.149 HD
BRANCH  17  19
ATOM     19  C   UNL     1      33.345  -5.067 -24.802  0.00  0.00    +0.091 C 
BRANCH  19  20
ATOM     20  C   UNL     1      33.920  -5.273 -26.163  0.00  0.00    +0.017 C 
ATOM     21  C   UNL     1      34.910  -4.280 -26.700  0.00  0.00    +0.001 C 
ATOM     22  C   UNL     1      35.365  -5.652 -26.300  0.00  0.00    +0.001 C 
ENDBRANCH  19  20
ENDBRANCH  17  19
ENDBRANCH  14  17
ENDBRANCH   8  14
BRANCH  13  23
ATOM     23  O   UNL     1      32.513 -10.765 -19.409  0.00  0.00    -0.470 OA
ATOM     24  C   UNL     1      31.367 -11.224 -18.695  0.00  0.00    +0.253 C 
ENDBRANCH  13  23
ENDBRANCH   2  11
BRANCH   5  25
ATOM     25  C   UNL     1      34.332 -15.266 -24.446  0.00  0.00    +0.036 C 
ATOM     26  C   UNL     1      35.098 -17.453 -23.761  0.00  0.00    +0.002 C 
ATOM     27  C   UNL     1      34.890 -16.103 -23.480  0.00  0.00    +0.003 C 
ATOM     28  C   UNL     1      33.981 -15.781 -25.695  0.00  0.00    +0.003 C 
ATOM     29  C   UNL     1      34.747 -17.967 -25.010  0.00  0.00    +0.000 C 
ATOM     30  C   UNL     1      34.188 -17.131 -25.977  0.00  0.00    +0.000 C 
BRANCH  26  32
ATOM     31  N   UNL     1      37.617 -18.985 -21.476  0.00  0.00    -0.242 NA
ATOM     32  C   UNL     1      35.678 -18.320 -22.759  0.00  0.00    +0.019 C 
ATOM     33  C   UNL     1      34.915 -19.292 -22.123  0.00  0.00    +0.003 C 
ATOM     34  C   UNL     1      37.013 -18.208 -22.403  0.00  0.00    +0.099 C 
ATOM     35  C   UNL     1      35.501 -20.110 -21.164  0.00  0.00    +0.021 C 
ATOM     36  C   UNL     1      36.843 -19.918 -20.879  0.00  0.00    +0.099 C 
ENDBRANCH  26  32
ENDBRANCH   5  25
TORSDOF 8
ENDMDL
MODEL 5
REMARK VINA RESULT:     -10.6      5.122     10.098
REMARK  Name = 4369498
REMARK  8 active torsions:
REMARK  status: ('A' for Active; 'I' for Inactive)
REMARK    1  A    between atoms: N_2  and  C_11
REMARK    2  A    between atoms: C_5  and  C_25
REMARK    3  A    between atoms: C_8  and  S_14
REMARK    4  A    between atoms: C_13  and  O_23
REMARK    5  A    between atoms: S_14  and  N_17
REMARK    6  A    between atoms: N_17  and  C_19
REMARK    7  A    between atoms: C_19  and  C_20
REMARK    8  A    between atoms: C_26  and  C_32
REMARK                            x       y       z     vdW  Elec       q    Type
REMARK                         _______ _______ _______ _____ _____    ______ ____
ROOT
ATOM      1  O   UNL     1      34.571 -20.571 -21.014  0.00  0.00    -0.424 OA
ATOM      2  N   UNL     1      34.283 -21.892 -19.156  0.00  0.00    -0.265 N 
ATOM      3  N   UNL     1      36.362 -20.786 -19.649  0.00  0.00    -0.193 NA
ATOM      4  C   UNL     1      35.109 -21.106 -19.883  0.00  0.00    +0.293 C 
ATOM      5  C   UNL     1      35.595 -19.842 -21.540  0.00  0.00    +0.168 C 
ATOM      6  C   UNL     1      36.679 -19.975 -20.708  0.00  0.00    +0.141 C 
ATOM      7  H   UNL     1      33.376 -21.993 -19.526  0.00  0.00    +0.157 HD
ENDROOT
BRANCH   2  11
ATOM      8  C   UNL     1      36.060 -23.379 -16.255  0.00  0.00    +0.123 C 
ATOM      9  C   UNL     1      35.816 -22.688 -17.443  0.00  0.00    +0.038 C 
ATOM     10  C   UNL     1      35.004 -23.978 -15.568  0.00  0.00    +0.023 C 
ATOM     11  C   UNL     1      34.517 -22.598 -17.942  0.00  0.00    +0.087 C 
ATOM     12  C   UNL     1      33.705 -23.887 -16.068  0.00  0.00    +0.040 C 
ATOM     13  C   UNL     1      33.461 -23.196 -17.255  0.00  0.00    +0.152 C 
BRANCH   8  14
ATOM     14  S   UNL     1      37.686 -23.498 -15.631  0.00  0.00    +0.060 S 
ATOM     15  O   UNL     1      38.026 -24.906 -15.470  0.00  0.00    -0.153 OA
ATOM     16  O   UNL     1      38.539 -22.647 -16.450  0.00  0.00    -0.153 OA
BRANCH  14  17
ATOM     17  N   UNL     1      37.538 -22.790 -14.082  0.00  0.00    -0.179 NA
ATOM     18  H   UNL     1      36.630 -22.326 -14.055  0.00  0.00    +0.149 HD
BRANCH  17  19
ATOM     19  C   UNL     1      37.620 -23.634 -12.881  0.00  0.00    +0.091 C 
BRANCH  19  20
ATOM     20  C   UNL     1      36.352 -23.564 -12.098  0.00  0.00    +0.017 C 
ATOM     21  C   UNL     1      35.480 -24.782 -12.003  0.00  0.00    +0.001 C 
ATOM     22  C   UNL     1      36.247 -24.314 -10.802  0.00  0.00    +0.001 C 
ENDBRANCH  19  20
ENDBRANCH  17  19
ENDBRANCH  14  17
ENDBRANCH   8  14
BRANCH  13  23
ATOM     23  O   UNL     1      32.185 -23.119 -17.727  0.00  0.00    -0.470 OA
ATOM     24  C   UNL     1      31.146 -22.971 -16.761  0.00  0.00    +0.253 C 
ENDBRANCH  13  23
ENDBRANCH   2  11
BRANCH   5  25
ATOM     25  C   UNL     1      35.318 -19.144 -22.771  0.00  0.00    +0.036 C 
ATOM     26  C   UNL     1      34.853 -17.089 -23.955  0.00  0.00    +0.002 C 
ATOM     27  C   UNL     1      35.120 -17.763 -22.764  0.00  0.00    +0.003 C 
ATOM     28  C   UNL     1      35.249 -19.851 -23.972  0.00  0.00    +0.003 C 
ATOM     29  C   UNL     1      34.783 -17.797 -25.155  0.00  0.00    +0.000 C 
ATOM     30  C   UNL     1      34.981 -19.178 -25.164  0.00  0.00    +0.000 C 
BRANCH  26  32
ATOM     31  N   UNL     1      34.779 -13.560 -22.751  0.00  0.00    -0.242 NA
ATOM     32  C   UNL     1      34.647 -15.658 -23.946  0.00  0.00    +0.019 C 
ATOM     33  C   UNL     1      34.141 -14.999 -25.061  0.00  0.00    +0.003 C 
ATOM     34  C   UNL     1      34.947 -14.899 -22.825  0.00  0.00    +0.099 C 
ATOM     35  C   UNL     1      33.954 -13.622 -25.022  0.00  0.00    +0.021 C 
ATOM     36  C   UNL     1      34.285 -12.955 -23.854  0.00  0.00    +0.099 C 
ENDBRANCH  26  32
ENDBRANCH   5  25
TORSDOF 8
ENDMDL
MODEL 6
REMARK VINA RESULT:     -10.4      7.495     11.784
REMARK  Name = 4369498
REMARK  8 active torsions:
REMARK  status: ('A' for Active; 'I' for Inactive)
REMARK    1  A    between atoms: N_2  and  C_11
REMARK    2  A    between atoms: C_5  and  C_25
REMARK    3  A    between atoms: C_8  and  S_14
REMARK    4  A    between atoms: C_13  and  O_23
REMARK    5  A    between atoms: S_14  and  N_17
REMARK    6  A    between atoms: N_17  and  C_19
REMARK    7  A    between atoms: C_19  and  C_20
REMARK    8  A    between atoms: C_26  and  C_32
REMARK                            x       y       z     vdW  Elec       q    Type
REMARK                         _______ _______ _______ _____ _____    ______ ____
ROOT
ATOM      1  O   UNL     1      36.263 -21.188 -18.895  0.00  0.00    -0.424 OA
ATOM      2  N   UNL     1      36.006 -22.438 -16.984  0.00  0.00    -0.265 N 
ATOM      3  N   UNL     1      34.396 -22.459 -18.772  0.00  0.00    -0.193 NA
ATOM      4  C   UNL     1      35.509 -22.075 -18.188  0.00  0.00    +0.293 C 
ATOM      5  C   UNL     1      35.546 -21.000 -20.038  0.00  0.00    +0.168 C 
ATOM      6  C   UNL     1      34.415 -21.773 -19.959  0.00  0.00    +0.141 C 
ATOM      7  H   UNL     1      36.865 -22.019 -16.748  0.00  0.00    +0.157 HD
ENDROOT
BRANCH   2  11
ATOM      8  C   UNL     1      33.603 -24.143 -14.725  0.00  0.00    +0.123 C 
ATOM      9  C   UNL     1      34.128 -23.277 -15.686  0.00  0.00    +0.038 C 
ATOM     10  C   UNL     1      34.436 -25.060 -14.084  0.00  0.00    +0.023 C 
ATOM     11  C   UNL     1      35.484 -23.329 -16.004  0.00  0.00    +0.087 C 
ATOM     12  C   UNL     1      35.793 -25.111 -14.403  0.00  0.00    +0.040 C 
ATOM     13  C   UNL     1      36.317 -24.246 -15.364  0.00  0.00    +0.152 C 
BRANCH   8  14
ATOM     14  S   UNL     1      31.905 -24.077 -14.323  0.00  0.00    +0.060 S 
ATOM     15  O   UNL     1      31.277 -25.325 -14.734  0.00  0.00    -0.153 OA
ATOM     16  O   UNL     1      31.794 -23.644 -12.936  0.00  0.00    -0.153 OA
BRANCH  14  17
ATOM     17  N   UNL     1      31.336 -22.820 -15.332  0.00  0.00    -0.179 NA
ATOM     18  H   UNL     1      31.658 -23.031 -16.277  0.00  0.00    +0.149 HD
BRANCH  17  19
ATOM     19  C   UNL     1      29.894 -22.552 -15.425  0.00  0.00    +0.091 C 
BRANCH  19  20
ATOM     20  C   UNL     1      29.374 -22.915 -16.776  0.00  0.00    +0.017 C 
ATOM     21  C   UNL     1      28.460 -24.097 -16.918  0.00  0.00    +0.001 C 
ATOM     22  C   UNL     1      27.920 -22.707 -17.083  0.00  0.00    +0.001 C 
ENDBRANCH  19  20
ENDBRANCH  17  19
ENDBRANCH  14  17
ENDBRANCH   8  14
BRANCH  13  23
ATOM     23  O   UNL     1      37.646 -24.311 -15.660  0.00  0.00    -0.470 OA
ATOM     24  C   UNL     1      38.449 -25.163 -14.845  0.00  0.00    +0.253 C 
ENDBRANCH  13  23
ENDBRANCH   2  11
BRANCH   5  25
ATOM     25  C   UNL     1      36.108 -20.088 -21.004  0.00  0.00    +0.036 C 
ATOM     26  C   UNL     1      35.861 -18.707 -22.971  0.00  0.00    +0.002 C 
ATOM     27  C   UNL     1      35.316 -19.588 -22.037  0.00  0.00    +0.003 C 
ATOM     28  C   UNL     1      37.446 -19.705 -20.904  0.00  0.00    +0.003 C 
ATOM     29  C   UNL     1      37.199 -18.324 -22.870  0.00  0.00    +0.000 C 
ATOM     30  C   UNL     1      37.991 -18.823 -21.836  0.00  0.00    +0.000 C 
BRANCH  26  32
ATOM     31  N   UNL     1      33.363 -18.592 -25.739  0.00  0.00    -0.242 NA
ATOM     32  C   UNL     1      35.039 -18.189 -24.043  0.00  0.00    +0.019 C 
ATOM     33  C   UNL     1      35.108 -16.853 -24.419  0.00  0.00    +0.003 C 
ATOM     34  C   UNL     1      34.158 -19.011 -24.729  0.00  0.00    +0.099 C 
ATOM     35  C   UNL     1      34.306 -16.385 -25.453  0.00  0.00    +0.021 C 
ATOM     36  C   UNL     1      33.458 -17.287 -26.075  0.00  0.00    +0.099 C 
ENDBRANCH  26  32
ENDBRANCH   5  25
TORSDOF 8
ENDMDL
MODEL 7
REMARK VINA RESULT:      -9.9      5.820     11.074
REMARK  Name = 4369498
REMARK  8 active torsions:
REMARK  status: ('A' for Active; 'I' for Inactive)
REMARK    1  A    between atoms: N_2  and  C_11
REMARK    2  A    between atoms: C_5  and  C_25
REMARK    3  A    between atoms: C_8  and  S_14
REMARK    4  A    between atoms: C_13  and  O_23
REMARK    5  A    between atoms: S_14  and  N_17
REMARK    6  A    between atoms: N_17  and  C_19
REMARK    7  A    between atoms: C_19  and  C_20
REMARK    8  A    between atoms: C_26  and  C_32
REMARK                            x       y       z     vdW  Elec       q    Type
REMARK                         _______ _______ _______ _____ _____    ______ ____
ROOT
ATOM      1  O   UNL     1      35.844 -20.957 -19.492  0.00  0.00    -0.424 OA
ATOM      2  N   UNL     1      36.027 -22.127 -17.523  0.00  0.00    -0.265 N 
ATOM      3  N   UNL     1      34.058 -22.214 -18.904  0.00  0.00    -0.193 NA
ATOM      4  C   UNL     1      35.271 -21.811 -18.599  0.00  0.00    +0.293 C 
ATOM      5  C   UNL     1      34.889 -20.813 -20.453  0.00  0.00    +0.168 C 
ATOM      6  C   UNL     1      33.808 -21.577 -20.091  0.00  0.00    +0.141 C 
ATOM      7  H   UNL     1      36.915 -21.702 -17.501  0.00  0.00    +0.157 HD
ENDROOT
BRANCH   2  11
ATOM      8  C   UNL     1      34.125 -23.973 -14.923  0.00  0.00    +0.123 C 
ATOM      9  C   UNL     1      34.419 -23.146 -16.009  0.00  0.00    +0.038 C 
ATOM     10  C   UNL     1      35.155 -24.627 -14.246  0.00  0.00    +0.023 C 
ATOM     11  C   UNL     1      35.741 -22.975 -16.416  0.00  0.00    +0.087 C 
ATOM     12  C   UNL     1      36.478 -24.455 -14.654  0.00  0.00    +0.040 C 
ATOM     13  C   UNL     1      36.771 -23.629 -15.739  0.00  0.00    +0.152 C 
BRANCH   8  14
ATOM     14  S   UNL     1      32.470 -24.186 -14.410  0.00  0.00    +0.060 S 
ATOM     15  O   UNL     1      32.108 -25.590 -14.563  0.00  0.00    -0.153 OA
ATOM     16  O   UNL     1      32.323 -23.549 -13.108  0.00  0.00    -0.153 OA
BRANCH  14  17
ATOM     17  N   UNL     1      31.605 -23.270 -15.565  0.00  0.00    -0.179 NA
ATOM     18  H   UNL     1      31.624 -23.800 -16.436  0.00  0.00    +0.149 HD
BRANCH  17  19
ATOM     19  C   UNL     1      30.200 -22.915 -15.314  0.00  0.00    +0.091 C 
BRANCH  19  20
ATOM     20  C   UNL     1      29.429 -22.878 -16.591  0.00  0.00    +0.017 C 
ATOM     21  C   UNL     1      28.506 -24.014 -16.924  0.00  0.00    +0.001 C 
ATOM     22  C   UNL     1      27.942 -22.677 -16.544  0.00  0.00    +0.001 C 
ENDBRANCH  19  20
ENDBRANCH  17  19
ENDBRANCH  14  17
ENDBRANCH   8  14
BRANCH  13  23
ATOM     23  O   UNL     1      38.070 -23.473 -16.121  0.00  0.00    -0.470 OA
ATOM     24  C   UNL     1      39.030 -24.339 -15.519  0.00  0.00    +0.253 C 
ENDBRANCH  13  23
ENDBRANCH   2  11
BRANCH   5  25
ATOM     25  C   UNL     1      35.216 -19.944 -21.556  0.00  0.00    +0.036 C 
ATOM     26  C   UNL     1      35.316 -17.730 -22.520  0.00  0.00    +0.002 C 
ATOM     27  C   UNL     1      34.999 -18.570 -21.453  0.00  0.00    +0.003 C 
ATOM     28  C   UNL     1      35.753 -20.477 -22.728  0.00  0.00    +0.003 C 
ATOM     29  C   UNL     1      35.852 -18.265 -23.692  0.00  0.00    +0.000 C 
ATOM     30  C   UNL     1      36.071 -19.638 -23.796  0.00  0.00    +0.000 C 
BRANCH  26  32
ATOM     31  N   UNL     1      34.929 -14.152 -23.500  0.00  0.00    -0.242 NA
ATOM     32  C   UNL     1      35.090 -16.306 -22.412  0.00  0.00    +0.019 C 
ATOM     33  C   UNL     1      34.822 -15.712 -21.184  0.00  0.00    +0.003 C 
ATOM     34  C   UNL     1      35.132 -15.488 -23.531  0.00  0.00    +0.099 C 
ATOM     35  C   UNL     1      34.609 -14.340 -21.113  0.00  0.00    +0.021 C 
ATOM     36  C   UNL     1      34.672 -13.612 -22.289  0.00  0.00    +0.099 C 
ENDBRANCH  26  32
ENDBRANCH   5  25
TORSDOF 8
ENDMDL
MODEL 8
REMARK VINA RESULT:      -9.6      2.492      4.355
REMARK  Name = 4369498
REMARK  8 active torsions:
REMARK  status: ('A' for Active; 'I' for Inactive)
REMARK    1  A    between atoms: N_2  and  C_11
REMARK    2  A    between atoms: C_5  and  C_25
REMARK    3  A    between atoms: C_8  and  S_14
REMARK    4  A    between atoms: C_13  and  O_23
REMARK    5  A    between atoms: S_14  and  N_17
REMARK    6  A    between atoms: N_17  and  C_19
REMARK    7  A    between atoms: C_19  and  C_20
REMARK    8  A    between atoms: C_26  and  C_32
REMARK                            x       y       z     vdW  Elec       q    Type
REMARK                         _______ _______ _______ _____ _____    ______ ____
ROOT
ATOM      1  O   UNL     1      31.749  -8.229 -22.815  0.00  0.00    -0.424 OA
ATOM      2  N   UNL     1      31.940 -10.506 -22.578  0.00  0.00    -0.265 N 
ATOM      3  N   UNL     1      33.064  -8.954 -21.124  0.00  0.00    -0.193 NA
ATOM      4  C   UNL     1      32.284  -9.277 -22.130  0.00  0.00    +0.293 C 
ATOM      5  C   UNL     1      32.248  -7.138 -22.168  0.00  0.00    +0.168 C 
ATOM      6  C   UNL     1      33.045  -7.583 -21.143  0.00  0.00    +0.141 C 
ATOM      7  H   UNL     1      31.336 -10.509 -23.356  0.00  0.00    +0.157 HD
ENDROOT
BRANCH   2  11
ATOM      8  C   UNL     1      33.491 -13.877 -22.449  0.00  0.00    +0.123 C 
ATOM      9  C   UNL     1      33.120 -12.609 -22.900  0.00  0.00    +0.038 C 
ATOM     10  C   UNL     1      33.056 -14.329 -21.203  0.00  0.00    +0.023 C 
ATOM     11  C   UNL     1      32.313 -11.796 -22.105  0.00  0.00    +0.087 C 
ATOM     12  C   UNL     1      32.249 -13.514 -20.408  0.00  0.00    +0.040 C 
ATOM     13  C   UNL     1      31.878 -12.247 -20.859  0.00  0.00    +0.152 C 
BRANCH   8  14
ATOM     14  S   UNL     1      34.497 -14.899 -23.445  0.00  0.00    +0.060 S 
ATOM     15  O   UNL     1      33.652 -15.597 -24.406  0.00  0.00    -0.153 OA
ATOM     16  O   UNL     1      35.610 -14.092 -23.928  0.00  0.00    -0.153 OA
BRANCH  14  17
ATOM     17  N   UNL     1      35.097 -16.036 -22.318  0.00  0.00    -0.179 NA
ATOM     18  H   UNL     1      34.387 -16.136 -21.594  0.00  0.00    +0.149 HD
BRANCH  17  19
ATOM     19  C   UNL     1      35.445 -17.393 -22.763  0.00  0.00    +0.091 C 
BRANCH  19  20
ATOM     20  C   UNL     1      35.638 -18.300 -21.593  0.00  0.00    +0.017 C 
ATOM     21  C   UNL     1      35.680 -19.784 -21.815  0.00  0.00    +0.001 C 
ATOM     22  C   UNL     1      36.932 -19.044 -21.448  0.00  0.00    +0.001 C 
ENDBRANCH  19  20
ENDBRANCH  17  19
ENDBRANCH  14  17
ENDBRANCH   8  14
BRANCH  13  23
ATOM     23  O   UNL     1      31.089 -11.468 -20.067  0.00  0.00    -0.470 OA
ATOM     24  C   UNL     1      31.551 -11.213 -18.743  0.00  0.00    +0.253 C 
ENDBRANCH  13  23
ENDBRANCH   2  11
BRANCH   5  25
ATOM     25  C   UNL     1      31.847  -5.851 -22.680  0.00  0.00    +0.036 C 
ATOM     26  C   UNL     1      32.044  -4.103 -24.336  0.00  0.00    +0.002 C 
ATOM     27  C   UNL     1      32.433  -5.347 -23.841  0.00  0.00    +0.003 C 
ATOM     28  C   UNL     1      30.871  -5.109 -22.014  0.00  0.00    +0.003 C 
ATOM     29  C   UNL     1      31.069  -3.361 -23.669  0.00  0.00    +0.000 C 
ATOM     30  C   UNL     1      30.482  -3.865 -22.508  0.00  0.00    +0.000 C 
BRANCH  26  32
ATOM     31  N   UNL     1      32.834  -1.786 -27.150  0.00  0.00    -0.242 NA
ATOM     32  C   UNL     1      32.653  -3.580 -25.539  0.00  0.00    +0.019 C 
ATOM     33  C   UNL     1      33.606  -4.312 -26.238  0.00  0.00    +0.003 C 
ATOM     34  C   UNL     1      32.305  -2.332 -26.033  0.00  0.00    +0.099 C 
ATOM     35  C   UNL     1      34.173  -3.783 -27.392  0.00  0.00    +0.021 C 
ATOM     36  C   UNL     1      33.757  -2.527 -27.802  0.00  0.00    +0.099 C 
ENDBRANCH  26  32
ENDBRANCH   5  25
TORSDOF 8
ENDMDL
MODEL 9
REMARK VINA RESULT:      -9.4      2.692      4.831
REMARK  Name = 4369498
REMARK  8 active torsions:
REMARK  status: ('A' for Active; 'I' for Inactive)
REMARK    1  A    between atoms: N_2  and  C_11
REMARK    2  A    between atoms: C_5  and  C_25
REMARK    3  A    between atoms: C_8  and  S_14
REMARK    4  A    between atoms: C_13  and  O_23
REMARK    5  A    between atoms: S_14  and  N_17
REMARK    6  A    between atoms: N_17  and  C_19
REMARK    7  A    between atoms: C_19  and  C_20
REMARK    8  A    between atoms: C_26  and  C_32
REMARK                            x       y       z     vdW  Elec       q    Type
REMARK                         _______ _______ _______ _____ _____    ______ ____
ROOT
ATOM      1  O   UNL     1      31.970  -7.818 -23.264  0.00  0.00    -0.424 OA
ATOM      2  N   UNL     1      31.849 -10.003 -22.563  0.00  0.00    -0.265 N 
ATOM      3  N   UNL     1      33.923  -8.957 -23.190  0.00  0.00    -0.193 NA
ATOM      4  C   UNL     1      32.624  -8.982 -22.994  0.00  0.00    +0.293 C 
ATOM      5  C   UNL     1      32.965  -6.980 -23.670  0.00  0.00    +0.168 C 
ATOM      6  C   UNL     1      34.148  -7.676 -23.624  0.00  0.00    +0.141 C 
ATOM      7  H   UNL     1      30.890  -9.792 -22.489  0.00  0.00    +0.157 HD
ENDROOT
BRANCH   2  11
ATOM      8  C   UNL     1      33.295 -13.418 -22.740  0.00  0.00    +0.123 C 
ATOM      9  C   UNL     1      32.946 -12.110 -23.083  0.00  0.00    +0.038 C 
ATOM     10  C   UNL     1      32.897 -13.946 -21.512  0.00  0.00    +0.023 C 
ATOM     11  C   UNL     1      32.200 -11.333 -22.198  0.00  0.00    +0.087 C 
ATOM     12  C   UNL     1      32.150 -13.168 -20.627  0.00  0.00    +0.040 C 
ATOM     13  C   UNL     1      31.802 -11.861 -20.970  0.00  0.00    +0.152 C 
BRANCH   8  14
ATOM     14  S   UNL     1      34.226 -14.394 -23.849  0.00  0.00    +0.060 S 
ATOM     15  O   UNL     1      33.311 -15.098 -24.737  0.00  0.00    -0.153 OA
ATOM     16  O   UNL     1      35.266 -13.548 -24.420  0.00  0.00    -0.153 OA
BRANCH  14  17
ATOM     17  N   UNL     1      34.962 -15.533 -22.808  0.00  0.00    -0.179 NA
ATOM     18  H   UNL     1      34.314 -15.688 -22.035  0.00  0.00    +0.149 HD
BRANCH  17  19
ATOM     19  C   UNL     1      35.336 -16.858 -23.321  0.00  0.00    +0.091 C 
BRANCH  19  20
ATOM     20  C   UNL     1      35.715 -17.771 -22.203  0.00  0.00    +0.017 C 
ATOM     21  C   UNL     1      35.627 -19.256 -22.407  0.00  0.00    +0.001 C 
ATOM     22  C   UNL     1      36.968 -18.590 -22.316  0.00  0.00    +0.001 C 
ENDBRANCH  19  20
ENDBRANCH  17  19
ENDBRANCH  14  17
ENDBRANCH   8  14
BRANCH  13  23
ATOM     23  O   UNL     1      31.071 -11.118 -20.092  0.00  0.00    -0.470 OA
ATOM     24  C   UNL     1      31.419 -11.218 -18.713  0.00  0.00    +0.253 C 
ENDBRANCH  13  23
ENDBRANCH   2  11
BRANCH   5  25
ATOM     25  C   UNL     1      32.568  -5.642 -24.032  0.00  0.00    +0.036 C 
ATOM     26  C   UNL     1      32.706  -3.749 -25.527  0.00  0.00    +0.002 C 
ATOM     27  C   UNL     1      33.091  -5.043 -25.178  0.00  0.00    +0.003 C 
ATOM     28  C   UNL     1      31.657  -4.946 -23.236  0.00  0.00    +0.003 C 
ATOM     29  C   UNL     1      31.796  -3.054 -24.730  0.00  0.00    +0.000 C 
ATOM     30  C   UNL     1      31.272  -3.652 -23.585  0.00  0.00    +0.000 C 
BRANCH  26  32
ATOM     31  N   UNL     1      32.871  -1.878 -28.749  0.00  0.00    -0.242 NA
ATOM     32  C   UNL     1      33.250  -3.128 -26.715  0.00  0.00    +0.019 C 
ATOM     33  C   UNL     1      34.614  -3.163 -26.983  0.00  0.00    +0.003 C 
ATOM     34  C   UNL     1      32.428  -2.478 -27.622  0.00  0.00    +0.099 C 
ATOM     35  C   UNL     1      35.106  -2.557 -28.133  0.00  0.00    +0.021 C 
ATOM     36  C   UNL     1      34.201  -1.933 -28.976  0.00  0.00    +0.099 C 
ENDBRANCH  26  32
ENDBRANCH   5  25
TORSDOF 8
ENDMDL
