MODEL 1
REMARK VINA RESULT:     -11.4      0.000      0.000
REMARK  Name = 25113615
REMARK  7 active torsions:
REMARK  status: ('A' for Active; 'I' for Inactive)
REMARK    1  A    between atoms: N_2  and  C_20
REMARK    2  A    between atoms: C_3  and  C_7
REMARK    3  A    between atoms: C_11  and  C_12
REMARK    4  A    between atoms: C_12  and  C_13
REMARK    5  A    between atoms: C_13  and  C_14
REMARK    6  A    between atoms: C_20  and  C_21
REMARK    7  A    between atoms: C_26  and  C_29
REMARK                            x       y       z     vdW  Elec       q    Type
REMARK                         _______ _______ _______ _____ _____    ______ ____
ROOT
ATOM      1  O   UNL     1      35.566 -23.595 -13.780  0.00  0.00    -0.273 OA
ATOM      2  N   UNL     1      33.957 -25.079 -14.573  0.00  0.00    -0.299 N 
ATOM      3  C   UNL     1      35.217 -24.507 -14.525  0.00  0.00    +0.241 C 
ATOM      4  H   UNL     1      33.797 -25.807 -15.216  0.00  0.00    +0.150 HD
ENDROOT
BRANCH   3   7
ATOM      5  O   UNL     1      38.775 -22.662 -16.226  0.00  0.00    -0.275 OA
ATOM      6  N   UNL     1      37.407 -24.371 -15.488  0.00  0.00    -0.273 N 
ATOM      7  C   UNL     1      36.168 -25.146 -15.492  0.00  0.00    +0.152 C 
ATOM      8  C   UNL     1      36.583 -26.532 -15.004  0.00  0.00    +0.031 C 
ATOM      9  C   UNL     1      37.773 -26.244 -14.091  0.00  0.00    +0.024 C 
ATOM     10  C   UNL     1      38.465 -25.080 -14.781  0.00  0.00    +0.094 C 
ATOM     11  C   UNL     1      37.662 -23.192 -16.167  0.00  0.00    +0.226 C 
BRANCH  11  12
ATOM     12  C   UNL     1      36.484 -22.557 -16.861  0.00  0.00    +0.090 C 
BRANCH  12  13
ATOM     13  C   UNL     1      36.886 -22.043 -18.236  0.00  0.00    +0.036 C 
BRANCH  13  14
ATOM     14  C   UNL     1      35.710 -21.633 -19.087  0.00  0.00    -0.022 C 
ATOM     15  C   UNL     1      34.442 -22.151 -18.821  0.00  0.00    -0.004 C 
ATOM     16  C   UNL     1      35.889 -20.737 -20.140  0.00  0.00    -0.004 C 
ATOM     17  C   UNL     1      33.354 -21.772 -19.607  0.00  0.00    -0.000 C 
ATOM     18  C   UNL     1      34.801 -20.358 -20.927  0.00  0.00    -0.000 C 
ATOM     19  C   UNL     1      33.533 -20.876 -20.661  0.00  0.00    -0.000 C 
ENDBRANCH  13  14
ENDBRANCH  12  13
ENDBRANCH  11  12
ENDBRANCH   3   7
BRANCH   2  20
ATOM     20  C   UNL     1      32.866 -24.658 -13.725  0.00  0.00    +0.116 C 
BRANCH  20  21
ATOM     21  C   UNL     1      31.645 -24.295 -14.520  0.00  0.00    -0.003 C 
ATOM     22  C   UNL     1      31.685 -23.215 -15.402  0.00  0.00    -0.003 C 
ATOM     23  C   UNL     1      30.470 -25.034 -14.375  0.00  0.00    -0.003 C 
ATOM     24  C   UNL     1      30.550 -22.874 -16.139  0.00  0.00    +0.002 C 
ATOM     25  C   UNL     1      29.337 -24.694 -15.113  0.00  0.00    +0.002 C 
ATOM     26  C   UNL     1      29.377 -23.614 -15.995  0.00  0.00    +0.031 C 
BRANCH  26  29
ATOM     27  N   UNL     1      27.188 -22.465 -16.222  0.00  0.00    -0.343 N 
ATOM     28  N   UNL     1      28.061 -23.698 -18.004  0.00  0.00    -0.285 NA
ATOM     29  C   UNL     1      28.195 -23.260 -16.765  0.00  0.00    +0.117 C 
ATOM     30  H   UNL     1      26.396 -22.238 -16.761  0.00  0.00    +0.144 HD
ATOM     31  H   UNL     1      27.267 -22.131 -15.300  0.00  0.00    +0.144 HD
ATOM     32  H   UNL     1      27.262 -23.460 -18.527  0.00  0.00    +0.188 HD
ENDBRANCH  26  29
ENDBRANCH  20  21
ENDBRANCH   2  20
TORSDOF 7
ENDMDL
MODEL 2
REMARK VINA RESULT:     -11.0      2.861      6.256
REMARK  Name = 25113615
REMARK  7 active torsions:
REMARK  status: ('A' for Active; 'I' for Inactive)
REMARK    1  A    between atoms: N_2  and  C_20
REMARK    2  A    between atoms: C_3  and  C_7
REMARK    3  A    between atoms: C_11  and  C_12
REMARK    4  A    between atoms: C_12  and  C_13
REMARK    5  A    between atoms: C_13  and  C_14
REMARK    6  A    between atoms: C_20  and  C_21
REMARK    7  A    between atoms: C_26  and  C_29
REMARK                            x       y       z     vdW  Elec       q    Type
REMARK                         _______ _______ _______ _____ _____    ______ ____
ROOT
ATOM      1  O   UNL     1      35.308 -25.036 -16.143  0.00  0.00    -0.273 OA
ATOM      2  N   UNL     1      34.849 -22.865 -16.850  0.00  0.00    -0.299 N 
ATOM      3  C   UNL     1      35.328 -23.820 -15.969  0.00  0.00    +0.241 C 
ATOM      4  H   UNL     1      34.922 -21.917 -16.598  0.00  0.00    +0.150 HD
ENDROOT
BRANCH   3   7
ATOM      5  O   UNL     1      34.794 -25.232 -11.885  0.00  0.00    -0.275 OA
ATOM      6  N   UNL     1      35.847 -24.192 -13.660  0.00  0.00    -0.273 N 
ATOM      7  C   UNL     1      35.923 -23.208 -14.737  0.00  0.00    +0.152 C 
ATOM      8  C   UNL     1      37.418 -22.963 -14.924  0.00  0.00    +0.031 C 
ATOM      9  C   UNL     1      38.049 -24.292 -14.516  0.00  0.00    +0.024 C 
ATOM     10  C   UNL     1      37.157 -24.764 -13.378  0.00  0.00    +0.094 C 
ATOM     11  C   UNL     1      34.750 -24.485 -12.866  0.00  0.00    +0.226 C 
BRANCH  11  12
ATOM     12  C   UNL     1      33.451 -23.829 -13.259  0.00  0.00    +0.090 C 
BRANCH  12  13
ATOM     13  C   UNL     1      32.418 -24.876 -13.646  0.00  0.00    +0.036 C 
BRANCH  13  14
ATOM     14  C   UNL     1      31.412 -24.378 -14.655  0.00  0.00    -0.022 C 
ATOM     15  C   UNL     1      30.203 -25.051 -14.825  0.00  0.00    -0.004 C 
ATOM     16  C   UNL     1      31.692 -23.244 -15.417  0.00  0.00    -0.004 C 
ATOM     17  C   UNL     1      29.272 -24.591 -15.757  0.00  0.00    -0.000 C 
ATOM     18  C   UNL     1      30.762 -22.784 -16.350  0.00  0.00    -0.000 C 
ATOM     19  C   UNL     1      29.552 -23.457 -16.520  0.00  0.00    -0.000 C 
ENDBRANCH  13  14
ENDBRANCH  12  13
ENDBRANCH  11  12
ENDBRANCH   3   7
BRANCH   2  20
ATOM     20  C   UNL     1      34.249 -23.195 -18.122  0.00  0.00    +0.116 C 
BRANCH  20  21
ATOM     21  C   UNL     1      34.489 -22.127 -19.150  0.00  0.00    -0.003 C 
ATOM     22  C   UNL     1      35.794 -21.772 -19.493  0.00  0.00    -0.003 C 
ATOM     23  C   UNL     1      33.408 -21.487 -19.759  0.00  0.00    -0.003 C 
ATOM     24  C   UNL     1      36.017 -20.777 -20.446  0.00  0.00    +0.002 C 
ATOM     25  C   UNL     1      33.633 -20.494 -20.711  0.00  0.00    +0.002 C 
ATOM     26  C   UNL     1      34.937 -20.139 -21.055  0.00  0.00    +0.031 C 
BRANCH  26  29
ATOM     27  N   UNL     1      34.937 -19.332 -23.403  0.00  0.00    -0.343 N 
ATOM     28  N   UNL     1      35.620 -17.919 -21.672  0.00  0.00    -0.285 NA
ATOM     29  C   UNL     1      35.172 -19.103 -22.049  0.00  0.00    +0.117 C 
ATOM     30  H   UNL     1      35.103 -18.617 -24.059  0.00  0.00    +0.144 HD
ATOM     31  H   UNL     1      34.606 -20.208 -23.704  0.00  0.00    +0.144 HD
ATOM     32  H   UNL     1      35.779 -17.217 -22.343  0.00  0.00    +0.188 HD
ENDBRANCH  26  29
ENDBRANCH  20  21
ENDBRANCH   2  20
TORSDOF 7
ENDMDL
MODEL 3
REMARK VINA RESULT:     -10.4      3.145      7.185
REMARK  Name = 25113615
REMARK  7 active torsions:
REMARK  status: ('A' for Active; 'I' for Inactive)
REMARK    1  A    between atoms: N_2  and  C_20
REMARK    2  A    between atoms: C_3  and  C_7
REMARK    3  A    between atoms: C_11  and  C_12
REMARK    4  A    between atoms: C_12  and  C_13
REMARK    5  A    between atoms: C_13  and  C_14
REMARK    6  A    between atoms: C_20  and  C_21
REMARK    7  A    between atoms: C_26  and  C_29
REMARK                            x       y       z     vdW  Elec       q    Type
REMARK                         _______ _______ _______ _____ _____    ______ ____
ROOT
ATOM      1  O   UNL     1      33.959 -24.389 -17.151  0.00  0.00    -0.273 OA
ATOM      2  N   UNL     1      34.597 -22.247 -17.803  0.00  0.00    -0.299 N 
ATOM      3  C   UNL     1      34.475 -23.300 -16.912  0.00  0.00    +0.241 C 
ATOM      4  H   UNL     1      35.031 -21.419 -17.494  0.00  0.00    +0.150 HD
ENDROOT
BRANCH   3   7
ATOM      5  O   UNL     1      33.257 -24.980 -13.085  0.00  0.00    -0.275 OA
ATOM      6  N   UNL     1      34.680 -24.034 -14.641  0.00  0.00    -0.273 N 
ATOM      7  C   UNL     1      35.079 -22.986 -15.577  0.00  0.00    +0.152 C 
ATOM      8  C   UNL     1      36.601 -23.087 -15.636  0.00  0.00    +0.031 C 
ATOM      9  C   UNL     1      36.869 -24.565 -15.361  0.00  0.00    +0.024 C 
ATOM     10  C   UNL     1      35.791 -24.930 -14.353  0.00  0.00    +0.094 C 
ATOM     11  C   UNL     1      33.477 -24.142 -13.963  0.00  0.00    +0.226 C 
BRANCH  11  12
ATOM     12  C   UNL     1      32.405 -23.154 -14.351  0.00  0.00    +0.090 C 
BRANCH  12  13
ATOM     13  C   UNL     1      31.030 -23.677 -13.962  0.00  0.00    +0.036 C 
BRANCH  13  14
ATOM     14  C   UNL     1      30.047 -23.680 -15.108  0.00  0.00    -0.022 C 
ATOM     15  C   UNL     1      29.367 -22.511 -15.446  0.00  0.00    -0.004 C 
ATOM     16  C   UNL     1      29.819 -24.853 -15.827  0.00  0.00    -0.004 C 
ATOM     17  C   UNL     1      28.458 -22.513 -16.505  0.00  0.00    -0.000 C 
ATOM     18  C   UNL     1      28.910 -24.856 -16.886  0.00  0.00    -0.000 C 
ATOM     19  C   UNL     1      28.230 -23.686 -17.225  0.00  0.00    -0.000 C 
ENDBRANCH  13  14
ENDBRANCH  12  13
ENDBRANCH  11  12
ENDBRANCH   3   7
BRANCH   2  20
ATOM     20  C   UNL     1      34.116 -22.305 -19.165  0.00  0.00    +0.116 C 
BRANCH  20  21
ATOM     21  C   UNL     1      34.807 -21.305 -20.047  0.00  0.00    -0.003 C 
ATOM     22  C   UNL     1      34.059 -20.502 -20.908  0.00  0.00    -0.003 C 
ATOM     23  C   UNL     1      36.197 -21.181 -20.007  0.00  0.00    -0.003 C 
ATOM     24  C   UNL     1      34.701 -19.574 -21.729  0.00  0.00    +0.002 C 
ATOM     25  C   UNL     1      36.837 -20.253 -20.828  0.00  0.00    +0.002 C 
ATOM     26  C   UNL     1      36.090 -19.450 -21.689  0.00  0.00    +0.031 C 
BRANCH  26  29
ATOM     27  N   UNL     1      36.035 -17.583 -23.325  0.00  0.00    -0.343 N 
ATOM     28  N   UNL     1      38.078 -18.448 -22.593  0.00  0.00    -0.285 NA
ATOM     29  C   UNL     1      36.758 -18.482 -22.544  0.00  0.00    +0.117 C 
ATOM     30  H   UNL     1      36.507 -16.937 -23.897  0.00  0.00    +0.144 HD
ATOM     31  H   UNL     1      35.051 -17.595 -23.305  0.00  0.00    +0.144 HD
ATOM     32  H   UNL     1      38.532 -17.794 -23.172  0.00  0.00    +0.188 HD
ENDBRANCH  26  29
ENDBRANCH  20  21
ENDBRANCH   2  20
TORSDOF 7
ENDMDL
MODEL 4
REMARK VINA RESULT:     -10.1      7.725     11.516
REMARK  Name = 25113615
REMARK  7 active torsions:
REMARK  status: ('A' for Active; 'I' for Inactive)
REMARK    1  A    between atoms: N_2  and  C_20
REMARK    2  A    between atoms: C_3  and  C_7
REMARK    3  A    between atoms: C_11  and  C_12
REMARK    4  A    between atoms: C_12  and  C_13
REMARK    5  A    between atoms: C_13  and  C_14
REMARK    6  A    between atoms: C_20  and  C_21
REMARK    7  A    between atoms: C_26  and  C_29
REMARK                            x       y       z     vdW  Elec       q    Type
REMARK                         _______ _______ _______ _____ _____    ______ ____
ROOT
ATOM      1  O   UNL     1      36.074 -15.338 -24.041  0.00  0.00    -0.273 OA
ATOM      2  N   UNL     1      34.965 -17.333 -23.582  0.00  0.00    -0.299 N 
ATOM      3  C   UNL     1      35.053 -16.022 -24.015  0.00  0.00    +0.241 C 
ATOM      4  H   UNL     1      34.087 -17.778 -23.608  0.00  0.00    +0.150 HD
ENDROOT
BRANCH   3   7
ATOM      5  O   UNL     1      33.796 -11.853 -23.985  0.00  0.00    -0.275 OA
ATOM      6  N   UNL     1      33.871 -14.051 -24.694  0.00  0.00    -0.273 N 
ATOM      7  C   UNL     1      33.735 -15.492 -24.494  0.00  0.00    +0.152 C 
ATOM      8  C   UNL     1      33.406 -16.040 -25.881  0.00  0.00    +0.031 C 
ATOM      9  C   UNL     1      34.095 -15.055 -26.823  0.00  0.00    +0.024 C 
ATOM     10  C   UNL     1      33.930 -13.722 -26.112  0.00  0.00    +0.094 C 
ATOM     11  C   UNL     1      33.807 -13.060 -23.729  0.00  0.00    +0.226 C 
BRANCH  11  12
ATOM     12  C   UNL     1      33.747 -13.529 -22.297  0.00  0.00    +0.090 C 
BRANCH  12  13
ATOM     13  C   UNL     1      32.324 -13.446 -21.766  0.00  0.00    +0.036 C 
BRANCH  13  14
ATOM     14  C   UNL     1      32.086 -12.248 -20.880  0.00  0.00    -0.022 C 
ATOM     15  C   UNL     1      31.997 -12.410 -19.498  0.00  0.00    -0.004 C 
ATOM     16  C   UNL     1      31.956 -10.979 -21.443  0.00  0.00    -0.004 C 
ATOM     17  C   UNL     1      31.778 -11.303 -18.677  0.00  0.00    -0.000 C 
ATOM     18  C   UNL     1      31.737  -9.872 -20.623  0.00  0.00    -0.000 C 
ATOM     19  C   UNL     1      31.647 -10.034 -19.240  0.00  0.00    -0.000 C 
ENDBRANCH  13  14
ENDBRANCH  12  13
ENDBRANCH  11  12
ENDBRANCH   3   7
BRANCH   2  20
ATOM     20  C   UNL     1      36.100 -18.082 -23.092  0.00  0.00    +0.116 C 
BRANCH  20  21
ATOM     21  C   UNL     1      35.695 -19.124 -22.090  0.00  0.00    -0.003 C 
ATOM     22  C   UNL     1      34.360 -19.517 -21.995  0.00  0.00    -0.003 C 
ATOM     23  C   UNL     1      36.653 -19.697 -21.252  0.00  0.00    -0.003 C 
ATOM     24  C   UNL     1      33.983 -20.484 -21.062  0.00  0.00    +0.002 C 
ATOM     25  C   UNL     1      36.275 -20.663 -20.320  0.00  0.00    +0.002 C 
ATOM     26  C   UNL     1      34.940 -21.057 -20.225  0.00  0.00    +0.031 C 
BRANCH  26  29
ATOM     27  N   UNL     1      33.238 -22.543 -19.196  0.00  0.00    -0.343 N 
ATOM     28  N   UNL     1      35.436 -22.542 -18.403  0.00  0.00    -0.285 NA
ATOM     29  C   UNL     1      34.546 -22.065 -19.254  0.00  0.00    +0.117 C 
ATOM     30  H   UNL     1      32.993 -23.226 -18.530  0.00  0.00    +0.144 HD
ATOM     31  H   UNL     1      32.560 -22.198 -19.819  0.00  0.00    +0.144 HD
ATOM     32  H   UNL     1      35.171 -23.224 -17.745  0.00  0.00    +0.188 HD
ENDBRANCH  26  29
ENDBRANCH  20  21
ENDBRANCH   2  20
TORSDOF 7
ENDMDL
MODEL 5
REMARK VINA RESULT:     -10.1      9.104     12.707
REMARK  Name = 25113615
REMARK  7 active torsions:
REMARK  status: ('A' for Active; 'I' for Inactive)
REMARK    1  A    between atoms: N_2  and  C_20
REMARK    2  A    between atoms: C_3  and  C_7
REMARK    3  A    between atoms: C_11  and  C_12
REMARK    4  A    between atoms: C_12  and  C_13
REMARK    5  A    between atoms: C_13  and  C_14
REMARK    6  A    between atoms: C_20  and  C_21
REMARK    7  A    between atoms: C_26  and  C_29
REMARK                            x       y       z     vdW  Elec       q    Type
REMARK                         _______ _______ _______ _____ _____    ______ ____
ROOT
ATOM      1  O   UNL     1      34.295 -14.916 -21.690  0.00  0.00    -0.273 OA
ATOM      2  N   UNL     1      33.077 -13.432 -23.008  0.00  0.00    -0.299 N 
ATOM      3  C   UNL     1      34.088 -14.344 -22.758  0.00  0.00    +0.241 C 
ATOM      4  H   UNL     1      33.012 -13.039 -23.908  0.00  0.00    +0.150 HD
ENDROOT
BRANCH   3   7
ATOM      5  O   UNL     1      34.654 -18.188 -24.723  0.00  0.00    -0.275 OA
ATOM      6  N   UNL     1      34.532 -15.888 -24.535  0.00  0.00    -0.273 N 
ATOM      7  C   UNL     1      34.932 -14.601 -23.970  0.00  0.00    +0.152 C 
ATOM      8  C   UNL     1      34.622 -13.589 -25.069  0.00  0.00    +0.031 C 
ATOM      9  C   UNL     1      33.444 -14.219 -25.809  0.00  0.00    +0.024 C 
ATOM     10  C   UNL     1      33.756 -15.705 -25.755  0.00  0.00    +0.094 C 
ATOM     11  C   UNL     1      34.923 -17.148 -24.116  0.00  0.00    +0.226 C 
BRANCH  11  12
ATOM     12  C   UNL     1      35.724 -17.205 -22.840  0.00  0.00    +0.090 C 
BRANCH  12  13
ATOM     13  C   UNL     1      36.509 -18.506 -22.757  0.00  0.00    +0.036 C 
BRANCH  13  14
ATOM     14  C   UNL     1      35.955 -19.474 -21.740  0.00  0.00    -0.022 C 
ATOM     15  C   UNL     1      36.819 -20.158 -20.886  0.00  0.00    -0.004 C 
ATOM     16  C   UNL     1      34.579 -19.684 -21.656  0.00  0.00    -0.004 C 
ATOM     17  C   UNL     1      36.308 -21.053 -19.946  0.00  0.00    -0.000 C 
ATOM     18  C   UNL     1      34.068 -20.579 -20.716  0.00  0.00    -0.000 C 
ATOM     19  C   UNL     1      34.932 -21.264 -19.861  0.00  0.00    -0.000 C 
ENDBRANCH  13  14
ENDBRANCH  12  13
ENDBRANCH  11  12
ENDBRANCH   3   7
BRANCH   2  20
ATOM     20  C   UNL     1      32.111 -13.030 -22.010  0.00  0.00    +0.116 C 
BRANCH  20  21
ATOM     21  C   UNL     1      32.222 -11.570 -21.679  0.00  0.00    -0.003 C 
ATOM     22  C   UNL     1      32.578 -10.656 -22.671  0.00  0.00    -0.003 C 
ATOM     23  C   UNL     1      31.972 -11.127 -20.380  0.00  0.00    -0.003 C 
ATOM     24  C   UNL     1      32.683  -9.299 -22.364  0.00  0.00    +0.002 C 
ATOM     25  C   UNL     1      32.077  -9.770 -20.073  0.00  0.00    +0.002 C 
ATOM     26  C   UNL     1      32.433  -8.856 -21.065  0.00  0.00    +0.031 C 
BRANCH  26  29
ATOM     27  N   UNL     1      31.709  -6.498 -21.344  0.00  0.00    -0.343 N 
ATOM     28  N   UNL     1      33.446  -7.031 -19.875  0.00  0.00    -0.285 NA
ATOM     29  C   UNL     1      32.541  -7.442 -20.746  0.00  0.00    +0.117 C 
ATOM     30  H   UNL     1      31.800  -5.545 -21.114  0.00  0.00    +0.144 HD
ATOM     31  H   UNL     1      31.031  -6.783 -21.997  0.00  0.00    +0.144 HD
ATOM     32  H   UNL     1      33.521  -6.074 -19.658  0.00  0.00    +0.188 HD
ENDBRANCH  26  29
ENDBRANCH  20  21
ENDBRANCH   2  20
TORSDOF 7
ENDMDL
MODEL 6
REMARK VINA RESULT:      -9.7     11.771     15.367
REMARK  Name = 25113615
REMARK  7 active torsions:
REMARK  status: ('A' for Active; 'I' for Inactive)
REMARK    1  A    between atoms: N_2  and  C_20
REMARK    2  A    between atoms: C_3  and  C_7
REMARK    3  A    between atoms: C_11  and  C_12
REMARK    4  A    between atoms: C_12  and  C_13
REMARK    5  A    between atoms: C_13  and  C_14
REMARK    6  A    between atoms: C_20  and  C_21
REMARK    7  A    between atoms: C_26  and  C_29
REMARK                            x       y       z     vdW  Elec       q    Type
REMARK                         _______ _______ _______ _____ _____    ______ ____
ROOT
ATOM      1  O   UNL     1      34.131 -11.751 -24.032  0.00  0.00    -0.273 OA
ATOM      2  N   UNL     1      32.946  -9.992 -23.072  0.00  0.00    -0.299 N 
ATOM      3  C   UNL     1      33.203 -11.324 -23.349  0.00  0.00    +0.241 C 
ATOM      4  H   UNL     1      32.168  -9.772 -22.510  0.00  0.00    +0.150 HD
ENDROOT
BRANCH   3   7
ATOM      5  O   UNL     1      34.155 -14.886 -21.035  0.00  0.00    -0.275 OA
ATOM      6  N   UNL     1      32.932 -13.043 -21.704  0.00  0.00    -0.273 N 
ATOM      7  C   UNL     1      32.216 -12.241 -22.693  0.00  0.00    +0.152 C 
ATOM      8  C   UNL     1      31.200 -11.446 -21.877  0.00  0.00    +0.031 C 
ATOM      9  C   UNL     1      31.885 -11.284 -20.521  0.00  0.00    +0.024 C 
ATOM     10  C   UNL     1      32.630 -12.597 -20.350  0.00  0.00    +0.094 C 
ATOM     11  C   UNL     1      33.689 -14.180 -21.933  0.00  0.00    +0.226 C 
BRANCH  11  12
ATOM     12  C   UNL     1      33.928 -14.539 -23.377  0.00  0.00    +0.090 C 
BRANCH  12  13
ATOM     13  C   UNL     1      35.287 -15.203 -23.546  0.00  0.00    +0.036 C 
BRANCH  13  14
ATOM     14  C   UNL     1      35.201 -16.699 -23.731  0.00  0.00    -0.022 C 
ATOM     15  C   UNL     1      35.689 -17.553 -22.742  0.00  0.00    -0.004 C 
ATOM     16  C   UNL     1      34.634 -17.226 -24.891  0.00  0.00    -0.004 C 
ATOM     17  C   UNL     1      35.610 -18.936 -22.912  0.00  0.00    -0.000 C 
ATOM     18  C   UNL     1      34.555 -18.609 -25.061  0.00  0.00    -0.000 C 
ATOM     19  C   UNL     1      35.043 -19.463 -24.072  0.00  0.00    -0.000 C 
ENDBRANCH  13  14
ENDBRANCH  12  13
ENDBRANCH  11  12
ENDBRANCH   3   7
BRANCH   2  20
ATOM     20  C   UNL     1      33.765  -8.909 -23.566  0.00  0.00    +0.116 C 
BRANCH  20  21
ATOM     21  C   UNL     1      33.037  -7.596 -23.536  0.00  0.00    -0.003 C 
ATOM     22  C   UNL     1      33.606  -6.471 -24.134  0.00  0.00    -0.003 C 
ATOM     23  C   UNL     1      31.795  -7.500 -22.908  0.00  0.00    -0.003 C 
ATOM     24  C   UNL     1      32.931  -5.250 -24.103  0.00  0.00    +0.002 C 
ATOM     25  C   UNL     1      31.121  -6.279 -22.879  0.00  0.00    +0.002 C 
ATOM     26  C   UNL     1      31.689  -5.154 -23.477  0.00  0.00    +0.031 C 
BRANCH  26  29
ATOM     27  N   UNL     1      30.855  -3.099 -24.592  0.00  0.00    -0.343 N 
ATOM     28  N   UNL     1      30.460  -3.447 -22.316  0.00  0.00    -0.285 NA
ATOM     29  C   UNL     1      30.986  -3.882 -23.447  0.00  0.00    +0.117 C 
ATOM     30  H   UNL     1      30.375  -2.240 -24.549  0.00  0.00    +0.144 HD
ATOM     31  H   UNL     1      31.243  -3.404 -25.444  0.00  0.00    +0.144 HD
ATOM     32  H   UNL     1      29.984  -2.586 -22.293  0.00  0.00    +0.188 HD
ENDBRANCH  26  29
ENDBRANCH  20  21
ENDBRANCH   2  20
TORSDOF 7
ENDMDL
MODEL 7
REMARK VINA RESULT:      -9.7     12.091     15.580
REMARK  Name = 25113615
REMARK  7 active torsions:
REMARK  status: ('A' for Active; 'I' for Inactive)
REMARK    1  A    between atoms: N_2  and  C_20
REMARK    2  A    between atoms: C_3  and  C_7
REMARK    3  A    between atoms: C_11  and  C_12
REMARK    4  A    between atoms: C_12  and  C_13
REMARK    5  A    between atoms: C_13  and  C_14
REMARK    6  A    between atoms: C_20  and  C_21
REMARK    7  A    between atoms: C_26  and  C_29
REMARK                            x       y       z     vdW  Elec       q    Type
REMARK                         _______ _______ _______ _____ _____    ______ ____
ROOT
ATOM      1  O   UNL     1      32.922  -9.526 -20.745  0.00  0.00    -0.273 OA
ATOM      2  N   UNL     1      32.481 -10.239 -22.917  0.00  0.00    -0.299 N 
ATOM      3  C   UNL     1      32.343 -10.263 -21.540  0.00  0.00    +0.241 C 
ATOM      4  H   UNL     1      31.962 -10.882 -23.451  0.00  0.00    +0.150 HD
ENDROOT
BRANCH   3   7
ATOM      5  O   UNL     1      33.227 -14.434 -20.659  0.00  0.00    -0.275 OA
ATOM      6  N   UNL     1      32.108 -12.417 -20.519  0.00  0.00    -0.273 N 
ATOM      7  C   UNL     1      31.359 -11.298 -21.086  0.00  0.00    +0.152 C 
ATOM      8  C   UNL     1      30.520 -10.772 -19.923  0.00  0.00    +0.031 C 
ATOM      9  C   UNL     1      31.369 -11.103 -18.697  0.00  0.00    +0.024 C 
ATOM     10  C   UNL     1      32.006 -12.433 -19.066  0.00  0.00    +0.094 C 
ATOM     11  C   UNL     1      32.727 -13.448 -21.206  0.00  0.00    +0.226 C 
BRANCH  11  12
ATOM     12  C   UNL     1      32.764 -13.316 -22.708  0.00  0.00    +0.090 C 
BRANCH  12  13
ATOM     13  C   UNL     1      34.186 -13.481 -23.224  0.00  0.00    +0.036 C 
BRANCH  13  14
ATOM     14  C   UNL     1      34.398 -14.763 -23.992  0.00  0.00    -0.022 C 
ATOM     15  C   UNL     1      35.166 -15.788 -23.440  0.00  0.00    -0.004 C 
ATOM     16  C   UNL     1      33.825 -14.922 -25.253  0.00  0.00    -0.004 C 
ATOM     17  C   UNL     1      35.362 -16.974 -24.149  0.00  0.00    -0.000 C 
ATOM     18  C   UNL     1      34.021 -16.108 -25.963  0.00  0.00    -0.000 C 
ATOM     19  C   UNL     1      34.789 -17.133 -25.411  0.00  0.00    -0.000 C 
ENDBRANCH  13  14
ENDBRANCH  12  13
ENDBRANCH  11  12
ENDBRANCH   3   7
BRANCH   2  20
ATOM     20  C   UNL     1      33.352  -9.316 -23.608  0.00  0.00    +0.116 C 
BRANCH  20  21
ATOM     21  C   UNL     1      32.812  -7.915 -23.590  0.00  0.00    -0.003 C 
ATOM     22  C   UNL     1      33.689  -6.832 -23.525  0.00  0.00    -0.003 C 
ATOM     23  C   UNL     1      31.435  -7.697 -23.635  0.00  0.00    -0.003 C 
ATOM     24  C   UNL     1      33.187  -5.530 -23.505  0.00  0.00    +0.002 C 
ATOM     25  C   UNL     1      30.934  -6.395 -23.616  0.00  0.00    +0.002 C 
ATOM     26  C   UNL     1      31.811  -5.311 -23.551  0.00  0.00    +0.031 C 
BRANCH  26  29
ATOM     27  N   UNL     1      30.489  -3.500 -22.486  0.00  0.00    -0.343 N 
ATOM     28  N   UNL     1      31.569  -3.127 -24.524  0.00  0.00    -0.285 NA
ATOM     29  C   UNL     1      31.289  -3.954 -23.532  0.00  0.00    +0.117 C 
ATOM     30  H   UNL     1      30.145  -2.577 -22.494  0.00  0.00    +0.144 HD
ATOM     31  H   UNL     1      30.265  -4.101 -21.740  0.00  0.00    +0.144 HD
ATOM     32  H   UNL     1      31.217  -2.209 -24.513  0.00  0.00    +0.188 HD
ENDBRANCH  26  29
ENDBRANCH  20  21
ENDBRANCH   2  20
TORSDOF 7
ENDMDL
MODEL 8
REMARK VINA RESULT:      -9.4      3.370      7.662
REMARK  Name = 25113615
REMARK  7 active torsions:
REMARK  status: ('A' for Active; 'I' for Inactive)
REMARK    1  A    between atoms: N_2  and  C_20
REMARK    2  A    between atoms: C_3  and  C_7
REMARK    3  A    between atoms: C_11  and  C_12
REMARK    4  A    between atoms: C_12  and  C_13
REMARK    5  A    between atoms: C_13  and  C_14
REMARK    6  A    between atoms: C_20  and  C_21
REMARK    7  A    between atoms: C_26  and  C_29
REMARK                            x       y       z     vdW  Elec       q    Type
REMARK                         _______ _______ _______ _____ _____    ______ ____
ROOT
ATOM      1  O   UNL     1      35.750 -22.329 -16.161  0.00  0.00    -0.273 OA
ATOM      2  N   UNL     1      35.590 -22.444 -18.481  0.00  0.00    -0.299 N 
ATOM      3  C   UNL     1      35.245 -22.785 -17.184  0.00  0.00    +0.241 C 
ATOM      4  H   UNL     1      35.111 -22.880 -19.223  0.00  0.00    +0.150 HD
ENDROOT
BRANCH   3   7
ATOM      5  O   UNL     1      33.643 -24.677 -13.605  0.00  0.00    -0.275 OA
ATOM      6  N   UNL     1      33.639 -23.854 -15.764  0.00  0.00    -0.273 N 
ATOM      7  C   UNL     1      34.133 -23.789 -17.138  0.00  0.00    +0.152 C 
ATOM      8  C   UNL     1      32.936 -23.307 -17.952  0.00  0.00    +0.031 C 
ATOM      9  C   UNL     1      32.151 -22.455 -16.957  0.00  0.00    +0.024 C 
ATOM     10  C   UNL     1      32.347 -23.191 -15.641  0.00  0.00    +0.094 C 
ATOM     11  C   UNL     1      34.187 -24.557 -14.705  0.00  0.00    +0.226 C 
BRANCH  11  12
ATOM     12  C   UNL     1      35.527 -25.201 -14.959  0.00  0.00    +0.090 C 
BRANCH  12  13
ATOM     13  C   UNL     1      36.496 -24.882 -13.830  0.00  0.00    +0.036 C 
BRANCH  13  14
ATOM     14  C   UNL     1      37.943 -25.076 -14.213  0.00  0.00    -0.022 C 
ATOM     15  C   UNL     1      38.769 -25.885 -13.433  0.00  0.00    -0.004 C 
ATOM     16  C   UNL     1      38.455 -24.446 -15.347  0.00  0.00    -0.004 C 
ATOM     17  C   UNL     1      40.107 -26.065 -13.786  0.00  0.00    -0.000 C 
ATOM     18  C   UNL     1      39.792 -24.626 -15.701  0.00  0.00    -0.000 C 
ATOM     19  C   UNL     1      40.618 -25.435 -14.920  0.00  0.00    -0.000 C 
ENDBRANCH  13  14
ENDBRANCH  12  13
ENDBRANCH  11  12
ENDBRANCH   3   7
BRANCH   2  20
ATOM     20  C   UNL     1      36.617 -21.479 -18.798  0.00  0.00    +0.116 C 
BRANCH  20  21
ATOM     21  C   UNL     1      36.274 -20.675 -20.019  0.00  0.00    -0.003 C 
ATOM     22  C   UNL     1      34.991 -20.744 -20.560  0.00  0.00    -0.003 C 
ATOM     23  C   UNL     1      37.239 -19.860 -20.613  0.00  0.00    -0.003 C 
ATOM     24  C   UNL     1      34.672 -19.999 -21.696  0.00  0.00    +0.002 C 
ATOM     25  C   UNL     1      36.920 -19.115 -21.748  0.00  0.00    +0.002 C 
ATOM     26  C   UNL     1      35.636 -19.184 -22.289  0.00  0.00    +0.031 C 
BRANCH  26  29
ATOM     27  N   UNL     1      35.822 -17.129 -23.669  0.00  0.00    -0.343 N 
ATOM     28  N   UNL     1      34.489 -18.911 -24.383  0.00  0.00    -0.285 NA
ATOM     29  C   UNL     1      35.303 -18.407 -23.472  0.00  0.00    +0.117 C 
ATOM     30  H   UNL     1      35.582 -16.620 -24.477  0.00  0.00    +0.144 HD
ATOM     31  H   UNL     1      36.427 -16.735 -23.001  0.00  0.00    +0.144 HD
ATOM     32  H   UNL     1      34.262 -18.386 -25.184  0.00  0.00    +0.188 HD
ENDBRANCH  26  29
ENDBRANCH  20  21
ENDBRANCH   2  20
TORSDOF 7
ENDMDL
MODEL 9
REMARK VINA RESULT:      -9.4     10.458     14.147
REMARK  Name = 25113615
REMARK  7 active torsions:
REMARK  status: ('A' for Active; 'I' for Inactive)
REMARK    1  A    between atoms: N_2  and  C_20
REMARK    2  A    between atoms: C_3  and  C_7
REMARK    3  A    between atoms: C_11  and  C_12
REMARK    4  A    between atoms: C_12  and  C_13
REMARK    5  A    between atoms: C_13  and  C_14
REMARK    6  A    between atoms: C_20  and  C_21
REMARK    7  A    between atoms: C_26  and  C_29
REMARK                            x       y       z     vdW  Elec       q    Type
REMARK                         _______ _______ _______ _____ _____    ______ ____
ROOT
ATOM      1  O   UNL     1      33.115 -14.327 -23.035  0.00  0.00    -0.273 OA
ATOM      2  N   UNL     1      33.279 -12.014 -23.245  0.00  0.00    -0.299 N 
ATOM      3  C   UNL     1      33.570 -13.325 -23.582  0.00  0.00    +0.241 C 
ATOM      4  H   UNL     1      33.708 -11.292 -23.758  0.00  0.00    +0.150 HD
ENDROOT
BRANCH   3   7
ATOM      5  O   UNL     1      33.769 -16.568 -26.479  0.00  0.00    -0.275 OA
ATOM      6  N   UNL     1      33.992 -14.415 -25.673  0.00  0.00    -0.273 N 
ATOM      7  C   UNL     1      34.514 -13.417 -24.742  0.00  0.00    +0.152 C 
ATOM      8  C   UNL     1      34.518 -12.116 -25.540  0.00  0.00    +0.031 C 
ATOM      9  C   UNL     1      33.362 -12.299 -26.521  0.00  0.00    +0.024 C 
ATOM     10  C   UNL     1      33.424 -13.781 -26.855  0.00  0.00    +0.094 C 
ATOM     11  C   UNL     1      34.118 -15.791 -25.587  0.00  0.00    +0.226 C 
BRANCH  11  12
ATOM     12  C   UNL     1      34.725 -16.324 -24.314  0.00  0.00    +0.090 C 
BRANCH  12  13
ATOM     13  C   UNL     1      35.351 -17.691 -24.551  0.00  0.00    +0.036 C 
BRANCH  13  14
ATOM     14  C   UNL     1      35.616 -18.455 -23.277  0.00  0.00    -0.022 C 
ATOM     15  C   UNL     1      34.632 -19.291 -22.748  0.00  0.00    -0.004 C 
ATOM     16  C   UNL     1      36.843 -18.324 -22.627  0.00  0.00    -0.004 C 
ATOM     17  C   UNL     1      34.876 -19.998 -21.570  0.00  0.00    -0.000 C 
ATOM     18  C   UNL     1      37.086 -19.031 -21.449  0.00  0.00    -0.000 C 
ATOM     19  C   UNL     1      36.103 -19.868 -20.921  0.00  0.00    -0.000 C 
ENDBRANCH  13  14
ENDBRANCH  12  13
ENDBRANCH  11  12
ENDBRANCH   3   7
BRANCH   2  20
ATOM     20  C   UNL     1      32.376 -11.655 -22.175  0.00  0.00    +0.116 C 
BRANCH  20  21
ATOM     21  C   UNL     1      32.185 -10.169 -22.078  0.00  0.00    -0.003 C 
ATOM     22  C   UNL     1      31.947  -9.420 -23.231  0.00  0.00    -0.003 C 
ATOM     23  C   UNL     1      32.248  -9.535 -20.836  0.00  0.00    -0.003 C 
ATOM     24  C   UNL     1      31.772  -8.039 -23.142  0.00  0.00    +0.002 C 
ATOM     25  C   UNL     1      32.072  -8.155 -20.748  0.00  0.00    +0.002 C 
ATOM     26  C   UNL     1      31.834  -7.406 -21.901  0.00  0.00    +0.031 C 
BRANCH  26  29
ATOM     27  N   UNL     1      30.378  -5.399 -21.785  0.00  0.00    -0.343 N 
ATOM     28  N   UNL     1      32.703  -5.171 -21.749  0.00  0.00    -0.285 NA
ATOM     29  C   UNL     1      31.650  -5.967 -21.808  0.00  0.00    +0.117 C 
ATOM     30  H   UNL     1      30.277  -4.422 -21.723  0.00  0.00    +0.144 HD
ATOM     31  H   UNL     1      29.581  -5.974 -21.831  0.00  0.00    +0.144 HD
ATOM     32  H   UNL     1      32.581  -4.197 -21.686  0.00  0.00    +0.188 HD
ENDBRANCH  26  29
ENDBRANCH  20  21
ENDBRANCH   2  20
TORSDOF 7
ENDMDL
