MODEL 1
REMARK VINA RESULT:     -11.8      0.000      0.000
REMARK  Name = 11691242
REMARK  5 active torsions:
REMARK  status: ('A' for Active; 'I' for Inactive)
REMARK    1  A    between atoms: N_1  and  C_25
REMARK    2  A    between atoms: C_5  and  N_11
REMARK    3  A    between atoms: N_12  and  C_17
REMARK    4  A    between atoms: C_18  and  O_23
REMARK    5  A    between atoms: C_25  and  C_28
REMARK                            x       y       z     vdW  Elec       q    Type
REMARK                         _______ _______ _______ _____ _____    ______ ____
ROOT
ATOM      1  N   UNL     1      35.461 -16.774 -22.843  0.00  0.00    -0.282 N 
ATOM      2  C   UNL     1      34.837 -16.000 -23.795  0.00  0.00    +0.053 C 
ATOM      3  C   UNL     1      34.290 -14.898 -23.135  0.00  0.00    +0.028 C 
ATOM      4  C   UNL     1      35.327 -16.202 -21.607  0.00  0.00    +0.066 C 
ATOM      5  C   UNL     1      33.587 -13.936 -23.887  0.00  0.00    +0.053 C 
ATOM      6  C   UNL     1      34.606 -15.039 -21.754  0.00  0.00    +0.019 C 
ATOM      7  C   UNL     1      34.717 -16.189 -25.176  0.00  0.00    +0.015 C 
ATOM      8  C   UNL     1      33.458 -14.112 -25.270  0.00  0.00    +0.015 C 
ATOM      9  C   UNL     1      34.016 -15.221 -25.903  0.00  0.00    +0.003 C 
ENDROOT
BRANCH   5  11
ATOM     10  O   UNL     1      34.390 -11.062 -24.009  0.00  0.00    -0.252 OA
ATOM     11  N   UNL     1      33.020 -12.816 -23.277  0.00  0.00    -0.268 N 
ATOM     12  N   UNL     1      32.578 -10.657 -22.587  0.00  0.00    -0.266 N 
ATOM     13  C   UNL     1      33.430 -11.463 -23.358  0.00  0.00    +0.308 C 
ATOM     14  H   UNL     1      32.230 -12.989 -22.715  0.00  0.00    +0.156 HD
ATOM     15  H   UNL     1      31.848 -11.124 -22.119  0.00  0.00    +0.157 HD
BRANCH  12  17
ATOM     16 BR   UNL     1      32.623  -5.909 -24.850  0.00  0.00    -0.049 Br
ATOM     17  C   UNL     1      32.638  -9.256 -22.399  0.00  0.00    +0.086 C 
ATOM     18  C   UNL     1      32.731  -8.732 -21.119  0.00  0.00    +0.152 C 
ATOM     19  C   UNL     1      32.603  -8.433 -23.513  0.00  0.00    +0.024 C 
ATOM     20  C   UNL     1      32.790  -7.349 -20.950  0.00  0.00    +0.039 C 
ATOM     21  C   UNL     1      32.663  -7.049 -23.344  0.00  0.00    +0.036 C 
ATOM     22  C   UNL     1      32.755  -6.508 -22.062  0.00  0.00    +0.010 C 
BRANCH  18  23
ATOM     23  O   UNL     1      32.767  -9.537 -20.021  0.00  0.00    -0.470 OA
ATOM     24  C   UNL     1      31.515  -9.976 -19.497  0.00  0.00    +0.253 C 
ENDBRANCH  18  23
ENDBRANCH  12  17
ENDBRANCH   5  11
BRANCH   1  25
ATOM     25  C   UNL     1      36.157 -18.018 -23.095  0.00  0.00    +0.122 C 
BRANCH  25  28
ATOM     26  N   UNL     1      35.367 -20.907 -20.030  0.00  0.00    -0.230 NA
ATOM     27  N   UNL     1      33.062 -20.895 -20.633  0.00  0.00    -0.343 N 
ATOM     28  C   UNL     1      35.879 -19.031 -22.018  0.00  0.00    +0.002 C 
ATOM     29  C   UNL     1      34.588 -19.492 -21.828  0.00  0.00    +0.031 C 
ATOM     30  C   UNL     1      36.918 -19.494 -21.230  0.00  0.00    +0.018 C 
ATOM     31  C   UNL     1      34.385 -20.426 -20.825  0.00  0.00    +0.125 C 
ATOM     32  C   UNL     1      36.611 -20.427 -20.254  0.00  0.00    +0.100 C 
ATOM     33  H   UNL     1      32.873 -21.560 -19.932  0.00  0.00    +0.144 HD
ATOM     34  H   UNL     1      32.333 -20.558 -21.203  0.00  0.00    +0.144 HD
ENDBRANCH  25  28
ENDBRANCH   1  25
TORSDOF 5
ENDMDL
MODEL 2
REMARK VINA RESULT:     -10.9      0.838      1.379
REMARK  Name = 11691242
REMARK  5 active torsions:
REMARK  status: ('A' for Active; 'I' for Inactive)
REMARK    1  A    between atoms: N_1  and  C_25
REMARK    2  A    between atoms: C_5  and  N_11
REMARK    3  A    between atoms: N_12  and  C_17
REMARK    4  A    between atoms: C_18  and  O_23
REMARK    5  A    between atoms: C_25  and  C_28
REMARK                            x       y       z     vdW  Elec       q    Type
REMARK                         _______ _______ _______ _____ _____    ______ ____
ROOT
ATOM      1  N   UNL     1      35.641 -17.079 -22.617  0.00  0.00    -0.282 N 
ATOM      2  C   UNL     1      35.069 -16.501 -23.727  0.00  0.00    +0.053 C 
ATOM      3  C   UNL     1      34.420 -15.341 -23.298  0.00  0.00    +0.028 C 
ATOM      4  C   UNL     1      35.378 -16.327 -21.504  0.00  0.00    +0.066 C 
ATOM      5  C   UNL     1      33.744 -14.551 -24.248  0.00  0.00    +0.053 C 
ATOM      6  C   UNL     1      34.624 -15.245 -21.892  0.00  0.00    +0.019 C 
ATOM      7  C   UNL     1      35.075 -16.912 -25.064  0.00  0.00    +0.015 C 
ATOM      8  C   UNL     1      33.741 -14.949 -25.590  0.00  0.00    +0.015 C 
ATOM      9  C   UNL     1      34.397 -16.112 -25.990  0.00  0.00    +0.003 C 
ENDROOT
BRANCH   5  11
ATOM     10  O   UNL     1      34.832 -11.923 -23.336  0.00  0.00    -0.252 OA
ATOM     11  N   UNL     1      33.079 -13.382 -23.873  0.00  0.00    -0.268 N 
ATOM     12  N   UNL     1      32.603 -11.236 -23.164  0.00  0.00    -0.266 N 
ATOM     13  C   UNL     1      33.631 -12.150 -23.445  0.00  0.00    +0.308 C 
ATOM     14  H   UNL     1      32.096 -13.418 -23.911  0.00  0.00    +0.156 HD
ATOM     15  H   UNL     1      31.685 -11.564 -23.299  0.00  0.00    +0.157 HD
BRANCH  12  17
ATOM     16 BR   UNL     1      34.035  -6.309 -24.322  0.00  0.00    -0.049 Br
ATOM     17  C   UNL     1      32.725  -9.900 -22.713  0.00  0.00    +0.086 C 
ATOM     18  C   UNL     1      32.348  -9.569 -21.420  0.00  0.00    +0.152 C 
ATOM     19  C   UNL     1      33.224  -8.946 -23.584  0.00  0.00    +0.024 C 
ATOM     20  C   UNL     1      32.473  -8.250 -20.989  0.00  0.00    +0.039 C 
ATOM     21  C   UNL     1      33.350  -7.625 -23.152  0.00  0.00    +0.036 C 
ATOM     22  C   UNL     1      32.974  -7.277 -21.855  0.00  0.00    +0.010 C 
BRANCH  18  23
ATOM     23  O   UNL     1      31.857 -10.505 -20.560  0.00  0.00    -0.470 OA
ATOM     24  C   UNL     1      31.240 -10.028 -19.365  0.00  0.00    +0.253 C 
ENDBRANCH  18  23
ENDBRANCH  12  17
ENDBRANCH   5  11
BRANCH   1  25
ATOM     25  C   UNL     1      36.410 -18.306 -22.609  0.00  0.00    +0.122 C 
BRANCH  25  28
ATOM     26  N   UNL     1      34.605 -21.264 -20.087  0.00  0.00    -0.230 NA
ATOM     27  N   UNL     1      36.722 -21.669 -19.072  0.00  0.00    -0.343 N 
ATOM     28  C   UNL     1      35.777 -19.345 -21.724  0.00  0.00    +0.002 C 
ATOM     29  C   UNL     1      36.554 -20.027 -20.805  0.00  0.00    +0.031 C 
ATOM     30  C   UNL     1      34.424 -19.607 -21.838  0.00  0.00    +0.018 C 
ATOM     31  C   UNL     1      35.924 -20.973 -20.013  0.00  0.00    +0.125 C 
ATOM     32  C   UNL     1      33.888 -20.571 -21.000  0.00  0.00    +0.100 C 
ATOM     33  H   UNL     1      36.315 -22.349 -18.489  0.00  0.00    +0.144 HD
ATOM     34  H   UNL     1      37.685 -21.471 -19.002  0.00  0.00    +0.144 HD
ENDBRANCH  25  28
ENDBRANCH   1  25
TORSDOF 5
ENDMDL
MODEL 3
REMARK VINA RESULT:     -10.9      5.923      9.874
REMARK  Name = 11691242
REMARK  5 active torsions:
REMARK  status: ('A' for Active; 'I' for Inactive)
REMARK    1  A    between atoms: N_1  and  C_25
REMARK    2  A    between atoms: C_5  and  N_11
REMARK    3  A    between atoms: N_12  and  C_17
REMARK    4  A    between atoms: C_18  and  O_23
REMARK    5  A    between atoms: C_25  and  C_28
REMARK                            x       y       z     vdW  Elec       q    Type
REMARK                         _______ _______ _______ _____ _____    ______ ____
ROOT
ATOM      1  N   UNL     1      36.536 -22.779 -16.025  0.00  0.00    -0.282 N 
ATOM      2  C   UNL     1      35.563 -22.759 -16.998  0.00  0.00    +0.053 C 
ATOM      3  C   UNL     1      36.032 -21.944 -18.031  0.00  0.00    +0.028 C 
ATOM      4  C   UNL     1      37.600 -22.006 -16.404  0.00  0.00    +0.066 C 
ATOM      5  C   UNL     1      35.219 -21.750 -19.165  0.00  0.00    +0.053 C 
ATOM      6  C   UNL     1      37.318 -21.474 -17.642  0.00  0.00    +0.019 C 
ATOM      7  C   UNL     1      34.318 -23.394 -17.045  0.00  0.00    +0.015 C 
ATOM      8  C   UNL     1      33.970 -22.379 -19.225  0.00  0.00    +0.015 C 
ATOM      9  C   UNL     1      33.528 -23.189 -18.181  0.00  0.00    +0.003 C 
ENDROOT
BRANCH   5  11
ATOM     10  O   UNL     1      33.645 -19.962 -20.967  0.00  0.00    -0.252 OA
ATOM     11  N   UNL     1      35.638 -20.945 -20.225  0.00  0.00    -0.268 N 
ATOM     12  N   UNL     1      35.684 -19.473 -22.004  0.00  0.00    -0.266 N 
ATOM     13  C   UNL     1      34.860 -20.107 -21.060  0.00  0.00    +0.308 C 
ATOM     14  H   UNL     1      36.604 -20.962 -20.419  0.00  0.00    +0.156 HD
ATOM     15  H   UNL     1      36.643 -19.690 -21.956  0.00  0.00    +0.157 HD
BRANCH  12  17
ATOM     16 BR   UNL     1      35.019 -14.437 -23.371  0.00  0.00    -0.049 Br
ATOM     17  C   UNL     1      35.305 -18.561 -23.017  0.00  0.00    +0.086 C 
ATOM     18  C   UNL     1      34.902 -19.031 -24.258  0.00  0.00    +0.152 C 
ATOM     19  C   UNL     1      35.347 -17.204 -22.741  0.00  0.00    +0.024 C 
ATOM     20  C   UNL     1      34.531 -18.120 -25.246  0.00  0.00    +0.039 C 
ATOM     21  C   UNL     1      34.976 -16.292 -23.730  0.00  0.00    +0.036 C 
ATOM     22  C   UNL     1      34.568 -16.750 -24.982  0.00  0.00    +0.010 C 
BRANCH  18  23
ATOM     23  O   UNL     1      34.858 -20.365 -24.534  0.00  0.00    -0.470 OA
ATOM     24  C   UNL     1      35.780 -20.856 -25.504  0.00  0.00    +0.253 C 
ENDBRANCH  18  23
ENDBRANCH  12  17
ENDBRANCH   5  11
BRANCH   1  25
ATOM     25  C   UNL     1      36.459 -23.503 -14.774  0.00  0.00    +0.122 C 
BRANCH  25  28
ATOM     26  N   UNL     1      38.522 -27.252 -15.002  0.00  0.00    -0.230 NA
ATOM     27  N   UNL     1      40.510 -26.188 -14.235  0.00  0.00    -0.343 N 
ATOM     28  C   UNL     1      37.184 -24.818 -14.855  0.00  0.00    +0.002 C 
ATOM     29  C   UNL     1      38.521 -24.887 -14.505  0.00  0.00    +0.031 C 
ATOM     30  C   UNL     1      36.505 -25.947 -15.277  0.00  0.00    +0.018 C 
ATOM     31  C   UNL     1      39.142 -26.122 -14.595  0.00  0.00    +0.125 C 
ATOM     32  C   UNL     1      37.216 -27.135 -15.333  0.00  0.00    +0.100 C 
ATOM     33  H   UNL     1      40.991 -27.046 -14.283  0.00  0.00    +0.144 HD
ATOM     34  H   UNL     1      40.980 -25.377 -13.934  0.00  0.00    +0.144 HD
ENDBRANCH  25  28
ENDBRANCH   1  25
TORSDOF 5
ENDMDL
MODEL 4
REMARK VINA RESULT:     -10.8      6.897     12.376
REMARK  Name = 11691242
REMARK  5 active torsions:
REMARK  status: ('A' for Active; 'I' for Inactive)
REMARK    1  A    between atoms: N_1  and  C_25
REMARK    2  A    between atoms: C_5  and  N_11
REMARK    3  A    between atoms: N_12  and  C_17
REMARK    4  A    between atoms: C_18  and  O_23
REMARK    5  A    between atoms: C_25  and  C_28
REMARK                            x       y       z     vdW  Elec       q    Type
REMARK                         _______ _______ _______ _____ _____    ______ ____
ROOT
ATOM      1  N   UNL     1      36.140 -18.947 -22.052  0.00  0.00    -0.282 N 
ATOM      2  C   UNL     1      35.404 -19.839 -21.307  0.00  0.00    +0.053 C 
ATOM      3  C   UNL     1      36.261 -20.375 -20.344  0.00  0.00    +0.028 C 
ATOM      4  C   UNL     1      37.429 -18.901 -21.597  0.00  0.00    +0.066 C 
ATOM      5  C   UNL     1      35.754 -21.328 -19.438  0.00  0.00    +0.053 C 
ATOM      6  C   UNL     1      37.537 -19.775 -20.540  0.00  0.00    +0.019 C 
ATOM      7  C   UNL     1      34.058 -20.208 -21.408  0.00  0.00    +0.015 C 
ATOM      8  C   UNL     1      34.410 -21.708 -19.528  0.00  0.00    +0.015 C 
ATOM      9  C   UNL     1      33.576 -21.155 -20.499  0.00  0.00    +0.003 C 
ENDROOT
BRANCH   5  11
ATOM     10  O   UNL     1      35.025 -22.728 -16.902  0.00  0.00    -0.252 OA
ATOM     11  N   UNL     1      36.568 -21.896 -18.457  0.00  0.00    -0.268 N 
ATOM     12  N   UNL     1      37.325 -22.974 -16.560  0.00  0.00    -0.266 N 
ATOM     13  C   UNL     1      36.185 -22.554 -17.263  0.00  0.00    +0.308 C 
ATOM     14  H   UNL     1      37.538 -21.831 -18.615  0.00  0.00    +0.156 HD
ATOM     15  H   UNL     1      38.192 -22.762 -16.976  0.00  0.00    +0.157 HD
BRANCH  12  17
ATOM     16 BR   UNL     1      34.806 -24.311 -12.140  0.00  0.00    -0.049 Br
ATOM     17  C   UNL     1      37.382 -23.665 -15.326  0.00  0.00    +0.086 C 
ATOM     18  C   UNL     1      38.538 -24.340 -14.963  0.00  0.00    +0.152 C 
ATOM     19  C   UNL     1      36.269 -23.649 -14.502  0.00  0.00    +0.024 C 
ATOM     20  C   UNL     1      38.579 -25.017 -13.745  0.00  0.00    +0.039 C 
ATOM     21  C   UNL     1      36.311 -24.326 -13.282  0.00  0.00    +0.036 C 
ATOM     22  C   UNL     1      37.466 -25.010 -12.905  0.00  0.00    +0.010 C 
BRANCH  18  23
ATOM     23  O   UNL     1      39.636 -24.358 -15.771  0.00  0.00    -0.470 OA
ATOM     24  C   UNL     1      40.610 -25.369 -15.518  0.00  0.00    +0.253 C 
ENDBRANCH  18  23
ENDBRANCH  12  17
ENDBRANCH   5  11
BRANCH   1  25
ATOM     25  C   UNL     1      35.639 -18.166 -23.164  0.00  0.00    +0.122 C 
BRANCH  25  28
ATOM     26  N   UNL     1      34.553 -14.208 -21.930  0.00  0.00    -0.230 NA
ATOM     27  N   UNL     1      34.505 -13.525 -24.212  0.00  0.00    -0.343 N 
ATOM     28  C   UNL     1      35.259 -16.776 -22.731  0.00  0.00    +0.002 C 
ATOM     29  C   UNL     1      35.059 -15.792 -23.684  0.00  0.00    +0.031 C 
ATOM     30  C   UNL     1      35.111 -16.496 -21.385  0.00  0.00    +0.018 C 
ATOM     31  C   UNL     1      34.709 -14.530 -23.234  0.00  0.00    +0.125 C 
ATOM     32  C   UNL     1      34.759 -15.202 -21.038  0.00  0.00    +0.100 C 
ATOM     33  H   UNL     1      34.254 -12.614 -23.937  0.00  0.00    +0.144 HD
ATOM     34  H   UNL     1      34.612 -13.740 -25.168  0.00  0.00    +0.144 HD
ENDBRANCH  25  28
ENDBRANCH   1  25
TORSDOF 5
ENDMDL
MODEL 5
REMARK VINA RESULT:     -10.5      6.712     11.734
REMARK  Name = 11691242
REMARK  5 active torsions:
REMARK  status: ('A' for Active; 'I' for Inactive)
REMARK    1  A    between atoms: N_1  and  C_25
REMARK    2  A    between atoms: C_5  and  N_11
REMARK    3  A    between atoms: N_12  and  C_17
REMARK    4  A    between atoms: C_18  and  O_23
REMARK    5  A    between atoms: C_25  and  C_28
REMARK                            x       y       z     vdW  Elec       q    Type
REMARK                         _______ _______ _______ _____ _____    ______ ____
ROOT
ATOM      1  N   UNL     1      36.123 -18.729 -23.129  0.00  0.00    -0.282 N 
ATOM      2  C   UNL     1      35.341 -19.448 -22.253  0.00  0.00    +0.053 C 
ATOM      3  C   UNL     1      36.151 -19.796 -21.170  0.00  0.00    +0.028 C 
ATOM      4  C   UNL     1      37.396 -18.611 -22.638  0.00  0.00    +0.066 C 
ATOM      5  C   UNL     1      35.591 -20.546 -20.117  0.00  0.00    +0.053 C 
ATOM      6  C   UNL     1      37.446 -19.262 -21.427  0.00  0.00    +0.019 C 
ATOM      7  C   UNL     1      33.993 -19.812 -22.336  0.00  0.00    +0.015 C 
ATOM      8  C   UNL     1      34.243 -20.918 -20.186  0.00  0.00    +0.015 C 
ATOM      9  C   UNL     1      33.458 -20.556 -21.279  0.00  0.00    +0.003 C 
ENDROOT
BRANCH   5  11
ATOM     10  O   UNL     1      35.355 -22.927 -18.330  0.00  0.00    -0.252 OA
ATOM     11  N   UNL     1      36.355 -20.921 -19.011  0.00  0.00    -0.268 N 
ATOM     12  N   UNL     1      37.195 -22.053 -17.182  0.00  0.00    -0.266 N 
ATOM     13  C   UNL     1      36.213 -22.062 -18.185  0.00  0.00    +0.308 C 
ATOM     14  H   UNL     1      37.091 -20.311 -18.774  0.00  0.00    +0.156 HD
ATOM     15  H   UNL     1      37.817 -21.290 -17.193  0.00  0.00    +0.157 HD
BRANCH  12  17
ATOM     16 BR   UNL     1      40.470 -25.559 -15.024  0.00  0.00    -0.049 Br
ATOM     17  C   UNL     1      37.402 -23.006 -16.157  0.00  0.00    +0.086 C 
ATOM     18  C   UNL     1      36.404 -23.250 -15.226  0.00  0.00    +0.152 C 
ATOM     19  C   UNL     1      38.612 -23.680 -16.108  0.00  0.00    +0.024 C 
ATOM     20  C   UNL     1      36.622 -24.191 -14.221  0.00  0.00    +0.039 C 
ATOM     21  C   UNL     1      38.830 -24.623 -15.103  0.00  0.00    +0.036 C 
ATOM     22  C   UNL     1      37.835 -24.878 -14.160  0.00  0.00    +0.010 C 
BRANCH  18  23
ATOM     23  O   UNL     1      35.213 -22.590 -15.270  0.00  0.00    -0.470 OA
ATOM     24  C   UNL     1      34.029 -23.383 -15.190  0.00  0.00    +0.253 C 
ENDBRANCH  18  23
ENDBRANCH  12  17
ENDBRANCH   5  11
BRANCH   1  25
ATOM     25  C   UNL     1      35.682 -18.174 -24.390  0.00  0.00    +0.122 C 
BRANCH  25  28
ATOM     26  N   UNL     1      34.025 -14.254 -23.881  0.00  0.00    -0.230 NA
ATOM     27  N   UNL     1      33.180 -14.338 -26.107  0.00  0.00    -0.343 N 
ATOM     28  C   UNL     1      35.101 -16.798 -24.213  0.00  0.00    +0.002 C 
ATOM     29  C   UNL     1      34.407 -16.207 -25.254  0.00  0.00    +0.031 C 
ATOM     30  C   UNL     1      35.265 -16.137 -23.009  0.00  0.00    +0.018 C 
ATOM     31  C   UNL     1      33.890 -14.940 -25.039  0.00  0.00    +0.125 C 
ATOM     32  C   UNL     1      34.711 -14.873 -22.894  0.00  0.00    +0.100 C 
ATOM     33  H   UNL     1      32.796 -13.439 -25.997  0.00  0.00    +0.144 HD
ATOM     34  H   UNL     1      33.070 -14.821 -26.958  0.00  0.00    +0.144 HD
ENDBRANCH  25  28
ENDBRANCH   1  25
TORSDOF 5
ENDMDL
MODEL 6
REMARK VINA RESULT:     -10.1      1.580      2.090
REMARK  Name = 11691242
REMARK  5 active torsions:
REMARK  status: ('A' for Active; 'I' for Inactive)
REMARK    1  A    between atoms: N_1  and  C_25
REMARK    2  A    between atoms: C_5  and  N_11
REMARK    3  A    between atoms: N_12  and  C_17
REMARK    4  A    between atoms: C_18  and  O_23
REMARK    5  A    between atoms: C_25  and  C_28
REMARK                            x       y       z     vdW  Elec       q    Type
REMARK                         _______ _______ _______ _____ _____    ______ ____
ROOT
ATOM      1  N   UNL     1      35.398 -17.248 -23.155  0.00  0.00    -0.282 N 
ATOM      2  C   UNL     1      34.799 -16.435 -24.090  0.00  0.00    +0.053 C 
ATOM      3  C   UNL     1      34.564 -15.203 -23.473  0.00  0.00    +0.028 C 
ATOM      4  C   UNL     1      35.549 -16.575 -21.972  0.00  0.00    +0.066 C 
ATOM      5  C   UNL     1      33.950 -14.177 -24.219  0.00  0.00    +0.053 C 
ATOM      6  C   UNL     1      35.042 -15.308 -22.137  0.00  0.00    +0.019 C 
ATOM      7  C   UNL     1      34.450 -16.691 -25.420  0.00  0.00    +0.015 C 
ATOM      8  C   UNL     1      33.596 -14.420 -25.551  0.00  0.00    +0.015 C 
ATOM      9  C   UNL     1      33.843 -15.658 -26.141  0.00  0.00    +0.003 C 
ENDROOT
BRANCH   5  11
ATOM     10  O   UNL     1      34.189 -11.441 -25.393  0.00  0.00    -0.252 OA
ATOM     11  N   UNL     1      33.692 -12.929 -23.652  0.00  0.00    -0.268 N 
ATOM     12  N   UNL     1      33.454 -10.656 -23.316  0.00  0.00    -0.266 N 
ATOM     13  C   UNL     1      33.817 -11.647 -24.242  0.00  0.00    +0.308 C 
ATOM     14  H   UNL     1      33.382 -12.939 -22.717  0.00  0.00    +0.156 HD
ATOM     15  H   UNL     1      33.176 -10.976 -22.428  0.00  0.00    +0.157 HD
BRANCH  12  17
ATOM     16 BR   UNL     1      30.640  -6.217 -23.110  0.00  0.00    -0.049 Br
ATOM     17  C   UNL     1      33.439  -9.253 -23.503  0.00  0.00    +0.086 C 
ATOM     18  C   UNL     1      34.585  -8.598 -23.927  0.00  0.00    +0.152 C 
ATOM     19  C   UNL     1      32.264  -8.561 -23.255  0.00  0.00    +0.024 C 
ATOM     20  C   UNL     1      34.555  -7.216 -24.107  0.00  0.00    +0.039 C 
ATOM     21  C   UNL     1      32.234  -7.178 -23.436  0.00  0.00    +0.036 C 
ATOM     22  C   UNL     1      33.379  -6.506 -23.861  0.00  0.00    +0.010 C 
BRANCH  18  23
ATOM     23  O   UNL     1      35.742  -9.275 -24.173  0.00  0.00    -0.470 OA
ATOM     24  C   UNL     1      36.140  -9.404 -25.537  0.00  0.00    +0.253 C 
ENDBRANCH  18  23
ENDBRANCH  12  17
ENDBRANCH   5  11
BRANCH   1  25
ATOM     25  C   UNL     1      35.811 -18.618 -23.373  0.00  0.00    +0.122 C 
BRANCH  25  28
ATOM     26  N   UNL     1      35.285 -20.994 -19.845  0.00  0.00    -0.230 NA
ATOM     27  N   UNL     1      32.931 -20.987 -20.209  0.00  0.00    -0.343 N 
ATOM     28  C   UNL     1      35.625 -19.451 -22.134  0.00  0.00    +0.002 C 
ATOM     29  C   UNL     1      34.353 -19.831 -21.748  0.00  0.00    +0.031 C 
ATOM     30  C   UNL     1      36.731 -19.830 -21.394  0.00  0.00    +0.018 C 
ATOM     31  C   UNL     1      34.236 -20.599 -20.601  0.00  0.00    +0.125 C 
ATOM     32  C   UNL     1      36.508 -20.598 -20.263  0.00  0.00    +0.100 C 
ATOM     33  H   UNL     1      32.802 -21.534 -19.401  0.00  0.00    +0.144 HD
ATOM     34  H   UNL     1      32.153 -20.711 -20.746  0.00  0.00    +0.144 HD
ENDBRANCH  25  28
ENDBRANCH   1  25
TORSDOF 5
ENDMDL
MODEL 7
REMARK VINA RESULT:     -10.0      2.601      4.649
REMARK  Name = 11691242
REMARK  5 active torsions:
REMARK  status: ('A' for Active; 'I' for Inactive)
REMARK    1  A    between atoms: N_1  and  C_25
REMARK    2  A    between atoms: C_5  and  N_11
REMARK    3  A    between atoms: N_12  and  C_17
REMARK    4  A    between atoms: C_18  and  O_23
REMARK    5  A    between atoms: C_25  and  C_28
REMARK                            x       y       z     vdW  Elec       q    Type
REMARK                         _______ _______ _______ _____ _____    ______ ____
ROOT
ATOM      1  N   UNL     1      34.212 -13.337 -22.969  0.00  0.00    -0.282 N 
ATOM      2  C   UNL     1      33.240 -12.688 -22.243  0.00  0.00    +0.053 C 
ATOM      3  C   UNL     1      32.917 -11.521 -22.939  0.00  0.00    +0.028 C 
ATOM      4  C   UNL     1      34.515 -12.623 -24.097  0.00  0.00    +0.066 C 
ATOM      5  C   UNL     1      31.936 -10.662 -22.405  0.00  0.00    +0.053 C 
ATOM      6  C   UNL     1      33.730 -11.493 -24.107  0.00  0.00    +0.019 C 
ATOM      7  C   UNL     1      32.628 -13.041 -21.035  0.00  0.00    +0.015 C 
ATOM      8  C   UNL     1      31.315 -11.002 -21.197  0.00  0.00    +0.015 C 
ATOM      9  C   UNL     1      31.656 -12.174 -20.525  0.00  0.00    +0.003 C 
ENDROOT
BRANCH   5  11
ATOM     10  O   UNL     1      33.474  -8.134 -22.809  0.00  0.00    -0.252 OA
ATOM     11  N   UNL     1      31.575  -9.484 -23.059  0.00  0.00    -0.268 N 
ATOM     12  N   UNL     1      31.589  -7.354 -23.953  0.00  0.00    -0.266 N 
ATOM     13  C   UNL     1      32.334  -8.301 -23.231  0.00  0.00    +0.308 C 
ATOM     14  H   UNL     1      30.673  -9.473 -23.454  0.00  0.00    +0.156 HD
ATOM     15  H   UNL     1      30.686  -7.633 -24.226  0.00  0.00    +0.157 HD
BRANCH  12  17
ATOM     16 BR   UNL     1      34.742  -4.402 -26.956  0.00  0.00    -0.049 Br
ATOM     17  C   UNL     1      31.978  -6.049 -24.337  0.00  0.00    +0.086 C 
ATOM     18  C   UNL     1      31.360  -4.946 -23.767  0.00  0.00    +0.152 C 
ATOM     19  C   UNL     1      32.979  -5.903 -25.284  0.00  0.00    +0.024 C 
ATOM     20  C   UNL     1      31.754  -3.667 -24.155  0.00  0.00    +0.039 C 
ATOM     21  C   UNL     1      33.373  -4.623 -25.671  0.00  0.00    +0.036 C 
ATOM     22  C   UNL     1      32.760  -3.504 -25.107  0.00  0.00    +0.010 C 
BRANCH  18  23
ATOM     23  O   UNL     1      30.376  -5.084 -22.835  0.00  0.00    -0.470 OA
ATOM     24  C   UNL     1      30.786  -5.270 -21.481  0.00  0.00    +0.253 C 
ENDBRANCH  18  23
ENDBRANCH  12  17
ENDBRANCH   5  11
BRANCH   1  25
ATOM     25  C   UNL     1      34.838 -14.591 -22.606  0.00  0.00    +0.122 C 
BRANCH  25  28
ATOM     26  N   UNL     1      34.467 -17.489 -25.741  0.00  0.00    -0.230 NA
ATOM     27  N   UNL     1      35.391 -19.146 -24.299  0.00  0.00    -0.343 N 
ATOM     28  C   UNL     1      34.709 -15.608 -23.706  0.00  0.00    +0.002 C 
ATOM     29  C   UNL     1      35.116 -16.912 -23.485  0.00  0.00    +0.031 C 
ATOM     30  C   UNL     1      34.183 -15.230 -24.929  0.00  0.00    +0.018 C 
ATOM     31  C   UNL     1      34.974 -17.811 -24.530  0.00  0.00    +0.125 C 
ATOM     32  C   UNL     1      34.084 -16.204 -25.909  0.00  0.00    +0.100 C 
ATOM     33  H   UNL     1      35.308 -19.817 -25.014  0.00  0.00    +0.144 HD
ATOM     34  H   UNL     1      35.762 -19.401 -23.423  0.00  0.00    +0.144 HD
ENDBRANCH  25  28
ENDBRANCH   1  25
TORSDOF 5
ENDMDL
MODEL 8
REMARK VINA RESULT:      -9.8      5.557      9.660
REMARK  Name = 11691242
REMARK  5 active torsions:
REMARK  status: ('A' for Active; 'I' for Inactive)
REMARK    1  A    between atoms: N_1  and  C_25
REMARK    2  A    between atoms: C_5  and  N_11
REMARK    3  A    between atoms: N_12  and  C_17
REMARK    4  A    between atoms: C_18  and  O_23
REMARK    5  A    between atoms: C_25  and  C_28
REMARK                            x       y       z     vdW  Elec       q    Type
REMARK                         _______ _______ _______ _____ _____    ______ ____
ROOT
ATOM      1  N   UNL     1      36.155 -23.438 -16.213  0.00  0.00    -0.282 N 
ATOM      2  C   UNL     1      35.285 -23.178 -17.247  0.00  0.00    +0.053 C 
ATOM      3  C   UNL     1      35.848 -22.153 -18.011  0.00  0.00    +0.028 C 
ATOM      4  C   UNL     1      37.246 -22.615 -16.296  0.00  0.00    +0.066 C 
ATOM      5  C   UNL     1      35.151 -21.690 -19.144  0.00  0.00    +0.053 C 
ATOM      6  C   UNL     1      37.085 -21.807 -17.398  0.00  0.00    +0.019 C 
ATOM      7  C   UNL     1      34.055 -23.766 -17.562  0.00  0.00    +0.015 C 
ATOM      8  C   UNL     1      33.918 -22.269 -19.471  0.00  0.00    +0.015 C 
ATOM      9  C   UNL     1      33.381 -23.290 -18.691  0.00  0.00    +0.003 C 
ENDROOT
BRANCH   5  11
ATOM     10  O   UNL     1      33.762 -19.796 -20.990  0.00  0.00    -0.252 OA
ATOM     11  N   UNL     1      35.668 -20.669 -19.942  0.00  0.00    -0.268 N 
ATOM     12  N   UNL     1      35.882 -18.909 -21.423  0.00  0.00    -0.266 N 
ATOM     13  C   UNL     1      34.976 -19.787 -20.808  0.00  0.00    +0.308 C 
ATOM     14  H   UNL     1      36.644 -20.544 -19.898  0.00  0.00    +0.156 HD
ATOM     15  H   UNL     1      36.828 -19.024 -21.177  0.00  0.00    +0.157 HD
BRANCH  12  17
ATOM     16 BR   UNL     1      34.538 -13.875 -22.145  0.00  0.00    -0.049 Br
ATOM     17  C   UNL     1      35.603 -17.879 -22.352  0.00  0.00    +0.086 C 
ATOM     18  C   UNL     1      35.662 -18.139 -23.712  0.00  0.00    +0.152 C 
ATOM     19  C   UNL     1      35.274 -16.621 -21.873  0.00  0.00    +0.024 C 
ATOM     20  C   UNL     1      35.385 -17.114 -24.616  0.00  0.00    +0.039 C 
ATOM     21  C   UNL     1      34.996 -15.596 -22.777  0.00  0.00    +0.036 C 
ATOM     22  C   UNL     1      35.052 -15.842 -24.149  0.00  0.00    +0.010 C 
BRANCH  18  23
ATOM     23  O   UNL     1      35.984 -19.375 -24.188  0.00  0.00    -0.470 OA
ATOM     24  C   UNL     1      34.949 -20.108 -24.842  0.00  0.00    +0.253 C 
ENDBRANCH  18  23
ENDBRANCH  12  17
ENDBRANCH   5  11
BRANCH   1  25
ATOM     25  C   UNL     1      35.960 -24.430 -15.177  0.00  0.00    +0.122 C 
BRANCH  25  28
ATOM     26  N   UNL     1      38.858 -24.021 -12.047  0.00  0.00    -0.230 NA
ATOM     27  N   UNL     1      37.350 -22.614 -10.854  0.00  0.00    -0.343 N 
ATOM     28  C   UNL     1      36.977 -24.285 -14.079  0.00  0.00    +0.002 C 
ATOM     29  C   UNL     1      36.684 -23.509 -12.972  0.00  0.00    +0.031 C 
ATOM     30  C   UNL     1      38.195 -24.932 -14.186  0.00  0.00    +0.018 C 
ATOM     31  C   UNL     1      37.654 -23.409 -11.987  0.00  0.00    +0.125 C 
ATOM     32  C   UNL     1      39.097 -24.769 -13.148  0.00  0.00    +0.100 C 
ATOM     33  H   UNL     1      38.010 -22.516 -10.131  0.00  0.00    +0.144 HD
ATOM     34  H   UNL     1      36.478 -22.160 -10.791  0.00  0.00    +0.144 HD
ENDBRANCH  25  28
ENDBRANCH   1  25
TORSDOF 5
ENDMDL
MODEL 9
REMARK VINA RESULT:      -9.8      2.100      2.917
REMARK  Name = 11691242
REMARK  5 active torsions:
REMARK  status: ('A' for Active; 'I' for Inactive)
REMARK    1  A    between atoms: N_1  and  C_25
REMARK    2  A    between atoms: C_5  and  N_11
REMARK    3  A    between atoms: N_12  and  C_17
REMARK    4  A    between atoms: C_18  and  O_23
REMARK    5  A    between atoms: C_25  and  C_28
REMARK                            x       y       z     vdW  Elec       q    Type
REMARK                         _______ _______ _______ _____ _____    ______ ____
ROOT
ATOM      1  N   UNL     1      35.567 -17.865 -22.969  0.00  0.00    -0.282 N 
ATOM      2  C   UNL     1      34.962 -17.223 -24.025  0.00  0.00    +0.053 C 
ATOM      3  C   UNL     1      34.745 -15.900 -23.631  0.00  0.00    +0.028 C 
ATOM      4  C   UNL     1      35.739 -16.998 -21.924  0.00  0.00    +0.066 C 
ATOM      5  C   UNL     1      34.130 -15.014 -24.538  0.00  0.00    +0.053 C 
ATOM      6  C   UNL     1      35.239 -15.774 -22.302  0.00  0.00    +0.019 C 
ATOM      7  C   UNL     1      34.595 -17.704 -25.286  0.00  0.00    +0.015 C 
ATOM      8  C   UNL     1      33.757 -15.483 -25.803  0.00  0.00    +0.015 C 
ATOM      9  C   UNL     1      33.987 -16.807 -26.170  0.00  0.00    +0.003 C 
ENDROOT
BRANCH   5  11
ATOM     10  O   UNL     1      32.846 -13.852 -22.105  0.00  0.00    -0.252 OA
ATOM     11  N   UNL     1      33.890 -13.683 -24.196  0.00  0.00    -0.268 N 
ATOM     12  N   UNL     1      33.233 -11.766 -23.088  0.00  0.00    -0.266 N 
ATOM     13  C   UNL     1      33.276 -13.168 -23.028  0.00  0.00    +0.308 C 
ATOM     14  H   UNL     1      34.186 -13.012 -24.853  0.00  0.00    +0.156 HD
ATOM     15  H   UNL     1      33.619 -11.356 -23.895  0.00  0.00    +0.157 HD
BRANCH  12  17
ATOM     16 BR   UNL     1      31.540 -11.089 -18.154  0.00  0.00    -0.049 Br
ATOM     17  C   UNL     1      32.704 -10.869 -22.129  0.00  0.00    +0.086 C 
ATOM     18  C   UNL     1      32.463  -9.549 -22.475  0.00  0.00    +0.152 C 
ATOM     19  C   UNL     1      32.438 -11.339 -20.853  0.00  0.00    +0.024 C 
ATOM     20  C   UNL     1      31.942  -8.677 -21.520  0.00  0.00    +0.039 C 
ATOM     21  C   UNL     1      31.917 -10.466 -19.898  0.00  0.00    +0.036 C 
ATOM     22  C   UNL     1      31.669  -9.135 -20.231  0.00  0.00    +0.010 C 
BRANCH  18  23
ATOM     23  O   UNL     1      32.722  -9.082 -23.730  0.00  0.00    -0.470 OA
ATOM     24  C   UNL     1      32.101  -7.854 -24.105  0.00  0.00    +0.253 C 
ENDBRANCH  18  23
ENDBRANCH  12  17
ENDBRANCH   5  11
BRANCH   1  25
ATOM     25  C   UNL     1      35.966 -19.257 -22.948  0.00  0.00    +0.122 C 
BRANCH  25  28
ATOM     26  N   UNL     1      34.168 -21.349 -19.668  0.00  0.00    -0.230 NA
ATOM     27  N   UNL     1      36.336 -21.934 -18.873  0.00  0.00    -0.343 N 
ATOM     28  C   UNL     1      35.336 -19.992 -21.797  0.00  0.00    +0.002 C 
ATOM     29  C   UNL     1      36.139 -20.625 -20.866  0.00  0.00    +0.031 C 
ATOM     30  C   UNL     1      33.958 -20.026 -21.681  0.00  0.00    +0.018 C 
ATOM     31  C   UNL     1      35.510 -21.287 -19.825  0.00  0.00    +0.125 C 
ATOM     32  C   UNL     1      33.425 -20.715 -20.603  0.00  0.00    +0.100 C 
ATOM     33  H   UNL     1      35.931 -22.416 -18.116  0.00  0.00    +0.144 HD
ATOM     34  H   UNL     1      37.316 -21.900 -18.967  0.00  0.00    +0.144 HD
ENDBRANCH  25  28
ENDBRANCH   1  25
TORSDOF 5
ENDMDL
