MODEL 1
REMARK VINA RESULT:     -11.4      0.000      0.000
REMARK  Name = 6323454
REMARK  1 active torsions:
REMARK  status: ('A' for Active; 'I' for Inactive)
REMARK    1  A    between atoms: C_18  and  O_22
REMARK                            x       y       z     vdW  Elec       q    Type
REMARK                         _______ _______ _______ _____ _____    ______ ____
ROOT
ATOM      1  O   UNL     1      34.557 -24.708 -13.798  0.00  0.00    -0.350 OA
ATOM      2  O   UNL     1      37.599 -22.925 -13.884  0.00  0.00    -0.445 OA
ATOM      3  O   UNL     1      38.040 -22.403 -16.590  0.00  0.00    -0.287 OA
ATOM      4  O   UNL     1      38.442 -22.868 -11.739  0.00  0.00    -0.250 OA
ATOM      5  O   UNL     1      32.937 -23.580 -17.586  0.00  0.00    -0.287 OA
ATOM      6  C   UNL     1      35.522 -23.748 -13.424  0.00  0.00    +0.171 C 
ATOM      7  C   UNL     1      36.591 -23.727 -14.487  0.00  0.00    +0.221 C 
ATOM      8  C   UNL     1      35.986 -23.253 -15.773  0.00  0.00    +0.060 C 
ATOM      9  C   UNL     1      33.822 -24.274 -14.974  0.00  0.00    +0.141 C 
ATOM     10  C   UNL     1      34.689 -23.536 -16.004  0.00  0.00    +0.046 C 
ATOM     11  C   UNL     1      36.364 -24.051 -12.210  0.00  0.00    +0.143 C 
ATOM     12  C   UNL     1      37.587 -23.222 -12.536  0.00  0.00    +0.320 C 
ATOM     13  C   UNL     1      36.841 -22.571 -16.774  0.00  0.00    +0.195 C 
ATOM     14  C   UNL     1      34.067 -23.192 -17.314  0.00  0.00    +0.197 C 
ATOM     15  C   UNL     1      32.629 -23.443 -14.492  0.00  0.00    +0.037 C 
ATOM     16  C   UNL     1      36.196 -22.099 -18.012  0.00  0.00    +0.045 C 
ATOM     17  C   UNL     1      34.859 -22.399 -18.271  0.00  0.00    +0.075 C 
ATOM     18  C   UNL     1      34.263 -21.952 -19.457  0.00  0.00    +0.137 C 
ATOM     19  C   UNL     1      36.939 -21.356 -18.937  0.00  0.00    +0.003 C 
ATOM     20  C   UNL     1      35.005 -21.208 -20.376  0.00  0.00    +0.037 C 
ATOM     21  C   UNL     1      36.340 -20.911 -20.116  0.00  0.00    +0.003 C 
ENDROOT
BRANCH  18  22
ATOM     22  O   UNL     1      32.960 -22.203 -19.769  0.00  0.00    -0.505 OA
ATOM     23  H   UNL     1      32.397 -22.606 -19.138  0.00  0.00    +0.292 HD
ENDBRANCH  18  22
TORSDOF 1
ENDMDL
MODEL 2
REMARK VINA RESULT:     -10.6      2.109      5.788
REMARK  Name = 6323454
REMARK  1 active torsions:
REMARK  status: ('A' for Active; 'I' for Inactive)
REMARK    1  A    between atoms: C_18  and  O_22
REMARK                            x       y       z     vdW  Elec       q    Type
REMARK                         _______ _______ _______ _____ _____    ______ ____
ROOT
ATOM      1  O   UNL     1      32.214 -23.096 -15.037  0.00  0.00    -0.350 OA
ATOM      2  O   UNL     1      34.423 -22.993 -17.785  0.00  0.00    -0.445 OA
ATOM      3  O   UNL     1      36.965 -23.255 -16.663  0.00  0.00    -0.287 OA
ATOM      4  O   UNL     1      33.175 -22.551 -19.673  0.00  0.00    -0.250 OA
ATOM      5  O   UNL     1      34.726 -24.986 -12.145  0.00  0.00    -0.287 OA
ATOM      6  C   UNL     1      32.717 -23.389 -16.322  0.00  0.00    +0.171 C 
ATOM      7  C   UNL     1      34.127 -22.861 -16.400  0.00  0.00    +0.221 C 
ATOM      8  C   UNL     1      34.979 -23.609 -15.421  0.00  0.00    +0.060 C 
ATOM      9  C   UNL     1      32.898 -23.876 -14.020  0.00  0.00    +0.141 C 
ATOM     10  C   UNL     1      34.397 -24.063 -14.293  0.00  0.00    +0.046 C 
ATOM     11  C   UNL     1      32.099 -22.662 -17.490  0.00  0.00    +0.143 C 
ATOM     12  C   UNL     1      33.253 -22.721 -18.466  0.00  0.00    +0.320 C 
ATOM     13  C   UNL     1      36.432 -23.753 -15.679  0.00  0.00    +0.195 C 
ATOM     14  C   UNL     1      35.219 -24.711 -13.232  0.00  0.00    +0.197 C 
ATOM     15  C   UNL     1      32.148 -25.204 -13.876  0.00  0.00    +0.037 C 
ATOM     16  C   UNL     1      37.225 -24.520 -14.701  0.00  0.00    +0.045 C 
ATOM     17  C   UNL     1      36.639 -24.981 -13.523  0.00  0.00    +0.075 C 
ATOM     18  C   UNL     1      37.408 -25.699 -12.598  0.00  0.00    +0.137 C 
ATOM     19  C   UNL     1      38.578 -24.773 -14.957  0.00  0.00    +0.003 C 
ATOM     20  C   UNL     1      38.756 -25.954 -12.857  0.00  0.00    +0.037 C 
ATOM     21  C   UNL     1      39.339 -25.491 -14.034  0.00  0.00    +0.003 C 
ENDROOT
BRANCH  18  22
ATOM     22  O   UNL     1      36.897 -26.184 -11.431  0.00  0.00    -0.505 OA
ATOM     23  H   UNL     1      36.927 -27.104 -11.254  0.00  0.00    +0.292 HD
ENDBRANCH  18  22
TORSDOF 1
ENDMDL
MODEL 3
REMARK VINA RESULT:     -10.2      1.805      6.175
REMARK  Name = 6323454
REMARK  1 active torsions:
REMARK  status: ('A' for Active; 'I' for Inactive)
REMARK    1  A    between atoms: C_18  and  O_22
REMARK                            x       y       z     vdW  Elec       q    Type
REMARK                         _______ _______ _______ _____ _____    ______ ____
ROOT
ATOM      1  O   UNL     1      37.224 -22.374 -18.271  0.00  0.00    -0.350 OA
ATOM      2  O   UNL     1      34.170 -21.349 -19.708  0.00  0.00    -0.445 OA
ATOM      3  O   UNL     1      32.227 -22.873 -18.408  0.00  0.00    -0.287 OA
ATOM      4  O   UNL     1      34.656 -19.880 -21.418  0.00  0.00    -0.250 OA
ATOM      5  O   UNL     1      35.787 -24.075 -14.626  0.00  0.00    -0.287 OA
ATOM      6  C   UNL     1      36.243 -21.487 -18.766  0.00  0.00    +0.171 C 
ATOM      7  C   UNL     1      34.979 -22.277 -18.996  0.00  0.00    +0.221 C 
ATOM      8  C   UNL     1      34.478 -22.785 -17.678  0.00  0.00    +0.060 C 
ATOM      9  C   UNL     1      36.888 -22.827 -16.932  0.00  0.00    +0.141 C 
ATOM     10  C   UNL     1      35.386 -23.063 -16.722  0.00  0.00    +0.046 C 
ATOM     11  C   UNL     1      36.455 -20.921 -20.147  0.00  0.00    +0.143 C 
ATOM     12  C   UNL     1      35.020 -20.630 -20.526  0.00  0.00    +0.320 C 
ATOM     13  C   UNL     1      33.029 -23.042 -17.499  0.00  0.00    +0.195 C 
ATOM     14  C   UNL     1      34.955 -23.680 -15.435  0.00  0.00    +0.197 C 
ATOM     15  C   UNL     1      37.478 -21.817 -15.942  0.00  0.00    +0.037 C 
ATOM     16  C   UNL     1      32.581 -23.516 -16.177  0.00  0.00    +0.045 C 
ATOM     17  C   UNL     1      33.510 -23.823 -15.184  0.00  0.00    +0.075 C 
ATOM     18  C   UNL     1      33.069 -24.283 -13.936  0.00  0.00    +0.137 C 
ATOM     19  C   UNL     1      31.212 -23.669 -15.927  0.00  0.00    +0.003 C 
ATOM     20  C   UNL     1      31.703 -24.431 -13.689  0.00  0.00    +0.037 C 
ATOM     21  C   UNL     1      30.777 -24.125 -14.682  0.00  0.00    +0.003 C 
ENDROOT
BRANCH  18  22
ATOM     22  O   UNL     1      33.922 -24.594 -12.919  0.00  0.00    -0.505 OA
ATOM     23  H   UNL     1      33.707 -24.355 -12.039  0.00  0.00    +0.292 HD
ENDBRANCH  18  22
TORSDOF 1
ENDMDL
MODEL 4
REMARK VINA RESULT:     -10.2      1.766      4.413
REMARK  Name = 6323454
REMARK  1 active torsions:
REMARK  status: ('A' for Active; 'I' for Inactive)
REMARK    1  A    between atoms: C_18  and  O_22
REMARK                            x       y       z     vdW  Elec       q    Type
REMARK                         _______ _______ _______ _____ _____    ______ ____
ROOT
ATOM      1  O   UNL     1      33.487 -24.261 -13.272  0.00  0.00    -0.350 OA
ATOM      2  O   UNL     1      31.032 -24.546 -15.789  0.00  0.00    -0.445 OA
ATOM      3  O   UNL     1      31.877 -22.812 -17.806  0.00  0.00    -0.287 OA
ATOM      4  O   UNL     1      29.357 -25.912 -14.985  0.00  0.00    -0.250 OA
ATOM      5  O   UNL     1      36.716 -22.671 -15.573  0.00  0.00    -0.287 OA
ATOM      6  C   UNL     1      32.583 -24.894 -14.153  0.00  0.00    +0.171 C 
ATOM      7  C   UNL     1      32.093 -23.861 -15.136  0.00  0.00    +0.221 C 
ATOM      8  C   UNL     1      33.250 -23.394 -15.965  0.00  0.00    +0.060 C 
ATOM      9  C   UNL     1      34.707 -23.881 -13.964  0.00  0.00    +0.141 C 
ATOM     10  C   UNL     1      34.472 -23.384 -15.398  0.00  0.00    +0.046 C 
ATOM     11  C   UNL     1      31.267 -25.357 -13.579  0.00  0.00    +0.143 C 
ATOM     12  C   UNL     1      30.421 -25.333 -14.832  0.00  0.00    +0.320 C 
ATOM     13  C   UNL     1      33.006 -22.885 -17.336  0.00  0.00    +0.195 C 
ATOM     14  C   UNL     1      35.638 -22.822 -16.136  0.00  0.00    +0.197 C 
ATOM     15  C   UNL     1      35.666 -25.073 -13.895  0.00  0.00    +0.037 C 
ATOM     16  C   UNL     1      34.177 -22.462 -18.124  0.00  0.00    +0.045 C 
ATOM     17  C   UNL     1      35.445 -22.432 -17.545  0.00  0.00    +0.075 C 
ATOM     18  C   UNL     1      36.547 -22.017 -18.303  0.00  0.00    +0.137 C 
ATOM     19  C   UNL     1      34.008 -22.076 -19.459  0.00  0.00    +0.003 C 
ATOM     20  C   UNL     1      36.377 -21.636 -19.634  0.00  0.00    +0.037 C 
ATOM     21  C   UNL     1      35.109 -21.665 -20.211  0.00  0.00    +0.003 C 
ENDROOT
BRANCH  18  22
ATOM     22  O   UNL     1      37.814 -21.971 -17.801  0.00  0.00    -0.505 OA
ATOM     23  H   UNL     1      37.958 -22.081 -16.881  0.00  0.00    +0.292 HD
ENDBRANCH  18  22
TORSDOF 1
ENDMDL
MODEL 5
REMARK VINA RESULT:     -10.0      2.086      5.440
REMARK  Name = 6323454
REMARK  1 active torsions:
REMARK  status: ('A' for Active; 'I' for Inactive)
REMARK    1  A    between atoms: C_18  and  O_22
REMARK                            x       y       z     vdW  Elec       q    Type
REMARK                         _______ _______ _______ _____ _____    ______ ____
ROOT
ATOM      1  O   UNL     1      36.765 -23.821 -15.993  0.00  0.00    -0.350 OA
ATOM      2  O   UNL     1      35.190 -21.803 -18.421  0.00  0.00    -0.445 OA
ATOM      3  O   UNL     1      32.520 -22.615 -18.396  0.00  0.00    -0.287 OA
ATOM      4  O   UNL     1      36.823 -20.546 -19.456  0.00  0.00    -0.250 OA
ATOM      5  O   UNL     1      33.357 -25.018 -13.711  0.00  0.00    -0.287 OA
ATOM      6  C   UNL     1      36.433 -22.647 -16.704  0.00  0.00    +0.171 C 
ATOM      7  C   UNL     1      35.263 -22.963 -17.600  0.00  0.00    +0.221 C 
ATOM      8  C   UNL     1      34.078 -23.301 -16.749  0.00  0.00    +0.060 C 
ATOM      9  C   UNL     1      35.722 -24.163 -15.040  0.00  0.00    +0.141 C 
ATOM     10  C   UNL     1      34.302 -23.887 -15.556  0.00  0.00    +0.046 C 
ATOM     11  C   UNL     1      37.425 -22.155 -17.728  0.00  0.00    +0.143 C 
ATOM     12  C   UNL     1      36.491 -21.393 -18.641  0.00  0.00    +0.320 C 
ATOM     13  C   UNL     1      32.712 -23.062 -17.272  0.00  0.00    +0.195 C 
ATOM     14  C   UNL     1      33.159 -24.351 -14.720  0.00  0.00    +0.197 C 
ATOM     15  C   UNL     1      36.034 -23.430 -13.732  0.00  0.00    +0.037 C 
ATOM     16  C   UNL     1      31.577 -23.386 -16.388  0.00  0.00    +0.045 C 
ATOM     17  C   UNL     1      31.794 -24.007 -15.159  0.00  0.00    +0.075 C 
ATOM     18  C   UNL     1      30.706 -24.318 -14.334  0.00  0.00    +0.137 C 
ATOM     19  C   UNL     1      30.275 -23.077 -16.797  0.00  0.00    +0.003 C 
ATOM     20  C   UNL     1      29.408 -24.006 -14.742  0.00  0.00    +0.037 C 
ATOM     21  C   UNL     1      29.193 -23.387 -15.971  0.00  0.00    +0.003 C 
ENDROOT
BRANCH  18  22
ATOM     22  O   UNL     1      30.847 -24.918 -13.118  0.00  0.00    -0.505 OA
ATOM     23  H   UNL     1      31.677 -25.272 -12.865  0.00  0.00    +0.292 HD
ENDBRANCH  18  22
TORSDOF 1
ENDMDL
MODEL 6
REMARK VINA RESULT:      -9.7      1.304      6.487
REMARK  Name = 6323454
REMARK  1 active torsions:
REMARK  status: ('A' for Active; 'I' for Inactive)
REMARK    1  A    between atoms: C_18  and  O_22
REMARK                            x       y       z     vdW  Elec       q    Type
REMARK                         _______ _______ _______ _____ _____    ______ ____
ROOT
ATOM      1  O   UNL     1      36.809 -21.705 -19.371  0.00  0.00    -0.350 OA
ATOM      2  O   UNL     1      33.283 -21.806 -19.308  0.00  0.00    -0.445 OA
ATOM      3  O   UNL     1      32.659 -23.569 -17.237  0.00  0.00    -0.287 OA
ATOM      4  O   UNL     1      32.513 -20.561 -21.090  0.00  0.00    -0.250 OA
ATOM      5  O   UNL     1      37.653 -23.114 -15.428  0.00  0.00    -0.287 OA
ATOM      6  C   UNL     1      35.485 -21.215 -19.394  0.00  0.00    +0.171 C 
ATOM      7  C   UNL     1      34.565 -22.347 -19.013  0.00  0.00    +0.221 C 
ATOM      8  C   UNL     1      34.852 -22.750 -17.598  0.00  0.00    +0.060 C 
ATOM      9  C   UNL     1      37.227 -22.007 -18.013  0.00  0.00    +0.141 C 
ATOM     10  C   UNL     1      36.113 -22.609 -17.144  0.00  0.00    +0.046 C 
ATOM     11  C   UNL     1      34.906 -20.846 -20.737  0.00  0.00    +0.143 C 
ATOM     12  C   UNL     1      33.435 -21.026 -20.438  0.00  0.00    +0.320 C 
ATOM     13  C   UNL     1      33.777 -23.361 -16.781  0.00  0.00    +0.195 C 
ATOM     14  C   UNL     1      36.482 -23.100 -15.787  0.00  0.00    +0.197 C 
ATOM     15  C   UNL     1      37.822 -20.727 -17.418  0.00  0.00    +0.037 C 
ATOM     16  C   UNL     1      34.099 -23.716 -15.387  0.00  0.00    +0.045 C 
ATOM     17  C   UNL     1      35.403 -23.590 -14.910  0.00  0.00    +0.075 C 
ATOM     18  C   UNL     1      35.696 -23.943 -13.586  0.00  0.00    +0.137 C 
ATOM     19  C   UNL     1      33.088 -24.195 -14.546  0.00  0.00    +0.003 C 
ATOM     20  C   UNL     1      34.686 -24.417 -12.748  0.00  0.00    +0.037 C 
ATOM     21  C   UNL     1      33.384 -24.543 -13.228  0.00  0.00    +0.003 C 
ENDROOT
BRANCH  18  22
ATOM     22  O   UNL     1      36.947 -23.837 -13.053  0.00  0.00    -0.505 OA
ATOM     23  H   UNL     1      37.545 -24.556 -13.118  0.00  0.00    +0.292 HD
ENDBRANCH  18  22
TORSDOF 1
ENDMDL
MODEL 7
REMARK VINA RESULT:      -9.6      7.702     11.133
REMARK  Name = 6323454
REMARK  1 active torsions:
REMARK  status: ('A' for Active; 'I' for Inactive)
REMARK    1  A    between atoms: C_18  and  O_22
REMARK                            x       y       z     vdW  Elec       q    Type
REMARK                         _______ _______ _______ _____ _____    ______ ____
ROOT
ATOM      1  O   UNL     1      35.822 -16.380 -24.686  0.00  0.00    -0.350 OA
ATOM      2  O   UNL     1      35.151 -17.702 -21.485  0.00  0.00    -0.445 OA
ATOM      3  O   UNL     1      34.386 -15.498 -19.953  0.00  0.00    -0.287 OA
ATOM      4  O   UNL     1      35.712 -19.938 -21.517  0.00  0.00    -0.250 OA
ATOM      5  O   UNL     1      33.645 -12.713 -24.438  0.00  0.00    -0.287 OA
ATOM      6  C   UNL     1      35.305 -17.270 -23.720  0.00  0.00    +0.171 C 
ATOM      7  C   UNL     1      35.471 -16.631 -22.365  0.00  0.00    +0.221 C 
ATOM      8  C   UNL     1      34.629 -15.393 -22.307  0.00  0.00    +0.060 C 
ATOM      9  C   UNL     1      34.992 -15.192 -24.795  0.00  0.00    +0.141 C 
ATOM     10  C   UNL     1      34.429 -14.710 -23.451  0.00  0.00    +0.046 C 
ATOM     11  C   UNL     1      36.055 -18.560 -23.496  0.00  0.00    +0.143 C 
ATOM     12  C   UNL     1      35.635 -18.854 -22.073  0.00  0.00    +0.320 C 
ATOM     13  C   UNL     1      34.119 -14.919 -20.998  0.00  0.00    +0.195 C 
ATOM     14  C   UNL     1      33.698 -13.411 -23.433  0.00  0.00    +0.197 C 
ATOM     15  C   UNL     1      33.901 -15.486 -25.829  0.00  0.00    +0.037 C 
ATOM     16  C   UNL     1      33.272 -13.712 -20.994  0.00  0.00    +0.045 C 
ATOM     17  C   UNL     1      33.071 -12.986 -22.168  0.00  0.00    +0.075 C 
ATOM     18  C   UNL     1      32.272 -11.835 -22.146  0.00  0.00    +0.137 C 
ATOM     19  C   UNL     1      32.680 -13.288 -19.798  0.00  0.00    +0.003 C 
ATOM     20  C   UNL     1      31.680 -11.417 -20.953  0.00  0.00    +0.037 C 
ATOM     21  C   UNL     1      31.885 -12.142 -19.782  0.00  0.00    +0.003 C 
ENDROOT
BRANCH  18  22
ATOM     22  O   UNL     1      32.028 -11.085 -23.257  0.00  0.00    -0.505 OA
ATOM     23  H   UNL     1      32.736 -10.834 -23.818  0.00  0.00    +0.292 HD
ENDBRANCH  18  22
TORSDOF 1
ENDMDL
MODEL 8
REMARK VINA RESULT:      -9.4      2.421      5.470
REMARK  Name = 6323454
REMARK  1 active torsions:
REMARK  status: ('A' for Active; 'I' for Inactive)
REMARK    1  A    between atoms: C_18  and  O_22
REMARK                            x       y       z     vdW  Elec       q    Type
REMARK                         _______ _______ _______ _____ _____    ______ ____
ROOT
ATOM      1  O   UNL     1      30.748 -23.876 -14.165  0.00  0.00    -0.350 OA
ATOM      2  O   UNL     1      29.921 -23.469 -17.570  0.00  0.00    -0.445 OA
ATOM      3  O   UNL     1      32.090 -22.099 -18.669  0.00  0.00    -0.287 OA
ATOM      4  O   UNL     1      27.778 -24.263 -17.873  0.00  0.00    -0.250 OA
ATOM      5  O   UNL     1      34.982 -23.355 -14.370  0.00  0.00    -0.287 OA
ATOM      6  C   UNL     1      30.281 -24.230 -15.450  0.00  0.00    +0.171 C 
ATOM      7  C   UNL     1      30.646 -23.116 -16.398  0.00  0.00    +0.221 C 
ATOM      8  C   UNL     1      32.138 -23.028 -16.490  0.00  0.00    +0.060 C 
ATOM      9  C   UNL     1      32.200 -23.887 -14.119  0.00  0.00    +0.141 C 
ATOM     10  C   UNL     1      32.860 -23.370 -15.405  0.00  0.00    +0.046 C 
ATOM     11  C   UNL     1      28.787 -24.272 -15.656  0.00  0.00    +0.143 C 
ATOM     12  C   UNL     1      28.729 -24.022 -17.146  0.00  0.00    +0.320 C 
ATOM     13  C   UNL     1      32.763 -22.494 -17.725  0.00  0.00    +0.195 C 
ATOM     14  C   UNL     1      34.340 -23.191 -15.400  0.00  0.00    +0.197 C 
ATOM     15  C   UNL     1      32.639 -25.308 -13.753  0.00  0.00    +0.037 C 
ATOM     16  C   UNL     1      34.235 -22.451 -17.779  0.00  0.00    +0.045 C 
ATOM     17  C   UNL     1      34.994 -22.787 -16.659  0.00  0.00    +0.075 C 
ATOM     18  C   UNL     1      36.392 -22.731 -16.722  0.00  0.00    +0.137 C 
ATOM     19  C   UNL     1      34.870 -22.057 -18.963  0.00  0.00    +0.003 C 
ATOM     20  C   UNL     1      37.023 -22.341 -17.904  0.00  0.00    +0.037 C 
ATOM     21  C   UNL     1      36.264 -22.004 -19.022  0.00  0.00    +0.003 C 
ENDROOT
BRANCH  18  22
ATOM     22  O   UNL     1      37.193 -23.052 -15.667  0.00  0.00    -0.505 OA
ATOM     23  H   UNL     1      36.902 -23.676 -15.031  0.00  0.00    +0.292 HD
ENDBRANCH  18  22
TORSDOF 1
ENDMDL
MODEL 9
REMARK VINA RESULT:      -9.4      2.157      4.903
REMARK  Name = 6323454
REMARK  1 active torsions:
REMARK  status: ('A' for Active; 'I' for Inactive)
REMARK    1  A    between atoms: C_18  and  O_22
REMARK                            x       y       z     vdW  Elec       q    Type
REMARK                         _______ _______ _______ _____ _____    ______ ____
ROOT
ATOM      1  O   UNL     1      35.975 -22.501 -16.723  0.00  0.00    -0.350 OA
ATOM      2  O   UNL     1      35.879 -24.902 -14.140  0.00  0.00    -0.445 OA
ATOM      3  O   UNL     1      33.219 -24.930 -13.295  0.00  0.00    -0.287 OA
ATOM      4  O   UNL     1      38.039 -25.612 -13.759  0.00  0.00    -0.250 OA
ATOM      5  O   UNL     1      31.835 -22.380 -17.768  0.00  0.00    -0.287 OA
ATOM      6  C   UNL     1      36.231 -23.721 -16.060  0.00  0.00    +0.171 C 
ATOM      7  C   UNL     1      35.359 -23.773 -14.831  0.00  0.00    +0.221 C 
ATOM      8  C   UNL     1      33.923 -23.805 -15.257  0.00  0.00    +0.060 C 
ATOM      9  C   UNL     1      34.636 -22.487 -17.287  0.00  0.00    +0.141 C 
ATOM     10  C   UNL     1      33.588 -23.177 -16.402  0.00  0.00    +0.046 C 
ATOM     11  C   UNL     1      37.589 -23.894 -15.427  0.00  0.00    +0.143 C 
ATOM     12  C   UNL     1      37.243 -24.903 -14.355  0.00  0.00    +0.320 C 
ATOM     13  C   UNL     1      32.915 -24.444 -14.377  0.00  0.00    +0.195 C 
ATOM     14  C   UNL     1      32.159 -23.077 -16.813  0.00  0.00    +0.197 C 
ATOM     15  C   UNL     1      34.721 -23.090 -18.692  0.00  0.00    +0.037 C 
ATOM     16  C   UNL     1      31.519 -24.475 -14.851  0.00  0.00    +0.045 C 
ATOM     17  C   UNL     1      31.157 -23.816 -16.025  0.00  0.00    +0.075 C 
ATOM     18  C   UNL     1      29.825 -23.845 -16.456  0.00  0.00    +0.137 C 
ATOM     19  C   UNL     1      30.554 -25.162 -14.106  0.00  0.00    +0.003 C 
ATOM     20  C   UNL     1      28.864 -24.533 -15.713  0.00  0.00    +0.037 C 
ATOM     21  C   UNL     1      29.228 -25.189 -14.540  0.00  0.00    +0.003 C 
ENDROOT
BRANCH  18  22
ATOM     22  O   UNL     1      29.404 -23.228 -17.597  0.00  0.00    -0.505 OA
ATOM     23  H   UNL     1      29.787 -23.456 -18.421  0.00  0.00    +0.292 HD
ENDBRANCH  18  22
TORSDOF 1
ENDMDL
