MODEL 1
REMARK VINA RESULT:     -12.1      0.000      0.000
REMARK  Name = 446399
REMARK  4 active torsions:
REMARK  status: ('A' for Active; 'I' for Inactive)
REMARK    1  A    between atoms: N_3  and  S_21
REMARK    2  A    between atoms: C_4  and  C_10
REMARK    3  A    between atoms: N_9  and  C_16
REMARK    4  A    between atoms: S_21  and  C_25
REMARK                            x       y       z     vdW  Elec       q    Type
REMARK                         _______ _______ _______ _____ _____    ______ ____
ROOT
ATOM      1  O   UNL     1      33.804 -13.886 -26.071  0.00  0.00    -0.275 OA
ATOM      2  N   UNL     1      34.169 -15.209 -24.197  0.00  0.00    -0.277 N 
ATOM      3  N   UNL     1      35.480 -17.533 -23.212  0.00  0.00    -0.152 NA
ATOM      4  C   UNL     1      33.982 -13.994 -24.855  0.00  0.00    +0.225 C 
ATOM      5  C   UNL     1      34.383 -15.372 -22.754  0.00  0.00    +0.113 C 
ATOM      6  C   UNL     1      34.092 -16.465 -24.944  0.00  0.00    +0.113 C 
ATOM      7  C   UNL     1      35.613 -16.235 -22.485  0.00  0.00    +0.117 C 
ATOM      8  C   UNL     1      35.321 -17.328 -24.684  0.00  0.00    +0.117 C 
ENDROOT
BRANCH   4  10
ATOM      9  N   UNL     1      32.913 -10.188 -23.252  0.00  0.00    -0.307 N 
ATOM     10  C   UNL     1      34.006 -12.753 -23.999  0.00  0.00    +0.080 C 
ATOM     11  C   UNL     1      32.693 -12.641 -23.228  0.00  0.00    +0.031 C 
ATOM     12  C   UNL     1      34.206 -11.517 -24.873  0.00  0.00    +0.031 C 
ATOM     13  C   UNL     1      32.635 -11.354 -22.405  0.00  0.00    +0.091 C 
ATOM     14  C   UNL     1      34.150 -10.236 -24.044  0.00  0.00    +0.091 C 
BRANCH   9  16
ATOM     15  N   UNL     1      31.509  -6.385 -22.073  0.00  0.00    -0.242 NA
ATOM     16  C   UNL     1      32.447  -8.927 -22.860  0.00  0.00    +0.051 C 
ATOM     17  C   UNL     1      31.720  -8.117 -23.747  0.00  0.00    +0.035 C 
ATOM     18  C   UNL     1      32.693  -8.433 -21.570  0.00  0.00    +0.035 C 
ATOM     19  C   UNL     1      31.281  -6.877 -23.311  0.00  0.00    +0.100 C 
ATOM     20  C   UNL     1      32.211  -7.179 -21.232  0.00  0.00    +0.100 C 
ENDBRANCH   9  16
ENDBRANCH   4  10
BRANCH   3  21
ATOM     21  S   UNL     1      36.603 -18.746 -22.759  0.00  0.00    +0.063 S 
ATOM     22  O   UNL     1      37.652 -18.144 -21.965  0.00  0.00    -0.153 OA
ATOM     23  O   UNL     1      36.914 -19.553 -23.919  0.00  0.00    -0.153 OA
BRANCH  21  25
ATOM     24 CL   UNL     1      32.811 -23.695 -17.031  0.00  0.00    -0.082 Cl
ATOM     25  C   UNL     1      35.594 -19.711 -21.680  0.00  0.00    +0.122 C 
ATOM     26  C   UNL     1      36.192 -20.448 -20.671  0.00  0.00    +0.020 C 
ATOM     27  C   UNL     1      34.223 -19.714 -21.859  0.00  0.00    +0.020 C 
ATOM     28  C   UNL     1      35.402 -21.221 -19.803  0.00  0.00    +0.001 C 
ATOM     29  C   UNL     1      33.997 -21.235 -19.974  0.00  0.00    +0.001 C 
ATOM     30  C   UNL     1      33.424 -20.476 -21.006  0.00  0.00    +0.001 C 
ATOM     31  C   UNL     1      35.977 -21.980 -18.771  0.00  0.00    +0.001 C 
ATOM     32  C   UNL     1      33.208 -22.007 -19.106  0.00  0.00    +0.011 C 
ATOM     33  C   UNL     1      35.177 -22.742 -17.918  0.00  0.00    +0.011 C 
ATOM     34  C   UNL     1      33.795 -22.756 -18.086  0.00  0.00    +0.058 C 
ENDBRANCH  21  25
ENDBRANCH   3  21
TORSDOF 4
ENDMDL
MODEL 2
REMARK VINA RESULT:     -11.4      4.581     11.456
REMARK  Name = 446399
REMARK  4 active torsions:
REMARK  status: ('A' for Active; 'I' for Inactive)
REMARK    1  A    between atoms: N_3  and  S_21
REMARK    2  A    between atoms: C_4  and  C_10
REMARK    3  A    between atoms: N_9  and  C_16
REMARK    4  A    between atoms: S_21  and  C_25
REMARK                            x       y       z     vdW  Elec       q    Type
REMARK                         _______ _______ _______ _____ _____    ______ ____
ROOT
ATOM      1  O   UNL     1      34.442 -15.296 -25.233  0.00  0.00    -0.275 OA
ATOM      2  N   UNL     1      34.426 -14.106 -23.239  0.00  0.00    -0.277 N 
ATOM      3  N   UNL     1      32.944 -12.290 -21.627  0.00  0.00    -0.152 NA
ATOM      4  C   UNL     1      34.711 -15.217 -24.032  0.00  0.00    +0.225 C 
ATOM      5  C   UNL     1      34.732 -13.979 -21.809  0.00  0.00    +0.113 C 
ATOM      6  C   UNL     1      33.832 -12.911 -23.839  0.00  0.00    +0.113 C 
ATOM      7  C   UNL     1      33.495 -13.543 -21.029  0.00  0.00    +0.117 C 
ATOM      8  C   UNL     1      32.592 -12.474 -23.068  0.00  0.00    +0.117 C 
ENDROOT
BRANCH   4  10
ATOM      9  N   UNL     1      35.259 -18.821 -21.816  0.00  0.00    -0.307 N 
ATOM     10  C   UNL     1      35.388 -16.378 -23.348  0.00  0.00    +0.080 C 
ATOM     11  C   UNL     1      34.909 -17.685 -23.974  0.00  0.00    +0.031 C 
ATOM     12  C   UNL     1      35.070 -16.365 -21.855  0.00  0.00    +0.031 C 
ATOM     13  C   UNL     1      35.505 -18.899 -23.261  0.00  0.00    +0.091 C 
ATOM     14  C   UNL     1      35.673 -17.578 -21.149  0.00  0.00    +0.091 C 
BRANCH   9  16
ATOM     15  N   UNL     1      35.278 -22.359 -19.513  0.00  0.00    -0.242 NA
ATOM     16  C   UNL     1      35.265 -19.995 -21.053  0.00  0.00    +0.051 C 
ATOM     17  C   UNL     1      34.067 -20.629 -20.691  0.00  0.00    +0.035 C 
ATOM     18  C   UNL     1      36.471 -20.572 -20.624  0.00  0.00    +0.035 C 
ATOM     19  C   UNL     1      34.127 -21.788 -19.934  0.00  0.00    +0.100 C 
ATOM     20  C   UNL     1      36.423 -21.734 -19.871  0.00  0.00    +0.100 C 
ENDBRANCH   9  16
ENDBRANCH   4  10
BRANCH   3  21
ATOM     21  S   UNL     1      31.764 -11.483 -20.683  0.00  0.00    +0.063 S 
ATOM     22  O   UNL     1      32.129 -11.581 -19.287  0.00  0.00    -0.153 OA
ATOM     23  O   UNL     1      30.449 -11.877 -21.140  0.00  0.00    -0.153 OA
BRANCH  21  25
ATOM     24 CL   UNL     1      32.519  -3.815 -24.191  0.00  0.00    -0.082 Cl
ATOM     25  C   UNL     1      32.043  -9.819 -21.199  0.00  0.00    +0.122 C 
ATOM     26  C   UNL     1      31.591  -9.410 -22.443  0.00  0.00    +0.020 C 
ATOM     27  C   UNL     1      32.707  -8.951 -20.352  0.00  0.00    +0.020 C 
ATOM     28  C   UNL     1      31.806  -8.088 -22.868  0.00  0.00    +0.001 C 
ATOM     29  C   UNL     1      32.483  -7.187 -22.013  0.00  0.00    +0.001 C 
ATOM     30  C   UNL     1      32.928  -7.634 -20.759  0.00  0.00    +0.001 C 
ATOM     31  C   UNL     1      31.361  -7.642 -24.123  0.00  0.00    +0.001 C 
ATOM     32  C   UNL     1      32.697  -5.865 -22.438  0.00  0.00    +0.011 C 
ATOM     33  C   UNL     1      31.582  -6.325 -24.529  0.00  0.00    +0.011 C 
ATOM     34  C   UNL     1      32.249  -5.439 -23.688  0.00  0.00    +0.058 C 
ENDBRANCH  21  25
ENDBRANCH   3  21
TORSDOF 4
ENDMDL
MODEL 3
REMARK VINA RESULT:     -10.9      1.696      2.293
REMARK  Name = 446399
REMARK  4 active torsions:
REMARK  status: ('A' for Active; 'I' for Inactive)
REMARK    1  A    between atoms: N_3  and  S_21
REMARK    2  A    between atoms: C_4  and  C_10
REMARK    3  A    between atoms: N_9  and  C_16
REMARK    4  A    between atoms: S_21  and  C_25
REMARK                            x       y       z     vdW  Elec       q    Type
REMARK                         _______ _______ _______ _____ _____    ______ ____
ROOT
ATOM      1  O   UNL     1      32.697 -13.763 -20.060  0.00  0.00    -0.275 OA
ATOM      2  N   UNL     1      34.235 -14.563 -21.605  0.00  0.00    -0.277 N 
ATOM      3  N   UNL     1      35.495 -16.897 -22.637  0.00  0.00    -0.152 NA
ATOM      4  C   UNL     1      33.224 -13.707 -21.175  0.00  0.00    +0.225 C 
ATOM      5  C   UNL     1      34.882 -14.524 -22.922  0.00  0.00    +0.113 C 
ATOM      6  C   UNL     1      34.786 -15.564 -20.690  0.00  0.00    +0.113 C 
ATOM      7  C   UNL     1      34.875 -15.906 -23.569  0.00  0.00    +0.117 C 
ATOM      8  C   UNL     1      34.775 -16.949 -21.329  0.00  0.00    +0.117 C 
ENDROOT
BRANCH   4  10
ATOM      9  N   UNL     1      32.705  -9.923 -23.075  0.00  0.00    -0.307 N 
ATOM     10  C   UNL     1      32.764 -12.659 -22.156  0.00  0.00    +0.080 C 
ATOM     11  C   UNL     1      33.980 -12.015 -22.819  0.00  0.00    +0.031 C 
ATOM     12  C   UNL     1      31.936 -11.596 -21.440  0.00  0.00    +0.031 C 
ATOM     13  C   UNL     1      33.570 -10.887 -23.766  0.00  0.00    +0.091 C 
ATOM     14  C   UNL     1      31.527 -10.475 -22.392  0.00  0.00    +0.091 C 
BRANCH   9  16
ATOM     15  N   UNL     1      32.435  -5.968 -24.525  0.00  0.00    -0.242 NA
ATOM     16  C   UNL     1      32.616  -8.611 -23.557  0.00  0.00    +0.051 C 
ATOM     17  C   UNL     1      33.768  -7.843 -23.784  0.00  0.00    +0.035 C 
ATOM     18  C   UNL     1      31.370  -8.023 -23.826  0.00  0.00    +0.035 C 
ATOM     19  C   UNL     1      33.626  -6.549 -24.261  0.00  0.00    +0.100 C 
ATOM     20  C   UNL     1      31.335  -6.722 -24.301  0.00  0.00    +0.100 C 
ENDBRANCH   9  16
ENDBRANCH   4  10
BRANCH   3  21
ATOM     21  S   UNL     1      35.870 -18.419 -23.328  0.00  0.00    +0.063 S 
ATOM     22  O   UNL     1      37.306 -18.585 -23.353  0.00  0.00    -0.153 OA
ATOM     23  O   UNL     1      35.076 -18.598 -24.525  0.00  0.00    -0.153 OA
BRANCH  21  25
ATOM     24 CL   UNL     1      33.927 -23.652 -16.962  0.00  0.00    -0.082 Cl
ATOM     25  C   UNL     1      35.223 -19.489 -22.082  0.00  0.00    +0.122 C 
ATOM     26  C   UNL     1      36.087 -20.055 -21.160  0.00  0.00    +0.020 C 
ATOM     27  C   UNL     1      33.864 -19.742 -22.048  0.00  0.00    +0.020 C 
ATOM     28  C   UNL     1      35.588 -20.909 -20.162  0.00  0.00    +0.001 C 
ATOM     29  C   UNL     1      34.200 -21.178 -20.113  0.00  0.00    +0.001 C 
ATOM     30  C   UNL     1      33.352 -20.587 -21.063  0.00  0.00    +0.001 C 
ATOM     31  C   UNL     1      36.437 -21.500 -19.212  0.00  0.00    +0.001 C 
ATOM     32  C   UNL     1      33.700 -22.031 -19.114  0.00  0.00    +0.011 C 
ATOM     33  C   UNL     1      35.923 -22.345 -18.227  0.00  0.00    +0.011 C 
ATOM     34  C   UNL     1      34.558 -22.611 -18.179  0.00  0.00    +0.058 C 
ENDBRANCH  21  25
ENDBRANCH   3  21
TORSDOF 4
ENDMDL
MODEL 4
REMARK VINA RESULT:     -10.5      3.184      5.138
REMARK  Name = 446399
REMARK  4 active torsions:
REMARK  status: ('A' for Active; 'I' for Inactive)
REMARK    1  A    between atoms: N_3  and  S_21
REMARK    2  A    between atoms: C_4  and  C_10
REMARK    3  A    between atoms: N_9  and  C_16
REMARK    4  A    between atoms: S_21  and  C_25
REMARK                            x       y       z     vdW  Elec       q    Type
REMARK                         _______ _______ _______ _____ _____    ______ ____
ROOT
ATOM      1  O   UNL     1      31.651 -10.456 -21.711  0.00  0.00    -0.275 OA
ATOM      2  N   UNL     1      33.220 -11.281 -23.210  0.00  0.00    -0.277 N 
ATOM      3  N   UNL     1      33.831 -13.403 -25.005  0.00  0.00    -0.152 NA
ATOM      4  C   UNL     1      32.499 -10.265 -22.586  0.00  0.00    +0.225 C 
ATOM      5  C   UNL     1      34.235 -11.089 -24.254  0.00  0.00    +0.113 C 
ATOM      6  C   UNL     1      33.042 -12.672 -22.789  0.00  0.00    +0.113 C 
ATOM      7  C   UNL     1      33.950 -11.984 -25.456  0.00  0.00    +0.117 C 
ATOM      8  C   UNL     1      32.750 -13.569 -23.986  0.00  0.00    +0.117 C 
ENDROOT
BRANCH   4  10
ATOM      9  N   UNL     1      32.056  -6.074 -23.243  0.00  0.00    -0.307 N 
ATOM     10  C   UNL     1      32.796  -8.856 -23.031  0.00  0.00    +0.080 C 
ATOM     11  C   UNL     1      32.816  -7.932 -21.816  0.00  0.00    +0.031 C 
ATOM     12  C   UNL     1      31.738  -8.387 -24.027  0.00  0.00    +0.031 C 
ATOM     13  C   UNL     1      33.032  -6.475 -22.224  0.00  0.00    +0.091 C 
ATOM     14  C   UNL     1      31.964  -6.932 -24.433  0.00  0.00    +0.091 C 
BRANCH   9  16
ATOM     15  N   UNL     1      31.116  -1.986 -23.719  0.00  0.00    -0.242 NA
ATOM     16  C   UNL     1      31.744  -4.718 -23.401  0.00  0.00    +0.051 C 
ATOM     17  C   UNL     1      32.347  -3.949 -24.408  0.00  0.00    +0.035 C 
ATOM     18  C   UNL     1      30.819  -4.085 -22.556  0.00  0.00    +0.035 C 
ATOM     19  C   UNL     1      32.004  -2.611 -24.523  0.00  0.00    +0.100 C 
ATOM     20  C   UNL     1      30.544  -2.742 -22.754  0.00  0.00    +0.100 C 
ENDBRANCH   9  16
ENDBRANCH   4  10
BRANCH   3  21
ATOM     21  S   UNL     1      33.844 -14.574 -26.255  0.00  0.00    +0.063 S 
ATOM     22  O   UNL     1      34.931 -14.282 -27.164  0.00  0.00    -0.153 OA
ATOM     23  O   UNL     1      32.493 -14.756 -26.741  0.00  0.00    -0.153 OA
BRANCH  21  25
ATOM     24 CL   UNL     1      36.315 -20.673 -20.928  0.00  0.00    -0.082 Cl
ATOM     25  C   UNL     1      34.286 -16.009 -25.327  0.00  0.00    +0.122 C 
ATOM     26  C   UNL     1      34.828 -15.858 -24.062  0.00  0.00    +0.020 C 
ATOM     27  C   UNL     1      34.081 -17.260 -25.879  0.00  0.00    +0.020 C 
ATOM     28  C   UNL     1      35.185 -16.990 -23.311  0.00  0.00    +0.001 C 
ATOM     29  C   UNL     1      34.982 -18.278 -23.861  0.00  0.00    +0.001 C 
ATOM     30  C   UNL     1      34.429 -18.395 -25.146  0.00  0.00    +0.001 C 
ATOM     31  C   UNL     1      35.738 -16.871 -22.025  0.00  0.00    +0.001 C 
ATOM     32  C   UNL     1      35.337 -19.410 -23.109  0.00  0.00    +0.011 C 
ATOM     33  C   UNL     1      36.086 -18.007 -21.293  0.00  0.00    +0.011 C 
ATOM     34  C   UNL     1      35.886 -19.274 -21.835  0.00  0.00    +0.058 C 
ENDBRANCH  21  25
ENDBRANCH   3  21
TORSDOF 4
ENDMDL
MODEL 5
REMARK VINA RESULT:     -10.2      5.018      8.125
REMARK  Name = 446399
REMARK  4 active torsions:
REMARK  status: ('A' for Active; 'I' for Inactive)
REMARK    1  A    between atoms: N_3  and  S_21
REMARK    2  A    between atoms: C_4  and  C_10
REMARK    3  A    between atoms: N_9  and  C_16
REMARK    4  A    between atoms: S_21  and  C_25
REMARK                            x       y       z     vdW  Elec       q    Type
REMARK                         _______ _______ _______ _____ _____    ______ ____
ROOT
ATOM      1  O   UNL     1      32.722  -5.152 -21.812  0.00  0.00    -0.275 OA
ATOM      2  N   UNL     1      33.090  -7.436 -22.021  0.00  0.00    -0.277 N 
ATOM      3  N   UNL     1      32.365 -10.007 -21.042  0.00  0.00    -0.152 NA
ATOM      4  C   UNL     1      32.953  -6.139 -22.515  0.00  0.00    +0.225 C 
ATOM      5  C   UNL     1      33.365  -8.630 -22.829  0.00  0.00    +0.113 C 
ATOM      6  C   UNL     1      33.030  -7.680 -20.580  0.00  0.00    +0.113 C 
ATOM      7  C   UNL     1      32.364  -9.738 -22.512  0.00  0.00    +0.117 C 
ATOM      8  C   UNL     1      32.026  -8.781 -20.257  0.00  0.00    +0.117 C 
ENDROOT
BRANCH   4  10
ATOM      9  N   UNL     1      34.160  -4.545 -26.283  0.00  0.00    -0.307 N 
ATOM     10  C   UNL     1      33.100  -5.966 -24.006  0.00  0.00    +0.080 C 
ATOM     11  C   UNL     1      34.576  -6.058 -24.386  0.00  0.00    +0.031 C 
ATOM     12  C   UNL     1      32.533  -4.616 -24.436  0.00  0.00    +0.031 C 
ATOM     13  C   UNL     1      34.787  -5.808 -25.879  0.00  0.00    +0.091 C 
ATOM     14  C   UNL     1      32.743  -4.375 -25.929  0.00  0.00    +0.091 C 
BRANCH   9  16
ATOM     15  N   UNL     1      35.549  -2.550 -29.735  0.00  0.00    -0.242 NA
ATOM     16  C   UNL     1      34.620  -3.883 -27.429  0.00  0.00    +0.051 C 
ATOM     17  C   UNL     1      35.987  -3.849 -27.744  0.00  0.00    +0.035 C 
ATOM     18  C   UNL     1      33.729  -3.233 -28.296  0.00  0.00    +0.035 C 
ATOM     19  C   UNL     1      36.393  -3.181 -28.889  0.00  0.00    +0.100 C 
ATOM     20  C   UNL     1      34.236  -2.593 -29.416  0.00  0.00    +0.100 C 
ENDBRANCH   9  16
ENDBRANCH   4  10
BRANCH   3  21
ATOM     21  S   UNL     1      31.554 -11.435 -20.557  0.00  0.00    +0.063 S 
ATOM     22  O   UNL     1      30.220 -11.433 -21.116  0.00  0.00    -0.153 OA
ATOM     23  O   UNL     1      31.770 -11.638 -19.141  0.00  0.00    -0.153 OA
BRANCH  21  25
ATOM     24 CL   UNL     1      36.341 -17.701 -23.642  0.00  0.00    -0.082 Cl
ATOM     25  C   UNL     1      32.504 -12.640 -21.430  0.00  0.00    +0.122 C 
ATOM     26  C   UNL     1      33.146 -13.641 -20.720  0.00  0.00    +0.020 C 
ATOM     27  C   UNL     1      32.590 -12.564 -22.808  0.00  0.00    +0.020 C 
ATOM     28  C   UNL     1      33.906 -14.607 -21.400  0.00  0.00    +0.001 C 
ATOM     29  C   UNL     1      34.004 -14.543 -22.811  0.00  0.00    +0.001 C 
ATOM     30  C   UNL     1      33.340 -13.516 -23.499  0.00  0.00    +0.001 C 
ATOM     31  C   UNL     1      34.569 -15.636 -20.711  0.00  0.00    +0.001 C 
ATOM     32  C   UNL     1      34.763 -15.510 -23.491  0.00  0.00    +0.011 C 
ATOM     33  C   UNL     1      35.319 -16.587 -21.403  0.00  0.00    +0.011 C 
ATOM     34  C   UNL     1      35.416 -16.524 -22.791  0.00  0.00    +0.058 C 
ENDBRANCH  21  25
ENDBRANCH   3  21
TORSDOF 4
ENDMDL
MODEL 6
REMARK VINA RESULT:      -9.7      3.565      6.307
REMARK  Name = 446399
REMARK  4 active torsions:
REMARK  status: ('A' for Active; 'I' for Inactive)
REMARK    1  A    between atoms: N_3  and  S_21
REMARK    2  A    between atoms: C_4  and  C_10
REMARK    3  A    between atoms: N_9  and  C_16
REMARK    4  A    between atoms: S_21  and  C_25
REMARK                            x       y       z     vdW  Elec       q    Type
REMARK                         _______ _______ _______ _____ _____    ______ ____
ROOT
ATOM      1  O   UNL     1      37.200 -18.288 -21.032  0.00  0.00    -0.275 OA
ATOM      2  N   UNL     1      35.563 -19.936 -21.096  0.00  0.00    -0.277 N 
ATOM      3  N   UNL     1      34.382 -22.095 -19.670  0.00  0.00    -0.152 NA
ATOM      4  C   UNL     1      36.070 -18.663 -21.356  0.00  0.00    +0.225 C 
ATOM      5  C   UNL     1      34.226 -20.413 -21.467  0.00  0.00    +0.113 C 
ATOM      6  C   UNL     1      36.411 -20.945 -20.461  0.00  0.00    +0.113 C 
ATOM      7  C   UNL     1      33.519 -21.029 -20.263  0.00  0.00    +0.117 C 
ATOM      8  C   UNL     1      35.713 -21.560 -19.253  0.00  0.00    +0.117 C 
ENDROOT
BRANCH   4  10
ATOM      9  N   UNL     1      34.732 -15.310 -23.629  0.00  0.00    -0.307 N 
ATOM     10  C   UNL     1      35.154 -17.707 -22.077  0.00  0.00    +0.080 C 
ATOM     11  C   UNL     1      35.555 -17.630 -23.548  0.00  0.00    +0.031 C 
ATOM     12  C   UNL     1      35.233 -16.322 -21.440  0.00  0.00    +0.031 C 
ATOM     13  C   UNL     1      34.707 -16.611 -24.308  0.00  0.00    +0.091 C 
ATOM     14  C   UNL     1      34.380 -15.311 -22.202  0.00  0.00    +0.091 C 
BRANCH   9  16
ATOM     15  N   UNL     1      33.908 -11.804 -25.830  0.00  0.00    -0.242 NA
ATOM     16  C   UNL     1      34.459 -14.147 -24.359  0.00  0.00    +0.051 C 
ATOM     17  C   UNL     1      34.562 -12.879 -23.766  0.00  0.00    +0.035 C 
ATOM     18  C   UNL     1      34.073 -14.213 -25.707  0.00  0.00    +0.035 C 
ATOM     19  C   UNL     1      34.280 -11.759 -24.532  0.00  0.00    +0.100 C 
ATOM     20  C   UNL     1      33.814 -13.033 -26.386  0.00  0.00    +0.100 C 
ENDBRANCH   9  16
ENDBRANCH   4  10
BRANCH   3  21
ATOM     21  S   UNL     1      33.610 -23.111 -18.526  0.00  0.00    +0.063 S 
ATOM     22  O   UNL     1      33.550 -24.456 -19.055  0.00  0.00    -0.153 OA
ATOM     23  O   UNL     1      32.422 -22.447 -18.037  0.00  0.00    -0.153 OA
BRANCH  21  25
ATOM     24 CL   UNL     1      38.589 -23.696 -11.703  0.00  0.00    -0.082 Cl
ATOM     25  C   UNL     1      34.815 -23.090 -17.236  0.00  0.00    +0.122 C 
ATOM     26  C   UNL     1      34.548 -23.754 -16.050  0.00  0.00    +0.020 C 
ATOM     27  C   UNL     1      36.004 -22.413 -17.432  0.00  0.00    +0.020 C 
ATOM     28  C   UNL     1      35.497 -23.747 -15.013  0.00  0.00    +0.001 C 
ATOM     29  C   UNL     1      36.719 -23.058 -15.198  0.00  0.00    +0.001 C 
ATOM     30  C   UNL     1      36.957 -22.397 -16.413  0.00  0.00    +0.001 C 
ATOM     31  C   UNL     1      35.258 -24.409 -13.798  0.00  0.00    +0.001 C 
ATOM     32  C   UNL     1      37.668 -23.052 -14.162  0.00  0.00    +0.011 C 
ATOM     33  C   UNL     1      36.212 -24.392 -12.779  0.00  0.00    +0.011 C 
ATOM     34  C   UNL     1      37.414 -23.714 -12.961  0.00  0.00    +0.058 C 
ENDBRANCH  21  25
ENDBRANCH   3  21
TORSDOF 4
ENDMDL
MODEL 7
REMARK VINA RESULT:      -9.6      2.181      3.572
REMARK  Name = 446399
REMARK  4 active torsions:
REMARK  status: ('A' for Active; 'I' for Inactive)
REMARK    1  A    between atoms: N_3  and  S_21
REMARK    2  A    between atoms: C_4  and  C_10
REMARK    3  A    between atoms: N_9  and  C_16
REMARK    4  A    between atoms: S_21  and  C_25
REMARK                            x       y       z     vdW  Elec       q    Type
REMARK                         _______ _______ _______ _____ _____    ______ ____
ROOT
ATOM      1  O   UNL     1      32.498 -11.890 -21.167  0.00  0.00    -0.275 OA
ATOM      2  N   UNL     1      33.778 -12.776 -22.891  0.00  0.00    -0.277 N 
ATOM      3  N   UNL     1      34.577 -15.174 -24.197  0.00  0.00    -0.152 NA
ATOM      4  C   UNL     1      32.947 -11.817 -22.315  0.00  0.00    +0.225 C 
ATOM      5  C   UNL     1      34.328 -12.721 -24.251  0.00  0.00    +0.113 C 
ATOM      6  C   UNL     1      34.226 -13.925 -22.103  0.00  0.00    +0.113 C 
ATOM      7  C   UNL     1      34.057 -14.024 -24.997  0.00  0.00    +0.117 C 
ATOM      8  C   UNL     1      33.952 -15.231 -22.841  0.00  0.00    +0.117 C 
ENDROOT
BRANCH   4  10
ATOM      9  N   UNL     1      32.371  -7.778 -23.559  0.00  0.00    -0.307 N 
ATOM     10  C   UNL     1      32.591 -10.630 -23.173  0.00  0.00    +0.080 C 
ATOM     11  C   UNL     1      33.827  -9.756 -23.370  0.00  0.00    +0.031 C 
ATOM     12  C   UNL     1      31.478  -9.820 -22.513  0.00  0.00    +0.031 C 
ATOM     13  C   UNL     1      33.499  -8.493 -24.167  0.00  0.00    +0.091 C 
ATOM     14  C   UNL     1      31.153  -8.564 -23.317  0.00  0.00    +0.091 C 
BRANCH   9  16
ATOM     15  N   UNL     1      31.905  -3.645 -24.282  0.00  0.00    -0.242 NA
ATOM     16  C   UNL     1      32.216  -6.407 -23.800  0.00  0.00    +0.051 C 
ATOM     17  C   UNL     1      32.915  -5.770 -24.837  0.00  0.00    +0.035 C 
ATOM     18  C   UNL     1      31.358  -5.627 -23.009  0.00  0.00    +0.035 C 
ATOM     19  C   UNL     1      32.727  -4.411 -25.033  0.00  0.00    +0.100 C 
ATOM     20  C   UNL     1      31.239  -4.274 -23.288  0.00  0.00    +0.100 C 
ENDBRANCH   9  16
ENDBRANCH   4  10
BRANCH   3  21
ATOM     21  S   UNL     1      34.656 -16.670 -25.030  0.00  0.00    +0.063 S 
ATOM     22  O   UNL     1      35.668 -16.584 -26.059  0.00  0.00    -0.153 OA
ATOM     23  O   UNL     1      33.312 -17.105 -25.339  0.00  0.00    -0.153 OA
BRANCH  21  25
ATOM     24 CL   UNL     1      36.493 -22.033 -18.740  0.00  0.00    -0.082 Cl
ATOM     25  C   UNL     1      35.280 -17.704 -23.743  0.00  0.00    +0.122 C 
ATOM     26  C   UNL     1      34.411 -18.544 -23.067  0.00  0.00    +0.020 C 
ATOM     27  C   UNL     1      36.626 -17.659 -23.432  0.00  0.00    +0.020 C 
ATOM     28  C   UNL     1      34.891 -19.374 -22.040  0.00  0.00    +0.001 C 
ATOM     29  C   UNL     1      36.267 -19.340 -21.710  0.00  0.00    +0.001 C 
ATOM     30  C   UNL     1      37.121 -18.477 -22.415  0.00  0.00    +0.001 C 
ATOM     31  C   UNL     1      34.037 -20.238 -21.336  0.00  0.00    +0.001 C 
ATOM     32  C   UNL     1      36.748 -20.170 -20.684  0.00  0.00    +0.011 C 
ATOM     33  C   UNL     1      34.532 -21.055 -20.319  0.00  0.00    +0.011 C 
ATOM     34  C   UNL     1      35.885 -21.021 -19.994  0.00  0.00    +0.058 C 
ENDBRANCH  21  25
ENDBRANCH   3  21
TORSDOF 4
ENDMDL
MODEL 8
REMARK VINA RESULT:      -9.4      4.435     11.395
REMARK  Name = 446399
REMARK  4 active torsions:
REMARK  status: ('A' for Active; 'I' for Inactive)
REMARK    1  A    between atoms: N_3  and  S_21
REMARK    2  A    between atoms: C_4  and  C_10
REMARK    3  A    between atoms: N_9  and  C_16
REMARK    4  A    between atoms: S_21  and  C_25
REMARK                            x       y       z     vdW  Elec       q    Type
REMARK                         _______ _______ _______ _____ _____    ______ ____
ROOT
ATOM      1  O   UNL     1      34.609 -17.177 -25.873  0.00  0.00    -0.275 OA
ATOM      2  N   UNL     1      34.767 -15.512 -24.261  0.00  0.00    -0.277 N 
ATOM      3  N   UNL     1      33.459 -13.265 -23.104  0.00  0.00    -0.152 NA
ATOM      4  C   UNL     1      34.959 -16.803 -24.750  0.00  0.00    +0.225 C 
ATOM      5  C   UNL     1      35.169 -15.035 -22.933  0.00  0.00    +0.113 C 
ATOM      6  C   UNL     1      34.178 -14.483 -25.121  0.00  0.00    +0.113 C 
ATOM      7  C   UNL     1      34.002 -14.348 -22.229  0.00  0.00    +0.117 C 
ATOM      8  C   UNL     1      33.007 -13.798 -24.425  0.00  0.00    +0.117 C 
ENDROOT
BRANCH   4  10
ATOM      9  N   UNL     1      35.532 -19.680 -21.653  0.00  0.00    -0.307 N 
ATOM     10  C   UNL     1      35.636 -17.781 -23.824  0.00  0.00    +0.080 C 
ATOM     11  C   UNL     1      35.020 -19.165 -24.007  0.00  0.00    +0.031 C 
ATOM     12  C   UNL     1      35.481 -17.326 -22.375  0.00  0.00    +0.031 C 
ATOM     13  C   UNL     1      35.618 -20.178 -23.031  0.00  0.00    +0.091 C 
ATOM     14  C   UNL     1      36.084 -18.341 -21.407  0.00  0.00    +0.091 C 
BRANCH   9  16
ATOM     15  N   UNL     1      35.592 -22.426 -18.448  0.00  0.00    -0.242 NA
ATOM     16  C   UNL     1      35.552 -20.591 -20.589  0.00  0.00    +0.051 C 
ATOM     17  C   UNL     1      36.684 -20.723 -19.771  0.00  0.00    +0.035 C 
ATOM     18  C   UNL     1      34.440 -21.401 -20.310  0.00  0.00    +0.035 C 
ATOM     19  C   UNL     1      36.653 -21.639 -18.731  0.00  0.00    +0.100 C 
ATOM     20  C   UNL     1      34.510 -22.286 -19.246  0.00  0.00    +0.100 C 
ENDBRANCH   9  16
ENDBRANCH   4  10
BRANCH   3  21
ATOM     21  S   UNL     1      32.373 -12.182 -22.341  0.00  0.00    +0.063 S 
ATOM     22  O   UNL     1      32.648 -12.159 -20.922  0.00  0.00    -0.153 OA
ATOM     23  O   UNL     1      31.037 -12.430 -22.839  0.00  0.00    -0.153 OA
BRANCH  21  25
ATOM     24 CL   UNL     1      34.004  -4.383 -25.206  0.00  0.00    -0.082 Cl
ATOM     25  C   UNL     1      32.933 -10.654 -23.026  0.00  0.00    +0.122 C 
ATOM     26  C   UNL     1      32.134  -9.528 -22.914  0.00  0.00    +0.020 C 
ATOM     27  C   UNL     1      34.160 -10.607 -23.660  0.00  0.00    +0.020 C 
ATOM     28  C   UNL     1      32.565  -8.305 -23.454  0.00  0.00    +0.001 C 
ATOM     29  C   UNL     1      33.819  -8.240 -24.106  0.00  0.00    +0.001 C 
ATOM     30  C   UNL     1      34.604  -9.400 -24.201  0.00  0.00    +0.001 C 
ATOM     31  C   UNL     1      31.779  -7.145 -23.358  0.00  0.00    +0.001 C 
ATOM     32  C   UNL     1      34.251  -7.016 -24.644  0.00  0.00    +0.011 C 
ATOM     33  C   UNL     1      32.224  -5.938 -23.899  0.00  0.00    +0.011 C 
ATOM     34  C   UNL     1      33.457  -5.874 -24.542  0.00  0.00    +0.058 C 
ENDBRANCH  21  25
ENDBRANCH   3  21
TORSDOF 4
ENDMDL
MODEL 9
REMARK VINA RESULT:      -9.1      1.758      2.702
REMARK  Name = 446399
REMARK  4 active torsions:
REMARK  status: ('A' for Active; 'I' for Inactive)
REMARK    1  A    between atoms: N_3  and  S_21
REMARK    2  A    between atoms: C_4  and  C_10
REMARK    3  A    between atoms: N_9  and  C_16
REMARK    4  A    between atoms: S_21  and  C_25
REMARK                            x       y       z     vdW  Elec       q    Type
REMARK                         _______ _______ _______ _____ _____    ______ ____
ROOT
ATOM      1  O   UNL     1      34.946 -17.113 -25.967  0.00  0.00    -0.275 OA
ATOM      2  N   UNL     1      34.895 -17.621 -23.701  0.00  0.00    -0.277 N 
ATOM      3  N   UNL     1      35.782 -19.447 -21.707  0.00  0.00    -0.152 NA
ATOM      4  C   UNL     1      34.941 -16.749 -24.787  0.00  0.00    +0.225 C 
ATOM      5  C   UNL     1      34.888 -17.223 -22.288  0.00  0.00    +0.113 C 
ATOM      6  C   UNL     1      34.778 -19.063 -23.923  0.00  0.00    +0.113 C 
ATOM      7  C   UNL     1      35.961 -17.977 -21.509  0.00  0.00    +0.117 C 
ATOM      8  C   UNL     1      35.852 -19.821 -23.152  0.00  0.00    +0.117 C 
ENDROOT
BRANCH   4  10
ATOM      9  N   UNL     1      33.697 -12.842 -23.614  0.00  0.00    -0.307 N 
ATOM     10  C   UNL     1      34.989 -15.277 -24.469  0.00  0.00    +0.080 C 
ATOM     11  C   UNL     1      34.587 -15.058 -23.013  0.00  0.00    +0.031 C 
ATOM     12  C   UNL     1      34.047 -14.509 -25.393  0.00  0.00    +0.031 C 
ATOM     13  C   UNL     1      34.542 -13.571 -22.662  0.00  0.00    +0.091 C 
ATOM     14  C   UNL     1      34.010 -13.024 -25.038  0.00  0.00    +0.091 C 
BRANCH   9  16
ATOM     15  N   UNL     1      31.967  -9.167 -22.461  0.00  0.00    -0.242 NA
ATOM     16  C   UNL     1      33.123 -11.623 -23.232  0.00  0.00    +0.051 C 
ATOM     17  C   UNL     1      33.463 -10.427 -23.883  0.00  0.00    +0.035 C 
ATOM     18  C   UNL     1      32.190 -11.560 -22.185  0.00  0.00    +0.035 C 
ATOM     19  C   UNL     1      32.867  -9.247 -23.467  0.00  0.00    +0.100 C 
ATOM     20  C   UNL     1      31.651 -10.329 -21.845  0.00  0.00    +0.100 C 
ENDBRANCH   9  16
ENDBRANCH   4  10
BRANCH   3  21
ATOM     21  S   UNL     1      36.685 -20.445 -20.647  0.00  0.00    +0.063 S 
ATOM     22  O   UNL     1      37.435 -19.610 -19.736  0.00  0.00    -0.153 OA
ATOM     23  O   UNL     1      37.337 -21.479 -21.421  0.00  0.00    -0.153 OA
BRANCH  21  25
ATOM     24 CL   UNL     1      31.255 -24.426 -15.513  0.00  0.00    -0.082 Cl
ATOM     25  C   UNL     1      35.371 -21.195 -19.738  0.00  0.00    +0.122 C 
ATOM     26  C   UNL     1      35.663 -21.905 -18.585  0.00  0.00    +0.020 C 
ATOM     27  C   UNL     1      34.072 -21.058 -20.191  0.00  0.00    +0.020 C 
ATOM     28  C   UNL     1      34.628 -22.507 -17.850  0.00  0.00    +0.001 C 
ATOM     29  C   UNL     1      33.293 -22.377 -18.300  0.00  0.00    +0.001 C 
ATOM     30  C   UNL     1      33.032 -21.649 -19.472  0.00  0.00    +0.001 C 
ATOM     31  C   UNL     1      34.891 -23.234 -16.677  0.00  0.00    +0.001 C 
ATOM     32  C   UNL     1      32.258 -22.978 -17.564  0.00  0.00    +0.011 C 
ATOM     33  C   UNL     1      33.850 -23.826 -15.959  0.00  0.00    +0.011 C 
ATOM     34  C   UNL     1      32.537 -23.698 -16.402  0.00  0.00    +0.058 C 
ENDBRANCH  21  25
ENDBRANCH   3  21
TORSDOF 4
ENDMDL
