MODEL 1
REMARK VINA RESULT:     -11.5      0.000      0.000
REMARK  Name = 24779675
REMARK  4 active torsions:
REMARK  status: ('A' for Active; 'I' for Inactive)
REMARK    1  A    between atoms: N_1  and  C_22
REMARK    2  A    between atoms: N_5  and  C_14
REMARK    3  A    between atoms: C_10  and  C_21
REMARK    4  A    between atoms: C_22  and  C_23
REMARK                            x       y       z     vdW  Elec       q    Type
REMARK                         _______ _______ _______ _____ _____    ______ ____
ROOT
ATOM      1  N   UNL     1      34.603 -22.701 -18.733  0.00  0.00    -0.259 N 
ATOM      2  N   UNL     1      32.645 -22.919 -17.551  0.00  0.00    -0.314 NA
ATOM      3  N   UNL     1      34.682 -23.801 -16.670  0.00  0.00    -0.295 NA
ATOM      4  N   UNL     1      32.741 -24.027 -15.477  0.00  0.00    -0.123 N 
ATOM      5  N   UNL     1      34.737 -24.910 -14.576  0.00  0.00    -0.274 N 
ATOM      6  N   UNL     1      32.011 -24.430 -14.422  0.00  0.00    -0.170 NA
ATOM      7  C   UNL     1      33.938 -23.137 -17.642  0.00  0.00    +0.203 C 
ATOM      8  C   UNL     1      32.025 -23.374 -16.438  0.00  0.00    +0.219 C 
ATOM      9  C   UNL     1      34.105 -24.247 -15.592  0.00  0.00    +0.279 C 
ATOM     10  C   UNL     1      30.728 -23.348 -15.975  0.00  0.00    +0.203 C 
ATOM     11  C   UNL     1      30.781 -24.011 -14.733  0.00  0.00    +0.116 C 
ATOM     12  H   UNL     1      35.570 -22.870 -18.789  0.00  0.00    +0.160 HD
ATOM     13  H   UNL     1      34.176 -25.193 -13.818  0.00  0.00    +0.156 HD
ENDROOT
BRANCH   5  14
ATOM     14  C   UNL     1      36.094 -25.229 -14.499  0.00  0.00    +0.051 C 
ATOM     15  C   UNL     1      36.586 -26.349 -15.169  0.00  0.00    +0.015 C 
ATOM     16  C   UNL     1      36.958 -24.427 -13.753  0.00  0.00    +0.015 C 
ATOM     17  C   UNL     1      37.942 -26.669 -15.092  0.00  0.00    +0.001 C 
ATOM     18  C   UNL     1      38.314 -24.746 -13.677  0.00  0.00    +0.001 C 
ATOM     19  C   UNL     1      38.806 -25.867 -14.346  0.00  0.00    +0.000 C 
ENDBRANCH   5  14
BRANCH  10  21
ATOM     20  N   UNL     1      28.687 -22.305 -17.161  0.00  0.00    -0.195 NA
ATOM     21  C   UNL     1      29.604 -22.774 -16.627  0.00  0.00    +0.087 C 
ENDBRANCH  10  21
BRANCH   1  22
ATOM     22  C   UNL     1      33.966 -22.001 -19.817  0.00  0.00    +0.099 C 
BRANCH  22  23
ATOM     23  C   UNL     1      34.756 -20.736 -20.148  0.00  0.00    +0.020 C 
ATOM     24  C   UNL     1      36.259 -21.040 -20.217  0.00  0.00    +0.002 C 
ATOM     25  C   UNL     1      34.263 -20.117 -21.462  0.00  0.00    +0.002 C 
ATOM     26  C   UNL     1      37.067 -19.802 -20.599  0.00  0.00    +0.000 C 
ATOM     27  C   UNL     1      35.075 -18.880 -21.842  0.00  0.00    +0.000 C 
ATOM     28  C   UNL     1      36.569 -19.183 -21.901  0.00  0.00    +0.000 C 
ENDBRANCH  22  23
ENDBRANCH   1  22
TORSDOF 4
ENDMDL
MODEL 2
REMARK VINA RESULT:     -10.6      1.417      5.529
REMARK  Name = 24779675
REMARK  4 active torsions:
REMARK  status: ('A' for Active; 'I' for Inactive)
REMARK    1  A    between atoms: N_1  and  C_22
REMARK    2  A    between atoms: N_5  and  C_14
REMARK    3  A    between atoms: C_10  and  C_21
REMARK    4  A    between atoms: C_22  and  C_23
REMARK                            x       y       z     vdW  Elec       q    Type
REMARK                         _______ _______ _______ _____ _____    ______ ____
ROOT
ATOM      1  N   UNL     1      34.967 -22.392 -18.229  0.00  0.00    -0.259 N 
ATOM      2  N   UNL     1      36.085 -23.415 -16.502  0.00  0.00    -0.314 NA
ATOM      3  N   UNL     1      33.698 -23.334 -16.504  0.00  0.00    -0.295 NA
ATOM      4  N   UNL     1      34.795 -24.358 -14.776  0.00  0.00    -0.123 N 
ATOM      5  N   UNL     1      32.434 -24.296 -14.745  0.00  0.00    -0.274 N 
ATOM      6  N   UNL     1      34.856 -25.026 -13.610  0.00  0.00    -0.170 NA
ATOM      7  C   UNL     1      34.947 -23.061 -17.057  0.00  0.00    +0.203 C 
ATOM      8  C   UNL     1      36.012 -24.084 -15.329  0.00  0.00    +0.219 C 
ATOM      9  C   UNL     1      33.606 -23.975 -15.376  0.00  0.00    +0.279 C 
ATOM     10  C   UNL     1      36.938 -24.614 -14.459  0.00  0.00    +0.203 C 
ATOM     11  C   UNL     1      36.170 -25.180 -13.422  0.00  0.00    +0.116 C 
ATOM     12  H   UNL     1      34.109 -22.133 -18.634  0.00  0.00    +0.160 HD
ATOM     13  H   UNL     1      32.512 -24.784 -13.894  0.00  0.00    +0.156 HD
ENDROOT
BRANCH   5  14
ATOM     14  C   UNL     1      31.140 -24.004 -15.181  0.00  0.00    +0.051 C 
ATOM     15  C   UNL     1      30.611 -22.728 -14.990  0.00  0.00    +0.015 C 
ATOM     16  C   UNL     1      30.377 -24.990 -15.807  0.00  0.00    +0.015 C 
ATOM     17  C   UNL     1      29.318 -22.436 -15.424  0.00  0.00    +0.001 C 
ATOM     18  C   UNL     1      29.084 -24.697 -16.242  0.00  0.00    +0.001 C 
ATOM     19  C   UNL     1      28.554 -23.421 -16.050  0.00  0.00    +0.000 C 
ENDBRANCH   5  14
BRANCH  10  21
ATOM     20  N   UNL     1      39.506 -24.557 -14.714  0.00  0.00    -0.195 NA
ATOM     21  C   UNL     1      38.352 -24.582 -14.600  0.00  0.00    +0.087 C 
ENDBRANCH  10  21
BRANCH   1  22
ATOM     22  C   UNL     1      36.182 -22.041 -18.916  0.00  0.00    +0.099 C 
BRANCH  22  23
ATOM     23  C   UNL     1      35.846 -21.316 -20.218  0.00  0.00    +0.020 C 
ATOM     24  C   UNL     1      34.379 -20.864 -20.223  0.00  0.00    +0.002 C 
ATOM     25  C   UNL     1      36.786 -20.122 -20.432  0.00  0.00    +0.002 C 
ATOM     26  C   UNL     1      34.032 -20.089 -21.492  0.00  0.00    +0.000 C 
ATOM     27  C   UNL     1      36.434 -19.349 -21.701  0.00  0.00    +0.000 C 
ATOM     28  C   UNL     1      34.973 -18.909 -21.707  0.00  0.00    +0.000 C 
ENDBRANCH  22  23
ENDBRANCH   1  22
TORSDOF 4
ENDMDL
MODEL 3
REMARK VINA RESULT:      -9.7      1.427      5.686
REMARK  Name = 24779675
REMARK  4 active torsions:
REMARK  status: ('A' for Active; 'I' for Inactive)
REMARK    1  A    between atoms: N_1  and  C_22
REMARK    2  A    between atoms: N_5  and  C_14
REMARK    3  A    between atoms: C_10  and  C_21
REMARK    4  A    between atoms: C_22  and  C_23
REMARK                            x       y       z     vdW  Elec       q    Type
REMARK                         _______ _______ _______ _____ _____    ______ ____
ROOT
ATOM      1  N   UNL     1      33.355 -22.685 -19.153  0.00  0.00    -0.259 N 
ATOM      2  N   UNL     1      34.349 -23.397 -17.207  0.00  0.00    -0.314 NA
ATOM      3  N   UNL     1      31.988 -23.042 -17.289  0.00  0.00    -0.295 NA
ATOM      4  N   UNL     1      32.960 -23.751 -15.342  0.00  0.00    -0.123 N 
ATOM      5  N   UNL     1      30.624 -23.411 -15.386  0.00  0.00    -0.274 N 
ATOM      6  N   UNL     1      32.945 -24.129 -14.051  0.00  0.00    -0.170 NA
ATOM      7  C   UNL     1      33.259 -23.053 -17.858  0.00  0.00    +0.203 C 
ATOM      8  C   UNL     1      34.200 -23.758 -15.912  0.00  0.00    +0.219 C 
ATOM      9  C   UNL     1      31.823 -23.385 -16.044  0.00  0.00    +0.279 C 
ATOM     10  C   UNL     1      35.059 -24.172 -14.920  0.00  0.00    +0.203 C 
ATOM     11  C   UNL     1      34.232 -24.386 -13.799  0.00  0.00    +0.116 C 
ATOM     12  H   UNL     1      32.532 -22.431 -19.629  0.00  0.00    +0.160 HD
ATOM     13  H   UNL     1      30.646 -23.692 -14.443  0.00  0.00    +0.156 HD
ENDROOT
BRANCH   5  14
ATOM     14  C   UNL     1      29.372 -23.082 -15.910  0.00  0.00    +0.051 C 
ATOM     15  C   UNL     1      29.068 -23.393 -17.236  0.00  0.00    +0.015 C 
ATOM     16  C   UNL     1      28.426 -22.443 -15.109  0.00  0.00    +0.015 C 
ATOM     17  C   UNL     1      27.819 -23.063 -17.761  0.00  0.00    +0.001 C 
ATOM     18  C   UNL     1      27.176 -22.114 -15.634  0.00  0.00    +0.001 C 
ATOM     19  C   UNL     1      26.872 -22.424 -16.960  0.00  0.00    +0.000 C 
ENDBRANCH   5  14
BRANCH  10  21
ATOM     20  N   UNL     1      37.615 -24.473 -15.118  0.00  0.00    -0.195 NA
ATOM     21  C   UNL     1      36.466 -24.338 -15.029  0.00  0.00    +0.087 C 
ENDBRANCH  10  21
BRANCH   1  22
ATOM     22  C   UNL     1      34.601 -22.648 -19.872  0.00  0.00    +0.099 C 
BRANCH  22  23
ATOM     23  C   UNL     1      35.039 -21.198 -20.069  0.00  0.00    +0.020 C 
ATOM     24  C   UNL     1      36.545 -21.120 -20.352  0.00  0.00    +0.002 C 
ATOM     25  C   UNL     1      34.236 -20.538 -21.198  0.00  0.00    +0.002 C 
ATOM     26  C   UNL     1      36.998 -19.684 -20.606  0.00  0.00    +0.000 C 
ATOM     27  C   UNL     1      34.693 -19.103 -21.450  0.00  0.00    +0.000 C 
ATOM     28  C   UNL     1      36.192 -19.028 -21.722  0.00  0.00    +0.000 C 
ENDBRANCH  22  23
ENDBRANCH   1  22
TORSDOF 4
ENDMDL
MODEL 4
REMARK VINA RESULT:      -9.6      1.280      6.562
REMARK  Name = 24779675
REMARK  4 active torsions:
REMARK  status: ('A' for Active; 'I' for Inactive)
REMARK    1  A    between atoms: N_1  and  C_22
REMARK    2  A    between atoms: N_5  and  C_14
REMARK    3  A    between atoms: C_10  and  C_21
REMARK    4  A    between atoms: C_22  and  C_23
REMARK                            x       y       z     vdW  Elec       q    Type
REMARK                         _______ _______ _______ _____ _____    ______ ____
ROOT
ATOM      1  N   UNL     1      35.925 -23.450 -15.563  0.00  0.00    -0.259 N 
ATOM      2  N   UNL     1      33.681 -23.801 -15.213  0.00  0.00    -0.314 NA
ATOM      3  N   UNL     1      34.427 -22.695 -17.194  0.00  0.00    -0.295 NA
ATOM      4  N   UNL     1      32.188 -23.036 -16.863  0.00  0.00    -0.123 N 
ATOM      5  N   UNL     1      32.890 -21.939 -18.833  0.00  0.00    -0.274 N 
ATOM      6  N   UNL     1      30.890 -22.952 -17.202  0.00  0.00    -0.170 NA
ATOM      7  C   UNL     1      34.644 -23.327 -15.972  0.00  0.00    +0.203 C 
ATOM      8  C   UNL     1      32.415 -23.654 -15.668  0.00  0.00    +0.219 C 
ATOM      9  C   UNL     1      33.217 -22.543 -17.649  0.00  0.00    +0.279 C 
ATOM     10  C   UNL     1      31.172 -24.001 -15.190  0.00  0.00    +0.203 C 
ATOM     11  C   UNL     1      30.273 -23.545 -16.175  0.00  0.00    +0.116 C 
ATOM     12  H   UNL     1      36.636 -23.092 -16.141  0.00  0.00    +0.160 HD
ATOM     13  H   UNL     1      31.932 -21.893 -19.053  0.00  0.00    +0.156 HD
ENDROOT
BRANCH   5  14
ATOM     14  C   UNL     1      33.771 -21.383 -19.761  0.00  0.00    +0.051 C 
ATOM     15  C   UNL     1      35.127 -21.707 -19.717  0.00  0.00    +0.015 C 
ATOM     16  C   UNL     1      33.295 -20.502 -20.733  0.00  0.00    +0.015 C 
ATOM     17  C   UNL     1      36.009 -21.149 -20.644  0.00  0.00    +0.001 C 
ATOM     18  C   UNL     1      34.177 -19.946 -21.661  0.00  0.00    +0.001 C 
ATOM     19  C   UNL     1      35.533 -20.269 -21.616  0.00  0.00    +0.000 C 
ENDBRANCH   5  14
BRANCH  10  21
ATOM     20  N   UNL     1      30.652 -25.218 -12.974  0.00  0.00    -0.195 NA
ATOM     21  C   UNL     1      30.885 -24.670 -13.970  0.00  0.00    +0.087 C 
ENDBRANCH  10  21
BRANCH   1  22
ATOM     22  C   UNL     1      36.300 -24.079 -14.325  0.00  0.00    +0.099 C 
BRANCH  22  23
ATOM     23  C   UNL     1      37.534 -24.952 -14.544  0.00  0.00    +0.020 C 
ATOM     24  C   UNL     1      38.558 -24.229 -15.430  0.00  0.00    +0.002 C 
ATOM     25  C   UNL     1      38.160 -25.353 -13.202  0.00  0.00    +0.002 C 
ATOM     26  C   UNL     1      39.825 -25.060 -15.621  0.00  0.00    +0.000 C 
ATOM     27  C   UNL     1      39.428 -26.182 -13.397  0.00  0.00    +0.000 C 
ATOM     28  C   UNL     1      40.440 -25.464 -14.285  0.00  0.00    +0.000 C 
ENDBRANCH  22  23
ENDBRANCH   1  22
TORSDOF 4
ENDMDL
MODEL 5
REMARK VINA RESULT:      -9.5      1.418      6.743
REMARK  Name = 24779675
REMARK  4 active torsions:
REMARK  status: ('A' for Active; 'I' for Inactive)
REMARK    1  A    between atoms: N_1  and  C_22
REMARK    2  A    between atoms: N_5  and  C_14
REMARK    3  A    between atoms: C_10  and  C_21
REMARK    4  A    between atoms: C_22  and  C_23
REMARK                            x       y       z     vdW  Elec       q    Type
REMARK                         _______ _______ _______ _____ _____    ______ ____
ROOT
ATOM      1  N   UNL     1      35.739 -24.191 -16.062  0.00  0.00    -0.259 N 
ATOM      2  N   UNL     1      33.479 -24.203 -15.645  0.00  0.00    -0.314 NA
ATOM      3  N   UNL     1      34.350 -22.978 -17.501  0.00  0.00    -0.295 NA
ATOM      4  N   UNL     1      32.096 -22.979 -17.102  0.00  0.00    -0.123 N 
ATOM      5  N   UNL     1      32.922 -21.757 -18.946  0.00  0.00    -0.274 N 
ATOM      6  N   UNL     1      30.823 -22.631 -17.361  0.00  0.00    -0.170 NA
ATOM      7  C   UNL     1      34.488 -23.800 -16.385  0.00  0.00    +0.203 C 
ATOM      8  C   UNL     1      32.246 -23.785 -16.011  0.00  0.00    +0.219 C 
ATOM      9  C   UNL     1      33.173 -22.563 -17.870  0.00  0.00    +0.279 C 
ATOM     10  C   UNL     1      30.975 -23.979 -15.520  0.00  0.00    +0.203 C 
ATOM     11  C   UNL     1      30.142 -23.247 -16.389  0.00  0.00    +0.116 C 
ATOM     12  H   UNL     1      36.485 -23.882 -16.624  0.00  0.00    +0.160 HD
ATOM     13  H   UNL     1      31.980 -21.520 -19.109  0.00  0.00    +0.156 HD
ENDROOT
BRANCH   5  14
ATOM     14  C   UNL     1      33.860 -21.234 -19.839  0.00  0.00    +0.051 C 
ATOM     15  C   UNL     1      35.214 -21.530 -19.679  0.00  0.00    +0.015 C 
ATOM     16  C   UNL     1      33.443 -20.417 -20.890  0.00  0.00    +0.015 C 
ATOM     17  C   UNL     1      36.152 -21.007 -20.570  0.00  0.00    +0.001 C 
ATOM     18  C   UNL     1      34.381 -19.896 -21.781  0.00  0.00    +0.001 C 
ATOM     19  C   UNL     1      35.735 -20.190 -21.621  0.00  0.00    +0.000 C 
ENDBRANCH   5  14
BRANCH  10  21
ATOM     20  N   UNL     1      30.313 -25.383 -13.457  0.00  0.00    -0.195 NA
ATOM     21  C   UNL     1      30.611 -24.751 -14.384  0.00  0.00    +0.087 C 
ENDBRANCH  10  21
BRANCH   1  22
ATOM     22  C   UNL     1      36.034 -25.039 -14.937  0.00  0.00    +0.099 C 
BRANCH  22  23
ATOM     23  C   UNL     1      36.153 -24.191 -13.672  0.00  0.00    +0.020 C 
ATOM     24  C   UNL     1      35.664 -24.975 -12.447  0.00  0.00    +0.002 C 
ATOM     25  C   UNL     1      37.597 -23.712 -13.474  0.00  0.00    +0.002 C 
ATOM     26  C   UNL     1      35.822 -24.168 -11.160  0.00  0.00    +0.000 C 
ATOM     27  C   UNL     1      37.752 -22.907 -12.185  0.00  0.00    +0.000 C 
ATOM     28  C   UNL     1      37.257 -23.686 -10.971  0.00  0.00    +0.000 C 
ENDBRANCH  22  23
ENDBRANCH   1  22
TORSDOF 4
ENDMDL
MODEL 6
REMARK VINA RESULT:      -8.7      5.259      8.952
REMARK  Name = 24779675
REMARK  4 active torsions:
REMARK  status: ('A' for Active; 'I' for Inactive)
REMARK    1  A    between atoms: N_1  and  C_22
REMARK    2  A    between atoms: N_5  and  C_14
REMARK    3  A    between atoms: C_10  and  C_21
REMARK    4  A    between atoms: C_22  and  C_23
REMARK                            x       y       z     vdW  Elec       q    Type
REMARK                         _______ _______ _______ _____ _____    ______ ____
ROOT
ATOM      1  N   UNL     1      35.173 -15.764 -20.685  0.00  0.00    -0.259 N 
ATOM      2  N   UNL     1      34.914 -16.301 -22.904  0.00  0.00    -0.314 NA
ATOM      3  N   UNL     1      35.194 -18.027 -21.278  0.00  0.00    -0.295 NA
ATOM      4  N   UNL     1      34.937 -18.581 -23.484  0.00  0.00    -0.123 N 
ATOM      5  N   UNL     1      35.211 -20.314 -21.903  0.00  0.00    -0.274 N 
ATOM      6  N   UNL     1      34.843 -19.445 -24.510  0.00  0.00    -0.170 NA
ATOM      7  C   UNL     1      35.088 -16.692 -21.661  0.00  0.00    +0.203 C 
ATOM      8  C   UNL     1      34.835 -17.269 -23.845  0.00  0.00    +0.219 C 
ATOM      9  C   UNL     1      35.121 -18.974 -22.167  0.00  0.00    +0.279 C 
ATOM     10  C   UNL     1      34.660 -17.277 -25.211  0.00  0.00    +0.203 C 
ATOM     11  C   UNL     1      34.673 -18.641 -25.563  0.00  0.00    +0.116 C 
ATOM     12  H   UNL     1      35.303 -16.070 -19.759  0.00  0.00    +0.160 HD
ATOM     13  H   UNL     1      35.139 -20.920 -22.674  0.00  0.00    +0.156 HD
ENDROOT
BRANCH   5  14
ATOM     14  C   UNL     1      35.395 -20.911 -20.654  0.00  0.00    +0.051 C 
ATOM     15  C   UNL     1      36.648 -20.876 -20.042  0.00  0.00    +0.015 C 
ATOM     16  C   UNL     1      34.325 -21.542 -20.019  0.00  0.00    +0.015 C 
ATOM     17  C   UNL     1      36.832 -21.474 -18.795  0.00  0.00    +0.001 C 
ATOM     18  C   UNL     1      34.509 -22.139 -18.772  0.00  0.00    +0.001 C 
ATOM     19  C   UNL     1      35.762 -22.105 -18.160  0.00  0.00    +0.000 C 
ENDBRANCH   5  14
BRANCH  10  21
ATOM     20  N   UNL     1      34.375 -15.220 -26.745  0.00  0.00    -0.195 NA
ATOM     21  C   UNL     1      34.503 -16.145 -26.054  0.00  0.00    +0.087 C 
ENDBRANCH  10  21
BRANCH   1  22
ATOM     22  C   UNL     1      35.082 -14.349 -20.932  0.00  0.00    +0.099 C 
BRANCH  22  23
ATOM     23  C   UNL     1      33.627 -13.967 -21.198  0.00  0.00    +0.020 C 
ATOM     24  C   UNL     1      33.050 -13.178 -20.014  0.00  0.00    +0.002 C 
ATOM     25  C   UNL     1      33.506 -13.163 -22.500  0.00  0.00    +0.002 C 
ATOM     26  C   UNL     1      31.612 -12.737 -20.277  0.00  0.00    +0.000 C 
ATOM     27  C   UNL     1      32.067 -12.722 -22.759  0.00  0.00    +0.000 C 
ATOM     28  C   UNL     1      31.494 -11.947 -21.577  0.00  0.00    +0.000 C 
ENDBRANCH  22  23
ENDBRANCH   1  22
TORSDOF 4
ENDMDL
