MODEL 1
REMARK VINA RESULT:     -11.8      0.000      0.000
REMARK  Name = 447735
REMARK  4 active torsions:
REMARK  status: ('A' for Active; 'I' for Inactive)
REMARK    1  A    between atoms: N_2  and  C_13
REMARK    2  A    between atoms: C_3  and  C_18
REMARK    3  A    between atoms: C_7  and  C_15
REMARK    4  A    between atoms: C_26  and  C_30
REMARK                            x       y       z     vdW  Elec       q    Type
REMARK                         _______ _______ _______ _____ _____    ______ ____
ROOT
ATOM      1  O   UNL     1      34.126 -24.013 -18.358  0.00  0.00    -0.270 OA
ATOM      2  N   UNL     1      35.395 -22.531 -17.045  0.00  0.00    -0.280 N 
ATOM      3  C   UNL     1      34.674 -22.932 -18.178  0.00  0.00    +0.249 C 
ATOM      4  H   UNL     1      35.769 -21.621 -17.071  0.00  0.00    +0.155 HD
ENDROOT
BRANCH   2  13
ATOM      5  N   UNL     1      38.808 -25.610 -13.054  0.00  0.00    -0.274 NA
ATOM      6  C   UNL     1      37.148 -24.558 -14.512  0.00  0.00    +0.010 C 
ATOM      7  C   UNL     1      38.453 -25.208 -14.229  0.00  0.00    +0.053 C 
ATOM      8  C   UNL     1      36.141 -24.721 -13.552  0.00  0.00    -0.019 C 
ATOM      9  C   UNL     1      36.435 -25.539 -12.330  0.00  0.00    +0.053 C 
ATOM     10  C   UNL     1      37.894 -25.348 -11.937  0.00  0.00    +0.130 C 
ATOM     11  C   UNL     1      36.905 -23.826 -15.676  0.00  0.00    +0.016 C 
ATOM     12  C   UNL     1      34.877 -24.168 -13.778  0.00  0.00    -0.003 C 
ATOM     13  C   UNL     1      35.645 -23.264 -15.885  0.00  0.00    +0.051 C 
ATOM     14  C   UNL     1      34.633 -23.437 -14.940  0.00  0.00    +0.014 C 
BRANCH   7  15
ATOM     15  C   UNL     1      39.421 -25.421 -15.368  0.00  0.00    +0.040 C 
ATOM     16  C   UNL     1      39.834 -24.066 -15.914  0.00  0.00    +0.006 C 
ATOM     17  C   UNL     1      40.611 -26.221 -14.869  0.00  0.00    +0.006 C 
ENDBRANCH   7  15
ENDBRANCH   2  13
BRANCH   3  18
ATOM     18  C   UNL     1      34.603 -21.930 -19.275  0.00  0.00    +0.054 C 
ATOM     19  C   UNL     1      35.719 -20.391 -20.747  0.00  0.00    +0.000 C 
ATOM     20  C   UNL     1      34.469 -20.061 -21.323  0.00  0.00    +0.000 C 
ATOM     21  C   UNL     1      35.770 -21.339 -19.712  0.00  0.00    +0.005 C 
ATOM     22  C   UNL     1      33.375 -21.628 -19.817  0.00  0.00    +0.005 C 
ATOM     23  C   UNL     1      33.305 -20.688 -20.847  0.00  0.00    +0.000 C 
ATOM     24  C   UNL     1      34.418 -19.113 -22.358  0.00  0.00    +0.003 C 
ATOM     25  C   UNL     1      36.881 -19.763 -21.224  0.00  0.00    +0.000 C 
ATOM     26  C   UNL     1      35.583 -18.499 -22.820  0.00  0.00    +0.031 C 
ATOM     27  C   UNL     1      36.812 -18.824 -22.253  0.00  0.00    +0.003 C 
BRANCH  26  30
ATOM     28  N   UNL     1      34.893 -17.815 -25.104  0.00  0.00    -0.343 N 
ATOM     29  N   UNL     1      36.052 -16.324 -23.728  0.00  0.00    -0.285 NA
ATOM     30  C   UNL     1      35.514 -17.521 -23.892  0.00  0.00    +0.117 C 
ATOM     31  H   UNL     1      34.857 -17.137 -25.817  0.00  0.00    +0.144 HD
ATOM     32  H   UNL     1      34.489 -18.701 -25.247  0.00  0.00    +0.144 HD
ATOM     33  H   UNL     1      36.007 -15.660 -24.453  0.00  0.00    +0.188 HD
ENDBRANCH  26  30
ENDBRANCH   3  18
TORSDOF 4
ENDMDL
MODEL 2
REMARK VINA RESULT:     -11.5      2.198     10.420
REMARK  Name = 447735
REMARK  4 active torsions:
REMARK  status: ('A' for Active; 'I' for Inactive)
REMARK    1  A    between atoms: N_2  and  C_13
REMARK    2  A    between atoms: C_3  and  C_18
REMARK    3  A    between atoms: C_7  and  C_15
REMARK    4  A    between atoms: C_26  and  C_30
REMARK                            x       y       z     vdW  Elec       q    Type
REMARK                         _______ _______ _______ _____ _____    ______ ____
ROOT
ATOM      1  O   UNL     1      33.923 -21.419 -20.492  0.00  0.00    -0.270 OA
ATOM      2  N   UNL     1      35.819 -20.034 -20.633  0.00  0.00    -0.280 N 
ATOM      3  C   UNL     1      35.016 -21.043 -20.083  0.00  0.00    +0.249 C 
ATOM      4  H   UNL     1      36.672 -19.863 -20.172  0.00  0.00    +0.155 HD
ENDROOT
BRANCH   2  13
ATOM      5  N   UNL     1      35.067 -14.831 -23.703  0.00  0.00    -0.274 NA
ATOM      6  C   UNL     1      35.168 -17.079 -22.740  0.00  0.00    +0.010 C 
ATOM      7  C   UNL     1      34.993 -15.605 -22.671  0.00  0.00    +0.053 C 
ATOM      8  C   UNL     1      35.044 -17.670 -24.004  0.00  0.00    -0.019 C 
ATOM      9  C   UNL     1      34.734 -16.796 -25.182  0.00  0.00    +0.053 C 
ATOM     10  C   UNL     1      35.405 -15.441 -24.993  0.00  0.00    +0.130 C 
ATOM     11  C   UNL     1      35.429 -17.862 -21.614  0.00  0.00    +0.016 C 
ATOM     12  C   UNL     1      35.158 -19.058 -24.130  0.00  0.00    -0.003 C 
ATOM     13  C   UNL     1      35.557 -19.245 -21.753  0.00  0.00    +0.051 C 
ATOM     14  C   UNL     1      35.419 -19.841 -23.006  0.00  0.00    +0.014 C 
BRANCH   7  15
ATOM     15  C   UNL     1      34.707 -14.970 -21.332  0.00  0.00    +0.040 C 
ATOM     16  C   UNL     1      35.324 -13.582 -21.312  0.00  0.00    +0.006 C 
ATOM     17  C   UNL     1      33.206 -14.928 -21.110  0.00  0.00    +0.006 C 
ENDBRANCH   7  15
ENDBRANCH   2  13
BRANCH   3  18
ATOM     18  C   UNL     1      35.557 -21.692 -18.860  0.00  0.00    +0.054 C 
ATOM     19  C   UNL     1      35.216 -23.102 -16.942  0.00  0.00    +0.000 C 
ATOM     20  C   UNL     1      36.569 -22.906 -16.578  0.00  0.00    +0.000 C 
ATOM     21  C   UNL     1      34.720 -22.482 -18.100  0.00  0.00    +0.005 C 
ATOM     22  C   UNL     1      36.876 -21.485 -18.529  0.00  0.00    +0.005 C 
ATOM     23  C   UNL     1      37.387 -22.093 -17.382  0.00  0.00    +0.000 C 
ATOM     24  C   UNL     1      37.066 -23.525 -15.419  0.00  0.00    +0.003 C 
ATOM     25  C   UNL     1      34.400 -23.913 -16.137  0.00  0.00    +0.000 C 
ATOM     26  C   UNL     1      36.240 -24.329 -14.632  0.00  0.00    +0.031 C 
ATOM     27  C   UNL     1      34.910 -24.522 -14.990  0.00  0.00    +0.003 C 
BRANCH  26  30
ATOM     28  N   UNL     1      38.142 -25.091 -13.229  0.00  0.00    -0.343 N 
ATOM     29  N   UNL     1      35.942 -25.439 -12.522  0.00  0.00    -0.285 NA
ATOM     30  C   UNL     1      36.770 -24.964 -13.436  0.00  0.00    +0.117 C 
ATOM     31  H   UNL     1      38.478 -25.526 -12.412  0.00  0.00    +0.144 HD
ATOM     32  H   UNL     1      38.775 -24.747 -13.900  0.00  0.00    +0.144 HD
ATOM     33  H   UNL     1      36.298 -25.871 -11.711  0.00  0.00    +0.188 HD
ENDBRANCH  26  30
ENDBRANCH   3  18
TORSDOF 4
ENDMDL
MODEL 3
REMARK VINA RESULT:     -11.4      8.790     15.534
REMARK  Name = 447735
REMARK  4 active torsions:
REMARK  status: ('A' for Active; 'I' for Inactive)
REMARK    1  A    between atoms: N_2  and  C_13
REMARK    2  A    between atoms: C_3  and  C_18
REMARK    3  A    between atoms: C_7  and  C_15
REMARK    4  A    between atoms: C_26  and  C_30
REMARK                            x       y       z     vdW  Elec       q    Type
REMARK                         _______ _______ _______ _____ _____    ______ ____
ROOT
ATOM      1  O   UNL     1      31.384 -11.455 -22.150  0.00  0.00    -0.270 OA
ATOM      2  N   UNL     1      33.220 -10.209 -22.929  0.00  0.00    -0.280 N 
ATOM      3  C   UNL     1      32.503 -11.380 -22.645  0.00  0.00    +0.249 C 
ATOM      4  H   UNL     1      34.110 -10.336 -23.329  0.00  0.00    +0.155 HD
ENDROOT
BRANCH   2  13
ATOM      5  N   UNL     1      32.119  -4.427 -24.481  0.00  0.00    -0.274 NA
ATOM      6  C   UNL     1      32.588  -6.623 -23.509  0.00  0.00    +0.010 C 
ATOM      7  C   UNL     1      32.749  -5.554 -24.527  0.00  0.00    +0.053 C 
ATOM      8  C   UNL     1      32.022  -6.247 -22.283  0.00  0.00    -0.019 C 
ATOM      9  C   UNL     1      31.636  -4.813 -22.078  0.00  0.00    +0.053 C 
ATOM     10  C   UNL     1      31.150  -4.228 -23.398  0.00  0.00    +0.130 C 
ATOM     11  C   UNL     1      32.985  -7.943 -23.730  0.00  0.00    +0.016 C 
ATOM     12  C   UNL     1      31.881  -7.198 -21.268  0.00  0.00    -0.003 C 
ATOM     13  C   UNL     1      32.826  -8.889 -22.715  0.00  0.00    +0.051 C 
ATOM     14  C   UNL     1      32.278  -8.516 -21.488  0.00  0.00    +0.014 C 
BRANCH   7  15
ATOM     15  C   UNL     1      33.699  -5.783 -25.677  0.00  0.00    +0.040 C 
ATOM     16  C   UNL     1      33.405  -4.762 -26.761  0.00  0.00    +0.006 C 
ATOM     17  C   UNL     1      35.127  -5.682 -25.172  0.00  0.00    +0.006 C 
ENDBRANCH   7  15
ENDBRANCH   2  13
BRANCH   3  18
ATOM     18  C   UNL     1      33.206 -12.651 -22.963  0.00  0.00    +0.054 C 
ATOM     19  C   UNL     1      34.247 -14.684 -22.212  0.00  0.00    +0.000 C 
ATOM     20  C   UNL     1      34.517 -15.024 -23.558  0.00  0.00    +0.000 C 
ATOM     21  C   UNL     1      33.582 -13.480 -21.927  0.00  0.00    +0.005 C 
ATOM     22  C   UNL     1      33.457 -12.957 -24.281  0.00  0.00    +0.005 C 
ATOM     23  C   UNL     1      34.116 -14.149 -24.583  0.00  0.00    +0.000 C 
ATOM     24  C   UNL     1      35.182 -16.228 -23.843  0.00  0.00    +0.003 C 
ATOM     25  C   UNL     1      34.649 -15.559 -21.190  0.00  0.00    +0.000 C 
ATOM     26  C   UNL     1      35.574 -17.085 -22.814  0.00  0.00    +0.031 C 
ATOM     27  C   UNL     1      35.308 -16.751 -21.489  0.00  0.00    +0.003 C 
BRANCH  26  30
ATOM     28  N   UNL     1      37.620 -18.490 -22.867  0.00  0.00    -0.343 N 
ATOM     29  N   UNL     1      35.592 -19.331 -23.667  0.00  0.00    -0.285 NA
ATOM     30  C   UNL     1      36.261 -18.328 -23.125  0.00  0.00    +0.117 C 
ATOM     31  H   UNL     1      38.065 -19.341 -23.086  0.00  0.00    +0.144 HD
ATOM     32  H   UNL     1      38.137 -17.753 -22.466  0.00  0.00    +0.144 HD
ATOM     33  H   UNL     1      36.055 -20.174 -23.879  0.00  0.00    +0.188 HD
ENDBRANCH  26  30
ENDBRANCH   3  18
TORSDOF 4
ENDMDL
MODEL 4
REMARK VINA RESULT:     -11.4      9.559     16.280
REMARK  Name = 447735
REMARK  4 active torsions:
REMARK  status: ('A' for Active; 'I' for Inactive)
REMARK    1  A    between atoms: N_2  and  C_13
REMARK    2  A    between atoms: C_3  and  C_18
REMARK    3  A    between atoms: C_7  and  C_15
REMARK    4  A    between atoms: C_26  and  C_30
REMARK                            x       y       z     vdW  Elec       q    Type
REMARK                         _______ _______ _______ _____ _____    ______ ____
ROOT
ATOM      1  O   UNL     1      30.719 -10.205 -22.508  0.00  0.00    -0.270 OA
ATOM      2  N   UNL     1      32.829  -9.169 -22.439  0.00  0.00    -0.280 N 
ATOM      3  C   UNL     1      31.940 -10.252 -22.407  0.00  0.00    +0.249 C 
ATOM      4  H   UNL     1      33.783  -9.391 -22.344  0.00  0.00    +0.155 HD
ENDROOT
BRANCH   2  13
ATOM      5  N   UNL     1      32.377  -3.886 -25.431  0.00  0.00    -0.274 NA
ATOM      6  C   UNL     1      32.561  -5.802 -23.920  0.00  0.00    +0.010 C 
ATOM      7  C   UNL     1      32.911  -5.025 -25.136  0.00  0.00    +0.053 C 
ATOM      8  C   UNL     1      31.908  -5.106 -22.893  0.00  0.00    -0.019 C 
ATOM      9  C   UNL     1      31.625  -3.646 -23.078  0.00  0.00    +0.053 C 
ATOM     10  C   UNL     1      31.325  -3.374 -24.547  0.00  0.00    +0.130 C 
ATOM     11  C   UNL     1      32.866  -7.157 -23.774  0.00  0.00    +0.016 C 
ATOM     12  C   UNL     1      31.587  -5.771 -21.705  0.00  0.00    -0.003 C 
ATOM     13  C   UNL     1      32.527  -7.815 -22.592  0.00  0.00    +0.051 C 
ATOM     14  C   UNL     1      31.892  -7.124 -21.559  0.00  0.00    +0.014 C 
BRANCH   7  15
ATOM     15  C   UNL     1      33.950  -5.582 -26.079  0.00  0.00    +0.040 C 
ATOM     16  C   UNL     1      33.908  -4.785 -27.371  0.00  0.00    +0.006 C 
ATOM     17  C   UNL     1      35.313  -5.517 -25.415  0.00  0.00    +0.006 C 
ENDBRANCH   7  15
ENDBRANCH   2  13
BRANCH   3  18
ATOM     18  C   UNL     1      32.566 -11.585 -22.203  0.00  0.00    +0.054 C 
ATOM     19  C   UNL     1      33.869 -13.413 -23.065  0.00  0.00    +0.000 C 
ATOM     20  C   UNL     1      33.737 -14.072 -21.820  0.00  0.00    +0.000 C 
ATOM     21  C   UNL     1      33.271 -12.154 -23.243  0.00  0.00    +0.005 C 
ATOM     22  C   UNL     1      32.423 -12.204 -20.983  0.00  0.00    +0.005 C 
ATOM     23  C   UNL     1      33.011 -13.454 -20.788  0.00  0.00    +0.000 C 
ATOM     24  C   UNL     1      34.335 -15.331 -21.643  0.00  0.00    +0.003 C 
ATOM     25  C   UNL     1      34.595 -14.031 -24.096  0.00  0.00    +0.000 C 
ATOM     26  C   UNL     1      35.053 -15.930 -22.678  0.00  0.00    +0.031 C 
ATOM     27  C   UNL     1      35.183 -15.282 -23.902  0.00  0.00    +0.003 C 
BRANCH  26  30
ATOM     28  N   UNL     1      36.305 -17.901 -23.521  0.00  0.00    -0.343 N 
ATOM     29  N   UNL     1      35.620 -17.807 -21.288  0.00  0.00    -0.285 NA
ATOM     30  C   UNL     1      35.667 -17.233 -22.478  0.00  0.00    +0.117 C 
ATOM     31  H   UNL     1      36.714 -18.783 -23.363  0.00  0.00    +0.144 HD
ATOM     32  H   UNL     1      36.348 -17.492 -24.415  0.00  0.00    +0.144 HD
ATOM     33  H   UNL     1      36.034 -18.690 -21.151  0.00  0.00    +0.188 HD
ENDBRANCH  26  30
ENDBRANCH   3  18
TORSDOF 4
ENDMDL
MODEL 5
REMARK VINA RESULT:     -11.2      3.474     11.709
REMARK  Name = 447735
REMARK  4 active torsions:
REMARK  status: ('A' for Active; 'I' for Inactive)
REMARK    1  A    between atoms: N_2  and  C_13
REMARK    2  A    between atoms: C_3  and  C_18
REMARK    3  A    between atoms: C_7  and  C_15
REMARK    4  A    between atoms: C_26  and  C_30
REMARK                            x       y       z     vdW  Elec       q    Type
REMARK                         _______ _______ _______ _____ _____    ______ ____
ROOT
ATOM      1  O   UNL     1      34.941 -19.510 -24.067  0.00  0.00    -0.270 OA
ATOM      2  N   UNL     1      35.198 -17.426 -23.008  0.00  0.00    -0.280 N 
ATOM      3  C   UNL     1      35.244 -18.824 -23.097  0.00  0.00    +0.249 C 
ATOM      4  H   UNL     1      35.480 -17.040 -22.148  0.00  0.00    +0.155 HD
ENDROOT
BRANCH   2  13
ATOM      5  N   UNL     1      33.768 -11.948 -25.244  0.00  0.00    -0.274 NA
ATOM      6  C   UNL     1      34.146 -14.286 -24.631  0.00  0.00    +0.010 C 
ATOM      7  C   UNL     1      33.823 -12.867 -24.338  0.00  0.00    +0.053 C 
ATOM      8  C   UNL     1      34.026 -14.699 -25.965  0.00  0.00    -0.019 C 
ATOM      9  C   UNL     1      33.572 -13.702 -26.989  0.00  0.00    +0.053 C 
ATOM     10  C   UNL     1      34.107 -12.324 -26.621  0.00  0.00    +0.130 C 
ATOM     11  C   UNL     1      34.540 -15.191 -23.643  0.00  0.00    +0.016 C 
ATOM     12  C   UNL     1      34.277 -16.033 -26.299  0.00  0.00    -0.003 C 
ATOM     13  C   UNL     1      34.804 -16.517 -23.990  0.00  0.00    +0.051 C 
ATOM     14  C   UNL     1      34.670 -16.937 -25.313  0.00  0.00    +0.014 C 
BRANCH   7  15
ATOM     15  C   UNL     1      33.536 -12.466 -22.911  0.00  0.00    +0.040 C 
ATOM     16  C   UNL     1      33.091 -11.015 -22.895  0.00  0.00    +0.006 C 
ATOM     17  C   UNL     1      32.478 -13.392 -22.336  0.00  0.00    +0.006 C 
ENDBRANCH   7  15
ENDBRANCH   2  13
BRANCH   3  18
ATOM     18  C   UNL     1      35.685 -19.527 -21.863  0.00  0.00    +0.054 C 
ATOM     19  C   UNL     1      35.203 -21.046 -20.062  0.00  0.00    +0.000 C 
ATOM     20  C   UNL     1      36.510 -20.840 -19.561  0.00  0.00    +0.000 C 
ATOM     21  C   UNL     1      34.801 -20.375 -21.229  0.00  0.00    +0.005 C 
ATOM     22  C   UNL     1      36.961 -19.309 -21.398  0.00  0.00    +0.005 C 
ATOM     23  C   UNL     1      37.378 -19.968 -20.240  0.00  0.00    +0.000 C 
ATOM     24  C   UNL     1      36.913 -21.511 -18.395  0.00  0.00    +0.003 C 
ATOM     25  C   UNL     1      34.338 -21.918 -19.383  0.00  0.00    +0.000 C 
ATOM     26  C   UNL     1      36.038 -22.374 -17.732  0.00  0.00    +0.031 C 
ATOM     27  C   UNL     1      34.753 -22.576 -18.226  0.00  0.00    +0.003 C 
BRANCH  26  30
ATOM     28  N   UNL     1      37.580 -22.630 -15.804  0.00  0.00    -0.343 N 
ATOM     29  N   UNL     1      35.806 -24.122 -16.100  0.00  0.00    -0.285 NA
ATOM     30  C   UNL     1      36.470 -23.062 -16.527  0.00  0.00    +0.117 C 
ATOM     31  H   UNL     1      37.854 -23.112 -14.989  0.00  0.00    +0.144 HD
ATOM     32  H   UNL     1      38.090 -21.845 -16.106  0.00  0.00    +0.144 HD
ATOM     33  H   UNL     1      36.096 -24.590 -15.284  0.00  0.00    +0.188 HD
ENDBRANCH  26  30
ENDBRANCH   3  18
TORSDOF 4
ENDMDL
MODEL 6
REMARK VINA RESULT:     -11.0      1.032      2.629
REMARK  Name = 447735
REMARK  4 active torsions:
REMARK  status: ('A' for Active; 'I' for Inactive)
REMARK    1  A    between atoms: N_2  and  C_13
REMARK    2  A    between atoms: C_3  and  C_18
REMARK    3  A    between atoms: C_7  and  C_15
REMARK    4  A    between atoms: C_26  and  C_30
REMARK                            x       y       z     vdW  Elec       q    Type
REMARK                         _______ _______ _______ _____ _____    ______ ____
ROOT
ATOM      1  O   UNL     1      34.755 -23.383 -17.726  0.00  0.00    -0.270 OA
ATOM      2  N   UNL     1      36.882 -22.435 -17.403  0.00  0.00    -0.280 N 
ATOM      3  C   UNL     1      35.629 -22.574 -18.014  0.00  0.00    +0.249 C 
ATOM      4  H   UNL     1      37.462 -21.727 -17.765  0.00  0.00    +0.155 HD
ENDROOT
BRANCH   2  13
ATOM      5  N   UNL     1      36.674 -25.617 -12.217  0.00  0.00    -0.274 NA
ATOM      6  C   UNL     1      37.116 -24.282 -14.220  0.00  0.00    +0.010 C 
ATOM      7  C   UNL     1      36.314 -24.686 -13.037  0.00  0.00    +0.053 C 
ATOM      8  C   UNL     1      38.463 -24.671 -14.231  0.00  0.00    -0.019 C 
ATOM      9  C   UNL     1      39.000 -25.441 -13.063  0.00  0.00    +0.053 C 
ATOM     10  C   UNL     1      37.909 -26.351 -12.515  0.00  0.00    +0.130 C 
ATOM     11  C   UNL     1      36.584 -23.540 -15.277  0.00  0.00    +0.016 C 
ATOM     12  C   UNL     1      39.282 -24.287 -15.298  0.00  0.00    -0.003 C 
ATOM     13  C   UNL     1      37.407 -23.176 -16.344  0.00  0.00    +0.051 C 
ATOM     14  C   UNL     1      38.752 -23.546 -16.353  0.00  0.00    +0.014 C 
BRANCH   7  15
ATOM     15  C   UNL     1      35.011 -23.973 -12.765  0.00  0.00    +0.040 C 
ATOM     16  C   UNL     1      33.899 -24.696 -13.504  0.00  0.00    +0.006 C 
ATOM     17  C   UNL     1      34.768 -23.933 -11.267  0.00  0.00    +0.006 C 
ENDBRANCH   7  15
ENDBRANCH   2  13
BRANCH   3  18
ATOM     18  C   UNL     1      35.366 -21.646 -19.147  0.00  0.00    +0.054 C 
ATOM     19  C   UNL     1      36.192 -20.076 -20.770  0.00  0.00    +0.000 C 
ATOM     20  C   UNL     1      34.875 -19.917 -21.261  0.00  0.00    +0.000 C 
ATOM     21  C   UNL     1      36.425 -20.956 -19.700  0.00  0.00    +0.005 C 
ATOM     22  C   UNL     1      34.076 -21.509 -19.604  0.00  0.00    +0.005 C 
ATOM     23  C   UNL     1      33.827 -20.640 -20.668  0.00  0.00    +0.000 C 
ATOM     24  C   UNL     1      34.643 -19.037 -22.331  0.00  0.00    +0.003 C 
ATOM     25  C   UNL     1      37.238 -19.353 -21.364  0.00  0.00    +0.000 C 
ATOM     26  C   UNL     1      35.695 -18.325 -22.909  0.00  0.00    +0.031 C 
ATOM     27  C   UNL     1      36.991 -18.483 -22.426  0.00  0.00    +0.003 C 
BRANCH  26  30
ATOM     28  N   UNL     1      34.693 -17.820 -25.124  0.00  0.00    -0.343 N 
ATOM     29  N   UNL     1      35.921 -16.189 -23.986  0.00  0.00    -0.285 NA
ATOM     30  C   UNL     1      35.439 -17.419 -24.017  0.00  0.00    +0.117 C 
ATOM     31  H   UNL     1      34.532 -17.189 -25.862  0.00  0.00    +0.144 HD
ATOM     32  H   UNL     1      34.327 -18.733 -25.167  0.00  0.00    +0.144 HD
ATOM     33  H   UNL     1      35.750 -15.573 -24.736  0.00  0.00    +0.188 HD
ENDBRANCH  26  30
ENDBRANCH   3  18
TORSDOF 4
ENDMDL
MODEL 7
REMARK VINA RESULT:     -10.8      3.358     11.188
REMARK  Name = 447735
REMARK  4 active torsions:
REMARK  status: ('A' for Active; 'I' for Inactive)
REMARK    1  A    between atoms: N_2  and  C_13
REMARK    2  A    between atoms: C_3  and  C_18
REMARK    3  A    between atoms: C_7  and  C_15
REMARK    4  A    between atoms: C_26  and  C_30
REMARK                            x       y       z     vdW  Elec       q    Type
REMARK                         _______ _______ _______ _____ _____    ______ ____
ROOT
ATOM      1  O   UNL     1      34.923 -19.694 -23.267  0.00  0.00    -0.270 OA
ATOM      2  N   UNL     1      35.193 -17.796 -21.904  0.00  0.00    -0.280 N 
ATOM      3  C   UNL     1      35.155 -19.169 -22.184  0.00  0.00    +0.249 C 
ATOM      4  H   UNL     1      35.397 -17.551 -20.973  0.00  0.00    +0.155 HD
ENDROOT
BRANCH   2  13
ATOM      5  N   UNL     1      33.434 -12.199 -23.528  0.00  0.00    -0.274 NA
ATOM      6  C   UNL     1      34.098 -14.536 -23.235  0.00  0.00    +0.010 C 
ATOM      7  C   UNL     1      33.370 -13.299 -22.853  0.00  0.00    +0.053 C 
ATOM      8  C   UNL     1      34.566 -14.611 -24.553  0.00  0.00    -0.019 C 
ATOM      9  C   UNL     1      34.293 -13.466 -25.481  0.00  0.00    +0.053 C 
ATOM     10  C   UNL     1      34.323 -12.162 -24.694  0.00  0.00    +0.130 C 
ATOM     11  C   UNL     1      34.308 -15.593 -22.347  0.00  0.00    +0.016 C 
ATOM     12  C   UNL     1      35.223 -15.767 -24.987  0.00  0.00    -0.003 C 
ATOM     13  C   UNL     1      34.980 -16.736 -22.785  0.00  0.00    +0.051 C 
ATOM     14  C   UNL     1      35.432 -16.823 -24.102  0.00  0.00    +0.014 C 
BRANCH   7  15
ATOM     15  C   UNL     1      32.504 -13.318 -21.617  0.00  0.00    +0.040 C 
ATOM     16  C   UNL     1      33.390 -13.548 -20.406  0.00  0.00    +0.006 C 
ATOM     17  C   UNL     1      31.740 -12.009 -21.523  0.00  0.00    +0.006 C 
ENDBRANCH   7  15
ENDBRANCH   2  13
BRANCH   3  18
ATOM     18  C   UNL     1      35.400 -20.063 -21.020  0.00  0.00    +0.054 C 
ATOM     19  C   UNL     1      34.550 -21.596 -19.374  0.00  0.00    +0.000 C 
ATOM     20  C   UNL     1      35.858 -21.732 -18.850  0.00  0.00    +0.000 C 
ATOM     21  C   UNL     1      34.335 -20.749 -20.474  0.00  0.00    +0.005 C 
ATOM     22  C   UNL     1      36.680 -20.176 -20.530  0.00  0.00    +0.005 C 
ATOM     23  C   UNL     1      36.913 -21.014 -19.439  0.00  0.00    +0.000 C 
ATOM     24  C   UNL     1      36.073 -22.579 -17.751  0.00  0.00    +0.003 C 
ATOM     25  C   UNL     1      33.497 -22.314 -18.785  0.00  0.00    +0.000 C 
ATOM     26  C   UNL     1      35.014 -23.285 -17.178  0.00  0.00    +0.031 C 
ATOM     27  C   UNL     1      33.728 -23.152 -17.694  0.00  0.00    +0.003 C 
BRANCH  26  30
ATOM     28  N   UNL     1      34.236 -24.475 -15.143  0.00  0.00    -0.343 N 
ATOM     29  N   UNL     1      36.457 -24.667 -15.844  0.00  0.00    -0.285 NA
ATOM     30  C   UNL     1      35.253 -24.159 -16.041  0.00  0.00    +0.117 C 
ATOM     31  H   UNL     1      34.420 -25.070 -14.380  0.00  0.00    +0.144 HD
ATOM     32  H   UNL     1      33.333 -24.104 -15.271  0.00  0.00    +0.144 HD
ATOM     33  H   UNL     1      36.622 -25.259 -15.074  0.00  0.00    +0.188 HD
ENDBRANCH  26  30
ENDBRANCH   3  18
TORSDOF 4
ENDMDL
MODEL 8
REMARK VINA RESULT:     -10.8      2.724      4.811
REMARK  Name = 447735
REMARK  4 active torsions:
REMARK  status: ('A' for Active; 'I' for Inactive)
REMARK    1  A    between atoms: N_2  and  C_13
REMARK    2  A    between atoms: C_3  and  C_18
REMARK    3  A    between atoms: C_7  and  C_15
REMARK    4  A    between atoms: C_26  and  C_30
REMARK                            x       y       z     vdW  Elec       q    Type
REMARK                         _______ _______ _______ _____ _____    ______ ____
ROOT
ATOM      1  O   UNL     1      37.693 -19.533 -20.257  0.00  0.00    -0.270 OA
ATOM      2  N   UNL     1      35.665 -20.681 -19.944  0.00  0.00    -0.280 N 
ATOM      3  C   UNL     1      36.538 -19.788 -20.580  0.00  0.00    +0.249 C 
ATOM      4  H   UNL     1      34.768 -20.763 -20.341  0.00  0.00    +0.155 HD
ENDROOT
BRANCH   2  13
ATOM      5  N   UNL     1      34.221 -24.405 -15.350  0.00  0.00    -0.274 NA
ATOM      6  C   UNL     1      35.102 -22.822 -16.994  0.00  0.00    +0.010 C 
ATOM      7  C   UNL     1      34.021 -23.437 -16.182  0.00  0.00    +0.053 C 
ATOM      8  C   UNL     1      36.418 -23.054 -16.574  0.00  0.00    -0.019 C 
ATOM      9  C   UNL     1      36.646 -23.881 -15.344  0.00  0.00    +0.053 C 
ATOM     10  C   UNL     1      35.575 -24.960 -15.258  0.00  0.00    +0.130 C 
ATOM     11  C   UNL     1      34.846 -22.034 -18.119  0.00  0.00    +0.016 C 
ATOM     12  C   UNL     1      37.479 -22.469 -17.273  0.00  0.00    -0.003 C 
ATOM     13  C   UNL     1      35.913 -21.468 -18.819  0.00  0.00    +0.051 C 
ATOM     14  C   UNL     1      37.224 -21.682 -18.395  0.00  0.00    +0.014 C 
BRANCH   7  15
ATOM     15  C   UNL     1      32.615 -22.907 -16.322  0.00  0.00    +0.040 C 
ATOM     16  C   UNL     1      31.814 -23.878 -17.171  0.00  0.00    +0.006 C 
ATOM     17  C   UNL     1      32.010 -22.725 -14.942  0.00  0.00    +0.006 C 
ENDBRANCH   7  15
ENDBRANCH   2  13
BRANCH   3  18
ATOM     18  C   UNL     1      35.972 -19.067 -21.750  0.00  0.00    +0.054 C 
ATOM     19  C   UNL     1      35.315 -16.999 -22.788  0.00  0.00    +0.000 C 
ATOM     20  C   UNL     1      34.915 -17.722 -23.936  0.00  0.00    +0.000 C 
ATOM     21  C   UNL     1      35.849 -17.694 -21.690  0.00  0.00    +0.005 C 
ATOM     22  C   UNL     1      35.590 -19.794 -22.854  0.00  0.00    +0.005 C 
ATOM     23  C   UNL     1      35.058 -19.120 -23.954  0.00  0.00    +0.000 C 
ATOM     24  C   UNL     1      34.381 -17.027 -25.034  0.00  0.00    +0.003 C 
ATOM     25  C   UNL     1      35.171 -15.603 -22.771  0.00  0.00    +0.000 C 
ATOM     26  C   UNL     1      34.245 -15.639 -25.000  0.00  0.00    +0.031 C 
ATOM     27  C   UNL     1      34.639 -14.928 -23.870  0.00  0.00    +0.003 C 
BRANCH  26  30
ATOM     28  N   UNL     1      33.047 -13.707 -25.998  0.00  0.00    -0.343 N 
ATOM     29  N   UNL     1      33.793 -15.460 -27.353  0.00  0.00    -0.285 NA
ATOM     30  C   UNL     1      33.692 -14.934 -26.144  0.00  0.00    +0.117 C 
ATOM     31  H   UNL     1      32.680 -13.247 -26.788  0.00  0.00    +0.144 HD
ATOM     32  H   UNL     1      32.959 -13.300 -25.106  0.00  0.00    +0.144 HD
ATOM     33  H   UNL     1      33.418 -14.984 -28.130  0.00  0.00    +0.188 HD
ENDBRANCH  26  30
ENDBRANCH   3  18
TORSDOF 4
ENDMDL
MODEL 9
REMARK VINA RESULT:     -10.5      1.822      3.717
REMARK  Name = 447735
REMARK  4 active torsions:
REMARK  status: ('A' for Active; 'I' for Inactive)
REMARK    1  A    between atoms: N_2  and  C_13
REMARK    2  A    between atoms: C_3  and  C_18
REMARK    3  A    between atoms: C_7  and  C_15
REMARK    4  A    between atoms: C_26  and  C_30
REMARK                            x       y       z     vdW  Elec       q    Type
REMARK                         _______ _______ _______ _____ _____    ______ ____
ROOT
ATOM      1  O   UNL     1      35.658 -22.705 -20.091  0.00  0.00    -0.270 OA
ATOM      2  N   UNL     1      36.573 -21.238 -18.498  0.00  0.00    -0.280 N 
ATOM      3  C   UNL     1      36.051 -21.596 -19.748  0.00  0.00    +0.249 C 
ATOM      4  H   UNL     1      36.841 -20.297 -18.396  0.00  0.00    +0.155 HD
ENDROOT
BRANCH   2  13
ATOM      5  N   UNL     1      34.847 -24.933 -13.978  0.00  0.00    -0.274 NA
ATOM      6  C   UNL     1      35.843 -23.381 -15.587  0.00  0.00    +0.010 C 
ATOM      7  C   UNL     1      34.716 -23.945 -14.800  0.00  0.00    +0.053 C 
ATOM      8  C   UNL     1      37.137 -23.692 -15.149  0.00  0.00    -0.019 C 
ATOM      9  C   UNL     1      37.298 -24.546 -13.927  0.00  0.00    +0.053 C 
ATOM     10  C   UNL     1      36.167 -25.565 -13.872  0.00  0.00    +0.130 C 
ATOM     11  C   UNL     1      35.650 -22.567 -16.705  0.00  0.00    +0.016 C 
ATOM     12  C   UNL     1      38.240 -23.159 -15.823  0.00  0.00    -0.003 C 
ATOM     13  C   UNL     1      36.758 -22.053 -17.380  0.00  0.00    +0.051 C 
ATOM     14  C   UNL     1      38.048 -22.345 -16.939  0.00  0.00    +0.014 C 
BRANCH   7  15
ATOM     15  C   UNL     1      33.344 -23.335 -14.955  0.00  0.00    +0.040 C 
ATOM     16  C   UNL     1      32.752 -23.803 -16.272  0.00  0.00    +0.006 C 
ATOM     17  C   UNL     1      32.484 -23.734 -13.770  0.00  0.00    +0.006 C 
ENDBRANCH   7  15
ENDBRANCH   2  13
BRANCH   3  18
ATOM     18  C   UNL     1      36.004 -20.503 -20.755  0.00  0.00    +0.054 C 
ATOM     19  C   UNL     1      35.042 -19.569 -22.751  0.00  0.00    +0.000 C 
ATOM     20  C   UNL     1      35.916 -18.462 -22.634  0.00  0.00    +0.000 C 
ATOM     21  C   UNL     1      35.098 -20.593 -21.792  0.00  0.00    +0.005 C 
ATOM     22  C   UNL     1      36.865 -19.439 -20.618  0.00  0.00    +0.005 C 
ATOM     23  C   UNL     1      36.822 -18.411 -21.562  0.00  0.00    +0.000 C 
ATOM     24  C   UNL     1      35.859 -17.438 -23.594  0.00  0.00    +0.003 C 
ATOM     25  C   UNL     1      34.137 -19.617 -23.823  0.00  0.00    +0.000 C 
ATOM     26  C   UNL     1      34.953 -17.503 -24.653  0.00  0.00    +0.031 C 
ATOM     27  C   UNL     1      34.094 -18.592 -24.767  0.00  0.00    +0.003 C 
BRANCH  26  30
ATOM     28  N   UNL     1      35.884 -15.442 -25.677  0.00  0.00    -0.343 N 
ATOM     29  N   UNL     1      33.919 -16.391 -26.515  0.00  0.00    -0.285 NA
ATOM     30  C   UNL     1      34.907 -16.434 -25.637  0.00  0.00    +0.117 C 
ATOM     31  H   UNL     1      35.832 -14.728 -26.353  0.00  0.00    +0.144 HD
ATOM     32  H   UNL     1      36.626 -15.455 -25.030  0.00  0.00    +0.144 HD
ATOM     33  H   UNL     1      33.885 -15.667 -27.182  0.00  0.00    +0.188 HD
ENDBRANCH  26  30
ENDBRANCH   3  18
TORSDOF 4
ENDMDL
