MODEL 1
REMARK VINA RESULT:     -12.1      0.000      0.000
REMARK  Name = 11952989
REMARK  5 active torsions:
REMARK  status: ('A' for Active; 'I' for Inactive)
REMARK    1  A    between atoms: C_4  and  C_21
REMARK    2  A    between atoms: C_6  and  C_11
REMARK    3  A    between atoms: C_24  and  C_27
REMARK    4  A    between atoms: C_27  and  C_29
REMARK    5  A    between atoms: C_29  and  O_30
REMARK                            x       y       z     vdW  Elec       q    Type
REMARK                         _______ _______ _______ _____ _____    ______ ____
ROOT
ATOM      1  N   UNL     1      33.055 -25.372 -13.992  0.00  0.00    -0.297 N 
ATOM      2  N   UNL     1      35.068 -24.699 -15.132  0.00  0.00    -0.229 NA
ATOM      3  C   UNL     1      32.806 -23.922 -15.671  0.00  0.00    +0.033 C 
ATOM      4  C   UNL     1      31.529 -24.206 -15.116  0.00  0.00    +0.017 C 
ATOM      5  C   UNL     1      33.735 -24.664 -14.948  0.00  0.00    +0.132 C 
ATOM      6  C   UNL     1      34.665 -23.113 -16.944  0.00  0.00    +0.019 C 
ATOM      7  C   UNL     1      33.292 -23.113 -16.711  0.00  0.00    +0.004 C 
ATOM      8  C   UNL     1      31.715 -25.102 -14.085  0.00  0.00    +0.063 C 
ATOM      9  C   UNL     1      35.481 -23.903 -16.145  0.00  0.00    +0.100 C 
ATOM     10  H   UNL     1      33.467 -25.983 -13.338  0.00  0.00    +0.154 HD
ENDROOT
BRANCH   6  11
ATOM     11  C   UNL     1      35.231 -22.303 -18.001  0.00  0.00    +0.001 C 
ATOM     12  C   UNL     1      34.943 -21.024 -20.050  0.00  0.00    +0.000 C 
ATOM     13  C   UNL     1      34.410 -21.812 -19.017  0.00  0.00    +0.000 C 
ATOM     14  C   UNL     1      36.328 -20.731 -20.054  0.00  0.00    +0.000 C 
ATOM     15  C   UNL     1      36.592 -22.016 -18.004  0.00  0.00    +0.000 C 
ATOM     16  C   UNL     1      37.139 -21.234 -19.023  0.00  0.00    +0.000 C 
ATOM     17  C   UNL     1      34.132 -20.521 -21.081  0.00  0.00    +0.000 C 
ATOM     18  C   UNL     1      36.861 -19.944 -21.087  0.00  0.00    +0.000 C 
ATOM     19  C   UNL     1      34.680 -19.741 -22.100  0.00  0.00    +0.000 C 
ATOM     20  C   UNL     1      36.041 -19.452 -22.103  0.00  0.00    +0.000 C 
ENDBRANCH   6  11
BRANCH   4  21
ATOM     21  C   UNL     1      30.234 -23.713 -15.483  0.00  0.00    +0.001 C 
ATOM     22  C   UNL     1      29.773 -22.502 -14.962  0.00  0.00    -0.000 C 
ATOM     23  C   UNL     1      29.431 -24.441 -16.362  0.00  0.00    -0.000 C 
ATOM     24  C   UNL     1      27.713 -22.752 -16.198  0.00  0.00    -0.011 C 
ATOM     25  C   UNL     1      28.514 -22.023 -15.319  0.00  0.00    -0.004 C 
ATOM     26  C   UNL     1      28.171 -23.962 -16.719  0.00  0.00    -0.004 C 
BRANCH  24  27
ATOM     27  C   UNL     1      26.366 -22.236 -16.582  0.00  0.00    +0.136 C 
BRANCH  27  29
ATOM     28  O   UNL     1      26.327 -22.254 -19.016  0.00  0.00    -0.250 OA
ATOM     29  C   UNL     1      26.326 -21.624 -17.967  0.00  0.00    +0.318 C 
BRANCH  29  30
ATOM     30  O   UNL     1      26.288 -20.266 -17.920  0.00  0.00    -0.480 OA
ATOM     31  H   UNL     1      26.995 -19.791 -17.527  0.00  0.00    +0.295 HD
ENDBRANCH  29  30
ENDBRANCH  27  29
ENDBRANCH  24  27
ENDBRANCH   4  21
TORSDOF 5
ENDMDL
MODEL 2
REMARK VINA RESULT:     -12.0      7.183     10.835
REMARK  Name = 11952989
REMARK  5 active torsions:
REMARK  status: ('A' for Active; 'I' for Inactive)
REMARK    1  A    between atoms: C_4  and  C_21
REMARK    2  A    between atoms: C_6  and  C_11
REMARK    3  A    between atoms: C_24  and  C_27
REMARK    4  A    between atoms: C_27  and  C_29
REMARK    5  A    between atoms: C_29  and  O_30
REMARK                            x       y       z     vdW  Elec       q    Type
REMARK                         _______ _______ _______ _____ _____    ______ ____
ROOT
ATOM      1  N   UNL     1      34.109 -14.515 -26.219  0.00  0.00    -0.297 N 
ATOM      2  N   UNL     1      35.145 -16.658 -25.851  0.00  0.00    -0.229 NA
ATOM      3  C   UNL     1      34.187 -15.228 -24.105  0.00  0.00    +0.033 C 
ATOM      4  C   UNL     1      33.548 -13.960 -24.139  0.00  0.00    +0.017 C 
ATOM      5  C   UNL     1      34.524 -15.546 -25.418  0.00  0.00    +0.132 C 
ATOM      6  C   UNL     1      35.169 -17.327 -23.503  0.00  0.00    +0.019 C 
ATOM      7  C   UNL     1      34.523 -16.158 -23.108  0.00  0.00    +0.004 C 
ATOM      8  C   UNL     1      33.515 -13.546 -25.454  0.00  0.00    +0.063 C 
ATOM      9  C   UNL     1      35.446 -17.518 -24.849  0.00  0.00    +0.100 C 
ATOM     10  H   UNL     1      34.221 -14.476 -27.198  0.00  0.00    +0.154 HD
ENDROOT
BRANCH   6  11
ATOM     11  C   UNL     1      35.543 -18.325 -22.525  0.00  0.00    +0.001 C 
ATOM     12  C   UNL     1      34.915 -20.128 -21.016  0.00  0.00    +0.000 C 
ATOM     13  C   UNL     1      34.569 -19.154 -21.967  0.00  0.00    +0.000 C 
ATOM     14  C   UNL     1      36.269 -20.263 -20.626  0.00  0.00    +0.000 C 
ATOM     15  C   UNL     1      36.874 -18.458 -22.142  0.00  0.00    +0.000 C 
ATOM     16  C   UNL     1      37.237 -19.421 -21.199  0.00  0.00    +0.000 C 
ATOM     17  C   UNL     1      33.948 -20.970 -20.444  0.00  0.00    +0.000 C 
ATOM     18  C   UNL     1      36.615 -21.237 -19.675  0.00  0.00    +0.000 C 
ATOM     19  C   UNL     1      34.311 -21.932 -19.501  0.00  0.00    +0.000 C 
ATOM     20  C   UNL     1      35.642 -22.065 -19.117  0.00  0.00    +0.000 C 
ENDBRANCH   6  11
BRANCH   4  21
ATOM     21  C   UNL     1      33.006 -13.171 -23.071  0.00  0.00    +0.001 C 
ATOM     22  C   UNL     1      32.789 -11.804 -23.252  0.00  0.00    -0.000 C 
ATOM     23  C   UNL     1      32.694 -13.769 -21.849  0.00  0.00    -0.000 C 
ATOM     24  C   UNL     1      31.950 -11.638 -20.992  0.00  0.00    -0.011 C 
ATOM     25  C   UNL     1      32.261 -11.039 -22.212  0.00  0.00    -0.004 C 
ATOM     26  C   UNL     1      32.167 -13.004 -20.810  0.00  0.00    -0.004 C 
BRANCH  24  27
ATOM     27  C   UNL     1      31.383 -10.817 -19.882  0.00  0.00    +0.136 C 
BRANCH  27  29
ATOM     28  O   UNL     1      31.944  -8.461 -19.630  0.00  0.00    -0.250 OA
ATOM     29  C   UNL     1      32.253  -9.638 -19.497  0.00  0.00    +0.318 C 
BRANCH  29  30
ATOM     30  O   UNL     1      33.444 -10.035 -18.975  0.00  0.00    -0.480 OA
ATOM     31  H   UNL     1      34.189  -9.469 -19.024  0.00  0.00    +0.295 HD
ENDBRANCH  29  30
ENDBRANCH  27  29
ENDBRANCH  24  27
ENDBRANCH   4  21
TORSDOF 5
ENDMDL
MODEL 3
REMARK VINA RESULT:     -11.8      4.917      7.221
REMARK  Name = 11952989
REMARK  5 active torsions:
REMARK  status: ('A' for Active; 'I' for Inactive)
REMARK    1  A    between atoms: C_4  and  C_21
REMARK    2  A    between atoms: C_6  and  C_11
REMARK    3  A    between atoms: C_24  and  C_27
REMARK    4  A    between atoms: C_27  and  C_29
REMARK    5  A    between atoms: C_29  and  O_30
REMARK                            x       y       z     vdW  Elec       q    Type
REMARK                         _______ _______ _______ _____ _____    ______ ____
ROOT
ATOM      1  N   UNL     1      32.243 -24.218 -15.927  0.00  0.00    -0.297 N 
ATOM      2  N   UNL     1      32.091 -22.785 -17.857  0.00  0.00    -0.229 NA
ATOM      3  C   UNL     1      34.175 -23.484 -16.770  0.00  0.00    +0.033 C 
ATOM      4  C   UNL     1      34.449 -24.309 -15.647  0.00  0.00    +0.017 C 
ATOM      5  C   UNL     1      32.792 -23.449 -16.918  0.00  0.00    +0.132 C 
ATOM      6  C   UNL     1      34.267 -22.050 -18.686  0.00  0.00    +0.019 C 
ATOM      7  C   UNL     1      34.943 -22.755 -17.693  0.00  0.00    +0.004 C 
ATOM      8  C   UNL     1      33.240 -24.747 -15.148  0.00  0.00    +0.063 C 
ATOM      9  C   UNL     1      32.880 -22.101 -18.718  0.00  0.00    +0.100 C 
ATOM     10  H   UNL     1      31.279 -24.370 -15.793  0.00  0.00    +0.154 HD
ENDROOT
BRANCH   6  11
ATOM     11  C   UNL     1      34.999 -21.278 -19.666  0.00  0.00    +0.001 C 
ATOM     12  C   UNL     1      35.023 -19.974 -21.720  0.00  0.00    +0.000 C 
ATOM     13  C   UNL     1      34.329 -20.726 -20.758  0.00  0.00    +0.000 C 
ATOM     14  C   UNL     1      36.418 -19.780 -21.571  0.00  0.00    +0.000 C 
ATOM     15  C   UNL     1      36.369 -21.088 -19.520  0.00  0.00    +0.000 C 
ATOM     16  C   UNL     1      37.076 -20.344 -20.466  0.00  0.00    +0.000 C 
ATOM     17  C   UNL     1      34.366 -19.410 -22.826  0.00  0.00    +0.000 C 
ATOM     18  C   UNL     1      37.113 -19.029 -22.533  0.00  0.00    +0.000 C 
ATOM     19  C   UNL     1      35.074 -18.667 -23.771  0.00  0.00    +0.000 C 
ATOM     20  C   UNL     1      36.444 -18.476 -23.626  0.00  0.00    +0.000 C 
ENDBRANCH   6  11
BRANCH   4  21
ATOM     21  C   UNL     1      35.703 -24.680 -15.058  0.00  0.00    +0.001 C 
ATOM     22  C   UNL     1      36.287 -25.908 -15.374  0.00  0.00    -0.000 C 
ATOM     23  C   UNL     1      36.342 -23.814 -14.170  0.00  0.00    -0.000 C 
ATOM     24  C   UNL     1      38.145 -25.401 -13.914  0.00  0.00    -0.011 C 
ATOM     25  C   UNL     1      37.507 -26.267 -14.802  0.00  0.00    -0.004 C 
ATOM     26  C   UNL     1      37.561 -24.174 -13.598  0.00  0.00    -0.004 C 
BRANCH  24  27
ATOM     27  C   UNL     1      39.451 -25.786 -13.305  0.00  0.00    +0.136 C 
BRANCH  27  29
ATOM     28  O   UNL     1      40.877 -24.826 -15.029  0.00  0.00    -0.250 OA
ATOM     29  C   UNL     1      40.606 -25.759 -14.286  0.00  0.00    +0.318 C 
BRANCH  29  30
ATOM     30  O   UNL     1      41.327 -26.911 -14.250  0.00  0.00    -0.480 OA
ATOM     31  H   UNL     1      41.943 -27.056 -13.559  0.00  0.00    +0.295 HD
ENDBRANCH  29  30
ENDBRANCH  27  29
ENDBRANCH  24  27
ENDBRANCH   4  21
TORSDOF 5
ENDMDL
MODEL 4
REMARK VINA RESULT:     -11.5     10.889     14.218
REMARK  Name = 11952989
REMARK  5 active torsions:
REMARK  status: ('A' for Active; 'I' for Inactive)
REMARK    1  A    between atoms: C_4  and  C_21
REMARK    2  A    between atoms: C_6  and  C_11
REMARK    3  A    between atoms: C_24  and  C_27
REMARK    4  A    between atoms: C_27  and  C_29
REMARK    5  A    between atoms: C_29  and  O_30
REMARK                            x       y       z     vdW  Elec       q    Type
REMARK                         _______ _______ _______ _____ _____    ______ ____
ROOT
ATOM      1  N   UNL     1      31.852 -12.223 -19.238  0.00  0.00    -0.297 N 
ATOM      2  N   UNL     1      31.490  -9.863 -19.555  0.00  0.00    -0.229 NA
ATOM      3  C   UNL     1      32.498 -11.376 -21.200  0.00  0.00    +0.033 C 
ATOM      4  C   UNL     1      32.782 -12.768 -21.184  0.00  0.00    +0.017 C 
ATOM      5  C   UNL     1      31.918 -11.069 -19.972  0.00  0.00    +0.132 C 
ATOM      6  C   UNL     1      32.236  -9.057 -21.735  0.00  0.00    +0.019 C 
ATOM      7  C   UNL     1      32.663 -10.327 -22.118  0.00  0.00    +0.004 C 
ATOM      8  C   UNL     1      32.374 -13.262 -19.964  0.00  0.00    +0.063 C 
ATOM      9  C   UNL     1      31.673  -8.890 -20.478  0.00  0.00    +0.100 C 
ATOM     10  H   UNL     1      31.484 -12.296 -18.326  0.00  0.00    +0.154 HD
ENDROOT
BRANCH   6  11
ATOM     11  C   UNL     1      32.378  -7.933 -22.634  0.00  0.00    +0.001 C 
ATOM     12  C   UNL     1      33.729  -6.655 -24.203  0.00  0.00    +0.000 C 
ATOM     13  C   UNL     1      33.574  -7.741 -23.327  0.00  0.00    +0.000 C 
ATOM     14  C   UNL     1      32.654  -5.750 -24.379  0.00  0.00    +0.000 C 
ATOM     15  C   UNL     1      31.322  -7.043 -22.808  0.00  0.00    +0.000 C 
ATOM     16  C   UNL     1      31.457  -5.958 -23.674  0.00  0.00    +0.000 C 
ATOM     17  C   UNL     1      34.926  -6.446 -24.908  0.00  0.00    +0.000 C 
ATOM     18  C   UNL     1      32.809  -4.663 -25.256  0.00  0.00    +0.000 C 
ATOM     19  C   UNL     1      35.060  -5.360 -25.774  0.00  0.00    +0.000 C 
ATOM     20  C   UNL     1      34.005  -4.470 -25.948  0.00  0.00    +0.000 C 
ENDBRANCH   6  11
BRANCH   4  21
ATOM     21  C   UNL     1      33.379 -13.598 -22.189  0.00  0.00    +0.001 C 
ATOM     22  C   UNL     1      34.323 -14.562 -21.830  0.00  0.00    -0.000 C 
ATOM     23  C   UNL     1      33.017 -13.445 -23.528  0.00  0.00    -0.000 C 
ATOM     24  C   UNL     1      34.540 -15.215 -24.146  0.00  0.00    -0.011 C 
ATOM     25  C   UNL     1      34.902 -15.370 -22.808  0.00  0.00    -0.004 C 
ATOM     26  C   UNL     1      33.597 -14.252 -24.506  0.00  0.00    -0.004 C 
BRANCH  24  27
ATOM     27  C   UNL     1      35.159 -16.082 -25.191  0.00  0.00    +0.136 C 
BRANCH  27  29
ATOM     28  O   UNL     1      34.661 -18.437 -24.828  0.00  0.00    -0.250 OA
ATOM     29  C   UNL     1      34.421 -17.387 -25.408  0.00  0.00    +0.318 C 
BRANCH  29  30
ATOM     30  O   UNL     1      33.439 -17.265 -26.340  0.00  0.00    -0.480 OA
ATOM     31  H   UNL     1      33.643 -17.356 -27.251  0.00  0.00    +0.295 HD
ENDBRANCH  29  30
ENDBRANCH  27  29
ENDBRANCH  24  27
ENDBRANCH   4  21
TORSDOF 5
ENDMDL
MODEL 5
REMARK VINA RESULT:     -11.2     11.125     14.359
REMARK  Name = 11952989
REMARK  5 active torsions:
REMARK  status: ('A' for Active; 'I' for Inactive)
REMARK    1  A    between atoms: C_4  and  C_21
REMARK    2  A    between atoms: C_6  and  C_11
REMARK    3  A    between atoms: C_24  and  C_27
REMARK    4  A    between atoms: C_27  and  C_29
REMARK    5  A    between atoms: C_29  and  O_30
REMARK                            x       y       z     vdW  Elec       q    Type
REMARK                         _______ _______ _______ _____ _____    ______ ____
ROOT
ATOM      1  N   UNL     1      31.793 -12.156 -19.299  0.00  0.00    -0.297 N 
ATOM      2  N   UNL     1      31.590  -9.776 -19.612  0.00  0.00    -0.229 NA
ATOM      3  C   UNL     1      32.601 -11.336 -21.211  0.00  0.00    +0.033 C 
ATOM      4  C   UNL     1      32.802 -12.742 -21.193  0.00  0.00    +0.017 C 
ATOM      5  C   UNL     1      31.970 -11.003 -20.016  0.00  0.00    +0.132 C 
ATOM      6  C   UNL     1      32.508  -9.002 -21.737  0.00  0.00    +0.019 C 
ATOM      7  C   UNL     1      32.881 -10.291 -22.107  0.00  0.00    +0.004 C 
ATOM      8  C   UNL     1      32.294 -13.219 -20.004  0.00  0.00    +0.063 C 
ATOM      9  C   UNL     1      31.883  -8.810 -20.513  0.00  0.00    +0.100 C 
ATOM     10  H   UNL     1      31.369 -12.213 -18.411  0.00  0.00    +0.154 HD
ENDROOT
BRANCH   6  11
ATOM     11  C   UNL     1      32.769  -7.881 -22.615  0.00  0.00    +0.001 C 
ATOM     12  C   UNL     1      32.110  -5.717 -23.511  0.00  0.00    +0.000 C 
ATOM     13  C   UNL     1      31.873  -6.813 -22.664  0.00  0.00    +0.000 C 
ATOM     14  C   UNL     1      33.272  -5.706 -24.319  0.00  0.00    +0.000 C 
ATOM     15  C   UNL     1      33.911  -7.871 -23.409  0.00  0.00    +0.000 C 
ATOM     16  C   UNL     1      34.163  -6.791 -24.256  0.00  0.00    +0.000 C 
ATOM     17  C   UNL     1      31.219  -4.633 -23.574  0.00  0.00    +0.000 C 
ATOM     18  C   UNL     1      33.509  -4.611 -25.166  0.00  0.00    +0.000 C 
ATOM     19  C   UNL     1      31.472  -3.554 -24.421  0.00  0.00    +0.000 C 
ATOM     20  C   UNL     1      32.614  -3.542 -25.216  0.00  0.00    +0.000 C 
ENDBRANCH   6  11
BRANCH   4  21
ATOM     21  C   UNL     1      33.406 -13.599 -22.171  0.00  0.00    +0.001 C 
ATOM     22  C   UNL     1      33.084 -13.456 -23.521  0.00  0.00    -0.000 C 
ATOM     23  C   UNL     1      34.319 -14.578 -21.774  0.00  0.00    -0.000 C 
ATOM     24  C   UNL     1      34.585 -15.268 -24.073  0.00  0.00    -0.011 C 
ATOM     25  C   UNL     1      33.673 -14.290 -24.471  0.00  0.00    -0.004 C 
ATOM     26  C   UNL     1      34.907 -15.412 -22.724  0.00  0.00    -0.004 C 
BRANCH  24  27
ATOM     27  C   UNL     1      35.216 -16.157 -25.091  0.00  0.00    +0.136 C 
BRANCH  27  29
ATOM     28  O   UNL     1      34.579 -18.490 -24.799  0.00  0.00    -0.250 OA
ATOM     29  C   UNL     1      34.421 -17.418 -25.368  0.00  0.00    +0.318 C 
BRANCH  29  30
ATOM     30  O   UNL     1      33.489 -17.226 -26.339  0.00  0.00    -0.480 OA
ATOM     31  H   UNL     1      33.749 -17.205 -27.240  0.00  0.00    +0.295 HD
ENDBRANCH  29  30
ENDBRANCH  27  29
ENDBRANCH  24  27
ENDBRANCH   4  21
TORSDOF 5
ENDMDL
MODEL 6
REMARK VINA RESULT:     -11.2      1.773      3.261
REMARK  Name = 11952989
REMARK  5 active torsions:
REMARK  status: ('A' for Active; 'I' for Inactive)
REMARK    1  A    between atoms: C_4  and  C_21
REMARK    2  A    between atoms: C_6  and  C_11
REMARK    3  A    between atoms: C_24  and  C_27
REMARK    4  A    between atoms: C_27  and  C_29
REMARK    5  A    between atoms: C_29  and  O_30
REMARK                            x       y       z     vdW  Elec       q    Type
REMARK                         _______ _______ _______ _____ _____    ______ ____
ROOT
ATOM      1  N   UNL     1      36.693 -23.939 -14.775  0.00  0.00    -0.297 N 
ATOM      2  N   UNL     1      37.682 -22.692 -16.582  0.00  0.00    -0.229 NA
ATOM      3  C   UNL     1      35.292 -23.182 -16.339  0.00  0.00    +0.033 C 
ATOM      4  C   UNL     1      34.546 -23.888 -15.358  0.00  0.00    +0.017 C 
ATOM      5  C   UNL     1      36.626 -23.232 -15.946  0.00  0.00    +0.132 C 
ATOM      6  C   UNL     1      36.052 -21.918 -18.226  0.00  0.00    +0.019 C 
ATOM      7  C   UNL     1      34.994 -22.496 -17.528  0.00  0.00    +0.004 C 
ATOM      8  C   UNL     1      35.435 -24.342 -14.408  0.00  0.00    +0.063 C 
ATOM      9  C   UNL     1      37.338 -22.044 -17.719  0.00  0.00    +0.100 C 
ATOM     10  H   UNL     1      37.519 -24.129 -14.272  0.00  0.00    +0.154 HD
ENDROOT
BRANCH   6  11
ATOM     11  C   UNL     1      35.812 -21.198 -19.458  0.00  0.00    +0.001 C 
ATOM     12  C   UNL     1      36.626 -19.754 -21.239  0.00  0.00    +0.000 C 
ATOM     13  C   UNL     1      36.841 -20.459 -20.043  0.00  0.00    +0.000 C 
ATOM     14  C   UNL     1      35.349 -19.800 -21.849  0.00  0.00    +0.000 C 
ATOM     15  C   UNL     1      34.558 -21.244 -20.058  0.00  0.00    +0.000 C 
ATOM     16  C   UNL     1      34.326 -20.550 -21.246  0.00  0.00    +0.000 C 
ATOM     17  C   UNL     1      37.649 -19.004 -21.842  0.00  0.00    +0.000 C 
ATOM     18  C   UNL     1      35.134 -19.095 -23.045  0.00  0.00    +0.000 C 
ATOM     19  C   UNL     1      37.416 -18.310 -23.030  0.00  0.00    +0.000 C 
ATOM     20  C   UNL     1      36.162 -18.355 -23.630  0.00  0.00    +0.000 C 
ENDBRANCH   6  11
BRANCH   4  21
ATOM     21  C   UNL     1      33.137 -24.140 -15.276  0.00  0.00    +0.001 C 
ATOM     22  C   UNL     1      32.637 -25.003 -14.300  0.00  0.00    -0.000 C 
ATOM     23  C   UNL     1      32.263 -23.521 -16.171  0.00  0.00    -0.000 C 
ATOM     24  C   UNL     1      30.394 -24.629 -15.116  0.00  0.00    -0.011 C 
ATOM     25  C   UNL     1      31.267 -25.248 -14.221  0.00  0.00    -0.004 C 
ATOM     26  C   UNL     1      30.892 -23.766 -16.092  0.00  0.00    -0.004 C 
BRANCH  24  27
ATOM     27  C   UNL     1      28.928 -24.889 -15.028  0.00  0.00    +0.136 C 
BRANCH  27  29
ATOM     28  O   UNL     1      27.486 -23.106 -15.849  0.00  0.00    -0.250 OA
ATOM     29  C   UNL     1      28.117 -24.134 -16.062  0.00  0.00    +0.318 C 
BRANCH  29  30
ATOM     30  O   UNL     1      28.165 -24.733 -17.281  0.00  0.00    -0.480 OA
ATOM     31  H   UNL     1      27.832 -24.287 -18.035  0.00  0.00    +0.295 HD
ENDBRANCH  29  30
ENDBRANCH  27  29
ENDBRANCH  24  27
ENDBRANCH   4  21
TORSDOF 5
ENDMDL
MODEL 7
REMARK VINA RESULT:     -11.2      1.457      2.681
REMARK  Name = 11952989
REMARK  5 active torsions:
REMARK  status: ('A' for Active; 'I' for Inactive)
REMARK    1  A    between atoms: C_4  and  C_21
REMARK    2  A    between atoms: C_6  and  C_11
REMARK    3  A    between atoms: C_24  and  C_27
REMARK    4  A    between atoms: C_27  and  C_29
REMARK    5  A    between atoms: C_29  and  O_30
REMARK                            x       y       z     vdW  Elec       q    Type
REMARK                         _______ _______ _______ _____ _____    ______ ____
ROOT
ATOM      1  N   UNL     1      36.425 -24.009 -14.864  0.00  0.00    -0.297 N 
ATOM      2  N   UNL     1      37.789 -22.870 -16.489  0.00  0.00    -0.229 NA
ATOM      3  C   UNL     1      35.338 -22.890 -16.461  0.00  0.00    +0.033 C 
ATOM      4  C   UNL     1      34.387 -23.495 -15.595  0.00  0.00    +0.017 C 
ATOM      5  C   UNL     1      36.598 -23.229 -15.977  0.00  0.00    +0.132 C 
ATOM      6  C   UNL     1      36.487 -21.685 -18.181  0.00  0.00    +0.019 C 
ATOM      7  C   UNL     1      35.282 -22.084 -17.609  0.00  0.00    +0.004 C 
ATOM      8  C   UNL     1      35.086 -24.177 -14.622  0.00  0.00    +0.063 C 
ATOM      9  C   UNL     1      37.676 -22.095 -17.594  0.00  0.00    +0.100 C 
ATOM     10  H   UNL     1      37.152 -24.390 -14.319  0.00  0.00    +0.154 HD
ENDROOT
BRANCH   6  11
ATOM     11  C   UNL     1      36.499 -20.854 -19.366  0.00  0.00    +0.001 C 
ATOM     12  C   UNL     1      35.426 -20.106 -21.417  0.00  0.00    +0.000 C 
ATOM     13  C   UNL     1      35.431 -20.904 -20.261  0.00  0.00    +0.000 C 
ATOM     14  C   UNL     1      36.522 -19.244 -21.667  0.00  0.00    +0.000 C 
ATOM     15  C   UNL     1      37.576 -20.008 -19.611  0.00  0.00    +0.000 C 
ATOM     16  C   UNL     1      37.588 -19.207 -20.754  0.00  0.00    +0.000 C 
ATOM     17  C   UNL     1      34.359 -20.143 -22.330  0.00  0.00    +0.000 C 
ATOM     18  C   UNL     1      36.517 -18.446 -22.822  0.00  0.00    +0.000 C 
ATOM     19  C   UNL     1      34.373 -19.342 -23.472  0.00  0.00    +0.000 C 
ATOM     20  C   UNL     1      35.449 -18.495 -23.718  0.00  0.00    +0.000 C 
ENDBRANCH   6  11
BRANCH   4  21
ATOM     21  C   UNL     1      32.954 -23.467 -15.636  0.00  0.00    +0.001 C 
ATOM     22  C   UNL     1      32.217 -23.726 -14.480  0.00  0.00    -0.000 C 
ATOM     23  C   UNL     1      32.294 -23.181 -16.833  0.00  0.00    -0.000 C 
ATOM     24  C   UNL     1      30.165 -23.412 -15.717  0.00  0.00    -0.011 C 
ATOM     25  C   UNL     1      30.823 -23.698 -14.521  0.00  0.00    -0.004 C 
ATOM     26  C   UNL     1      30.901 -23.154 -16.873  0.00  0.00    -0.004 C 
BRANCH  24  27
ATOM     27  C   UNL     1      28.674 -23.380 -15.758  0.00  0.00    +0.136 C 
BRANCH  27  29
ATOM     28  O   UNL     1      27.937 -23.890 -18.022  0.00  0.00    -0.250 OA
ATOM     29  C   UNL     1      28.114 -23.069 -17.131  0.00  0.00    +0.318 C 
BRANCH  29  30
ATOM     30  O   UNL     1      27.820 -21.750 -17.272  0.00  0.00    -0.480 OA
ATOM     31  H   UNL     1      28.500 -21.108 -17.198  0.00  0.00    +0.295 HD
ENDBRANCH  29  30
ENDBRANCH  27  29
ENDBRANCH  24  27
ENDBRANCH   4  21
TORSDOF 5
ENDMDL
MODEL 8
REMARK VINA RESULT:     -10.9      6.131      9.753
REMARK  Name = 11952989
REMARK  5 active torsions:
REMARK  status: ('A' for Active; 'I' for Inactive)
REMARK    1  A    between atoms: C_4  and  C_21
REMARK    2  A    between atoms: C_6  and  C_11
REMARK    3  A    between atoms: C_24  and  C_27
REMARK    4  A    between atoms: C_27  and  C_29
REMARK    5  A    between atoms: C_29  and  O_30
REMARK                            x       y       z     vdW  Elec       q    Type
REMARK                         _______ _______ _______ _____ _____    ______ ____
ROOT
ATOM      1  N   UNL     1      35.547 -16.258 -25.009  0.00  0.00    -0.297 N 
ATOM      2  N   UNL     1      36.157 -18.483 -24.316  0.00  0.00    -0.229 NA
ATOM      3  C   UNL     1      34.960 -16.846 -22.937  0.00  0.00    +0.033 C 
ATOM      4  C   UNL     1      34.525 -15.515 -23.177  0.00  0.00    +0.017 C 
ATOM      5  C   UNL     1      35.593 -17.280 -24.098  0.00  0.00    +0.132 C 
ATOM      6  C   UNL     1      35.462 -19.007 -22.035  0.00  0.00    +0.019 C 
ATOM      7  C   UNL     1      34.892 -17.748 -21.862  0.00  0.00    +0.004 C 
ATOM      8  C   UNL     1      34.901 -15.181 -24.461  0.00  0.00    +0.063 C 
ATOM      9  C   UNL     1      36.062 -19.310 -23.249  0.00  0.00    +0.100 C 
ATOM     10  H   UNL     1      35.921 -16.291 -25.920  0.00  0.00    +0.154 HD
ENDROOT
BRANCH   6  11
ATOM     11  C   UNL     1      35.426 -19.982 -20.967  0.00  0.00    +0.001 C 
ATOM     12  C   UNL     1      34.150 -21.434 -19.490  0.00  0.00    +0.000 C 
ATOM     13  C   UNL     1      34.203 -20.488 -20.526  0.00  0.00    +0.000 C 
ATOM     14  C   UNL     1      35.356 -21.875 -18.893  0.00  0.00    +0.000 C 
ATOM     15  C   UNL     1      36.612 -20.414 -20.380  0.00  0.00    +0.000 C 
ATOM     16  C   UNL     1      36.579 -21.355 -19.350  0.00  0.00    +0.000 C 
ATOM     17  C   UNL     1      32.928 -21.954 -19.033  0.00  0.00    +0.000 C 
ATOM     18  C   UNL     1      35.304 -22.821 -17.857  0.00  0.00    +0.000 C 
ATOM     19  C   UNL     1      32.896 -22.894 -18.002  0.00  0.00    +0.000 C 
ATOM     20  C   UNL     1      34.081 -23.327 -17.415  0.00  0.00    +0.000 C 
ENDBRANCH   6  11
BRANCH   4  21
ATOM     21  C   UNL     1      33.824 -14.605 -22.319  0.00  0.00    +0.001 C 
ATOM     22  C   UNL     1      33.827 -14.805 -20.937  0.00  0.00    -0.000 C 
ATOM     23  C   UNL     1      33.138 -13.519 -22.863  0.00  0.00    -0.000 C 
ATOM     24  C   UNL     1      32.461 -12.834 -20.648  0.00  0.00    -0.011 C 
ATOM     25  C   UNL     1      33.146 -13.919 -20.103  0.00  0.00    -0.004 C 
ATOM     26  C   UNL     1      32.456 -12.633 -22.028  0.00  0.00    -0.004 C 
BRANCH  24  27
ATOM     27  C   UNL     1      31.734 -11.886 -19.754  0.00  0.00    +0.136 C 
BRANCH  27  29
ATOM     28  O   UNL     1      31.716  -9.730 -20.887  0.00  0.00    -0.250 OA
ATOM     29  C   UNL     1      32.118 -10.436 -19.971  0.00  0.00    +0.318 C 
BRANCH  29  30
ATOM     30  O   UNL     1      32.977  -9.991 -19.016  0.00  0.00    -0.480 OA
ATOM     31  H   UNL     1      33.705  -9.451 -19.257  0.00  0.00    +0.295 HD
ENDBRANCH  29  30
ENDBRANCH  27  29
ENDBRANCH  24  27
ENDBRANCH   4  21
TORSDOF 5
ENDMDL
MODEL 9
REMARK VINA RESULT:     -10.8      4.046      7.428
REMARK  Name = 11952989
REMARK  5 active torsions:
REMARK  status: ('A' for Active; 'I' for Inactive)
REMARK    1  A    between atoms: C_4  and  C_21
REMARK    2  A    between atoms: C_6  and  C_11
REMARK    3  A    between atoms: C_24  and  C_27
REMARK    4  A    between atoms: C_27  and  C_29
REMARK    5  A    between atoms: C_29  and  O_30
REMARK                            x       y       z     vdW  Elec       q    Type
REMARK                         _______ _______ _______ _____ _____    ______ ____
ROOT
ATOM      1  N   UNL     1      31.130 -23.179 -16.687  0.00  0.00    -0.297 N 
ATOM      2  N   UNL     1      32.277 -24.377 -14.939  0.00  0.00    -0.229 NA
ATOM      3  C   UNL     1      33.359 -23.224 -16.814  0.00  0.00    +0.033 C 
ATOM      4  C   UNL     1      32.851 -22.482 -17.913  0.00  0.00    +0.017 C 
ATOM      5  C   UNL     1      32.261 -23.644 -16.068  0.00  0.00    +0.132 C 
ATOM      6  C   UNL     1      34.705 -24.354 -15.188  0.00  0.00    +0.019 C 
ATOM      7  C   UNL     1      34.632 -23.595 -16.353  0.00  0.00    +0.004 C 
ATOM      8  C   UNL     1      31.476 -22.471 -17.808  0.00  0.00    +0.063 C 
ATOM      9  C   UNL     1      33.528 -24.705 -14.542  0.00  0.00    +0.100 C 
ATOM     10  H   UNL     1      30.208 -23.329 -16.373  0.00  0.00    +0.154 HD
ENDROOT
BRANCH   6  11
ATOM     11  C   UNL     1      35.987 -24.769 -14.660  0.00  0.00    +0.001 C 
ATOM     12  C   UNL     1      38.377 -25.101 -14.968  0.00  0.00    +0.000 C 
ATOM     13  C   UNL     1      37.125 -24.702 -15.464  0.00  0.00    +0.000 C 
ATOM     14  C   UNL     1      38.475 -25.576 -13.638  0.00  0.00    +0.000 C 
ATOM     15  C   UNL     1      36.083 -25.236 -13.353  0.00  0.00    +0.000 C 
ATOM     16  C   UNL     1      37.318 -25.636 -12.843  0.00  0.00    +0.000 C 
ATOM     17  C   UNL     1      39.534 -25.040 -15.762  0.00  0.00    +0.000 C 
ATOM     18  C   UNL     1      39.727 -25.975 -13.142  0.00  0.00    +0.000 C 
ATOM     19  C   UNL     1      40.769 -25.442 -15.252  0.00  0.00    +0.000 C 
ATOM     20  C   UNL     1      40.866 -25.908 -13.945  0.00  0.00    +0.000 C 
ENDBRANCH   6  11
BRANCH   4  21
ATOM     21  C   UNL     1      33.546 -21.828 -18.984  0.00  0.00    +0.001 C 
ATOM     22  C   UNL     1      32.857 -20.974 -19.846  0.00  0.00    -0.000 C 
ATOM     23  C   UNL     1      34.912 -22.045 -19.166  0.00  0.00    -0.000 C 
ATOM     24  C   UNL     1      34.899 -20.556 -21.067  0.00  0.00    -0.011 C 
ATOM     25  C   UNL     1      33.533 -20.338 -20.886  0.00  0.00    -0.004 C 
ATOM     26  C   UNL     1      35.589 -21.410 -20.206  0.00  0.00    -0.004 C 
BRANCH  24  27
ATOM     27  C   UNL     1      35.622 -19.873 -22.179  0.00  0.00    +0.136 C 
BRANCH  27  29
ATOM     28  O   UNL     1      37.803 -18.886 -21.736  0.00  0.00    -0.250 OA
ATOM     29  C   UNL     1      36.583 -18.801 -21.707  0.00  0.00    +0.318 C 
BRANCH  29  30
ATOM     30  O   UNL     1      35.929 -17.706 -21.237  0.00  0.00    -0.480 OA
ATOM     31  H   UNL     1      36.106 -16.861 -21.604  0.00  0.00    +0.295 HD
ENDBRANCH  29  30
ENDBRANCH  27  29
ENDBRANCH  24  27
ENDBRANCH   4  21
TORSDOF 5
ENDMDL
