MODEL 1
REMARK VINA RESULT:     -10.9      0.000      0.000
REMARK  Name = 4470566
REMARK  6 active torsions:
REMARK  status: ('A' for Active; 'I' for Inactive)
REMARK    1  A    between atoms: N_4  and  C_23
REMARK    2  A    between atoms: C_13  and  C_14
REMARK    3  A    between atoms: C_17  and  N_22
REMARK    4  A    between atoms: C_23  and  C_24
REMARK    5  A    between atoms: C_24  and  C_25
REMARK    6  A    between atoms: C_25  and  N_27
REMARK                            x       y       z     vdW  Elec       q    Type
REMARK                         _______ _______ _______ _____ _____    ______ ____
ROOT
ATOM      1  S   UNL     1      34.459 -23.720 -16.037  0.00  0.00    -0.086 S 
ATOM      2  S   UNL     1      37.361 -20.482 -20.189  0.00  0.00    -0.017 S 
ATOM      3  O   UNL     1      32.351 -20.908 -21.091  0.00  0.00    -0.268 OA
ATOM      4  N   UNL     1      34.689 -20.527 -20.955  0.00  0.00    -0.237 N 
ATOM      5  N   UNL     1      35.084 -21.613 -19.134  0.00  0.00    -0.244 N 
ATOM      6  C   UNL     1      33.753 -21.735 -19.362  0.00  0.00    +0.112 C 
ATOM      7  C   UNL     1      35.388 -22.289 -17.983  0.00  0.00    +0.064 C 
ATOM      8  C   UNL     1      35.749 -20.865 -20.094  0.00  0.00    +0.152 C 
ATOM      9  C   UNL     1      33.443 -21.030 -20.559  0.00  0.00    +0.268 C 
ATOM     10  C   UNL     1      34.216 -22.829 -17.505  0.00  0.00    +0.045 C 
ATOM     11  C   UNL     1      33.145 -22.478 -18.390  0.00  0.00    +0.028 C 
ATOM     12  C   UNL     1      36.518 -22.580 -17.172  0.00  0.00    +0.022 C 
ATOM     13  C   UNL     1      36.137 -23.348 -16.091  0.00  0.00    +0.031 C 
ENDROOT
BRANCH  13  14
ATOM     14  C   UNL     1      36.974 -23.859 -15.029  0.00  0.00    +0.008 C 
ATOM     15  C   UNL     1      38.159 -24.523 -15.336  0.00  0.00    +0.025 C 
ATOM     16  C   UNL     1      36.592 -23.684 -13.700  0.00  0.00    +0.001 C 
ATOM     17  C   UNL     1      38.967 -25.014 -14.310  0.00  0.00    +0.143 C 
ATOM     18  C   UNL     1      37.399 -24.175 -12.675  0.00  0.00    +0.002 C 
ATOM     19  C   UNL     1      38.586 -24.840 -12.980  0.00  0.00    +0.024 C 
BRANCH  17  22
ATOM     20  O   UNL     1      41.248 -25.042 -14.647  0.00  0.00    -0.126 OA
ATOM     21  O   UNL     1      40.136 -26.923 -14.863  0.00  0.00    -0.126 OA
ATOM     22  N   UNL     1      40.174 -25.692 -14.621  0.00  0.00    +0.058 N 
ENDBRANCH  17  22
ENDBRANCH  13  14
BRANCH   4  23
ATOM     23  C   UNL     1      34.836 -19.725 -22.162  0.00  0.00    +0.098 C 
BRANCH  23  24
ATOM     24  C   UNL     1      35.295 -18.299 -21.865  0.00  0.00    -0.001 C 
BRANCH  24  25
ATOM     25  C   UNL     1      36.372 -17.770 -22.817  0.00  0.00    -0.075 C 
BRANCH  25  27
ATOM     26  O   UNL     1      33.785 -15.132 -24.807  0.00  0.00    -0.358 OA
ATOM     27  N   UNL     1      35.878 -16.671 -23.644  0.00  0.00    +0.390 N 
ATOM     28  C   UNL     1      35.076 -15.734 -22.844  0.00  0.00    -0.045 C 
ATOM     29  C   UNL     1      35.081 -17.182 -24.768  0.00  0.00    -0.045 C 
ATOM     30  C   UNL     1      34.561 -14.604 -23.730  0.00  0.00    +0.119 C 
ATOM     31  C   UNL     1      34.567 -16.018 -25.610  0.00  0.00    +0.119 C 
ATOM     32  H   UNL     1      36.685 -16.173 -24.017  0.00  0.00    -0.079 HD
ENDBRANCH  25  27
ENDBRANCH  24  25
ENDBRANCH  23  24
ENDBRANCH   4  23
TORSDOF 6
ENDMDL
MODEL 2
REMARK VINA RESULT:     -10.9      1.975      2.153
REMARK  Name = 4470566
REMARK  6 active torsions:
REMARK  status: ('A' for Active; 'I' for Inactive)
REMARK    1  A    between atoms: N_4  and  C_23
REMARK    2  A    between atoms: C_13  and  C_14
REMARK    3  A    between atoms: C_17  and  N_22
REMARK    4  A    between atoms: C_23  and  C_24
REMARK    5  A    between atoms: C_24  and  C_25
REMARK    6  A    between atoms: C_25  and  N_27
REMARK                            x       y       z     vdW  Elec       q    Type
REMARK                         _______ _______ _______ _____ _____    ______ ____
ROOT
ATOM      1  S   UNL     1      34.206 -23.861 -15.763  0.00  0.00    -0.086 S 
ATOM      2  S   UNL     1      37.426 -20.828 -19.836  0.00  0.00    -0.017 S 
ATOM      3  O   UNL     1      32.457 -21.110 -20.985  0.00  0.00    -0.268 OA
ATOM      4  N   UNL     1      34.796 -20.804 -20.737  0.00  0.00    -0.237 N 
ATOM      5  N   UNL     1      35.061 -21.855 -18.873  0.00  0.00    -0.244 N 
ATOM      6  C   UNL     1      33.739 -21.939 -19.167  0.00  0.00    +0.112 C 
ATOM      7  C   UNL     1      35.282 -22.512 -17.692  0.00  0.00    +0.064 C 
ATOM      8  C   UNL     1      35.799 -21.155 -19.815  0.00  0.00    +0.152 C 
ATOM      9  C   UNL     1      33.515 -21.255 -20.394  0.00  0.00    +0.268 C 
ATOM     10  C   UNL     1      34.069 -23.001 -17.263  0.00  0.00    +0.045 C 
ATOM     11  C   UNL     1      33.057 -22.636 -18.210  0.00  0.00    +0.028 C 
ATOM     12  C   UNL     1      36.358 -22.820 -16.817  0.00  0.00    +0.022 C 
ATOM     13  C   UNL     1      35.897 -23.546 -15.740  0.00  0.00    +0.031 C 
ENDROOT
BRANCH  13  14
ATOM     14  C   UNL     1      36.661 -24.058 -14.624  0.00  0.00    +0.008 C 
ATOM     15  C   UNL     1      36.097 -24.085 -13.350  0.00  0.00    +0.025 C 
ATOM     16  C   UNL     1      37.958 -24.523 -14.827  0.00  0.00    +0.001 C 
ATOM     17  C   UNL     1      36.834 -24.580 -12.275  0.00  0.00    +0.143 C 
ATOM     18  C   UNL     1      38.695 -25.017 -13.751  0.00  0.00    +0.002 C 
ATOM     19  C   UNL     1      38.133 -25.046 -12.476  0.00  0.00    +0.024 C 
BRANCH  17  22
ATOM     20  O   UNL     1      36.748 -23.872 -10.082  0.00  0.00    -0.126 OA
ATOM     21  O   UNL     1      35.288 -25.367 -10.756  0.00  0.00    -0.126 OA
ATOM     22  N   UNL     1      36.262 -24.608 -10.975  0.00  0.00    +0.058 N 
ENDBRANCH  17  22
ENDBRANCH  13  14
BRANCH   4  23
ATOM     23  C   UNL     1      35.032 -20.038 -21.954  0.00  0.00    +0.098 C 
BRANCH  23  24
ATOM     24  C   UNL     1      35.074 -18.533 -21.700  0.00  0.00    -0.001 C 
BRANCH  24  25
ATOM     25  C   UNL     1      36.305 -17.828 -22.279  0.00  0.00    -0.075 C 
BRANCH  25  27
ATOM     26  O   UNL     1      34.035 -15.359 -24.802  0.00  0.00    -0.358 OA
ATOM     27  N   UNL     1      35.939 -16.822 -23.274  0.00  0.00    +0.390 N 
ATOM     28  C   UNL     1      35.119 -15.763 -22.669  0.00  0.00    -0.045 C 
ATOM     29  C   UNL     1      35.219 -17.437 -24.397  0.00  0.00    -0.045 C 
ATOM     30  C   UNL     1      34.740 -14.732 -23.729  0.00  0.00    +0.119 C 
ATOM     31  C   UNL     1      34.838 -16.367 -25.416  0.00  0.00    +0.119 C 
ATOM     32  H   UNL     1      36.800 -16.406 -23.628  0.00  0.00    -0.079 HD
ENDBRANCH  25  27
ENDBRANCH  24  25
ENDBRANCH  23  24
ENDBRANCH   4  23
TORSDOF 6
ENDMDL
MODEL 3
REMARK VINA RESULT:     -10.9      4.450      8.022
REMARK  Name = 4470566
REMARK  6 active torsions:
REMARK  status: ('A' for Active; 'I' for Inactive)
REMARK    1  A    between atoms: N_4  and  C_23
REMARK    2  A    between atoms: C_13  and  C_14
REMARK    3  A    between atoms: C_17  and  N_22
REMARK    4  A    between atoms: C_23  and  C_24
REMARK    5  A    between atoms: C_24  and  C_25
REMARK    6  A    between atoms: C_25  and  N_27
REMARK                            x       y       z     vdW  Elec       q    Type
REMARK                         _______ _______ _______ _____ _____    ______ ____
ROOT
ATOM      1  S   UNL     1      35.131 -19.385 -23.790  0.00  0.00    -0.086 S 
ATOM      2  S   UNL     1      34.834 -13.774 -21.650  0.00  0.00    -0.017 S 
ATOM      3  O   UNL     1      34.078 -14.061 -26.694  0.00  0.00    -0.268 OA
ATOM      4  N   UNL     1      34.386 -13.595 -24.388  0.00  0.00    -0.237 N 
ATOM      5  N   UNL     1      34.720 -15.611 -23.697  0.00  0.00    -0.244 N 
ATOM      6  C   UNL     1      34.523 -15.701 -25.036  0.00  0.00    +0.112 C 
ATOM      7  C   UNL     1      34.939 -16.871 -23.208  0.00  0.00    +0.064 C 
ATOM      8  C   UNL     1      34.651 -14.315 -23.209  0.00  0.00    +0.152 C 
ATOM      9  C   UNL     1      34.296 -14.389 -25.538  0.00  0.00    +0.268 C 
ATOM     10  C   UNL     1      34.870 -17.740 -24.272  0.00  0.00    +0.045 C 
ATOM     11  C   UNL     1      34.601 -16.995 -25.467  0.00  0.00    +0.028 C 
ATOM     12  C   UNL     1      35.204 -17.513 -21.969  0.00  0.00    +0.022 C 
ATOM     13  C   UNL     1      35.326 -18.873 -22.160  0.00  0.00    +0.031 C 
ENDROOT
BRANCH  13  14
ATOM     14  C   UNL     1      35.595 -19.887 -21.164  0.00  0.00    +0.008 C 
ATOM     15  C   UNL     1      34.580 -20.750 -20.760  0.00  0.00    +0.025 C 
ATOM     16  C   UNL     1      36.870 -19.997 -20.614  0.00  0.00    +0.001 C 
ATOM     17  C   UNL     1      34.840 -21.729 -19.801  0.00  0.00    +0.143 C 
ATOM     18  C   UNL     1      37.130 -20.975 -19.654  0.00  0.00    +0.002 C 
ATOM     19  C   UNL     1      36.115 -21.841 -19.248  0.00  0.00    +0.024 C 
BRANCH  17  22
ATOM     20  O   UNL     1      32.730 -22.124 -18.960  0.00  0.00    -0.126 OA
ATOM     21  O   UNL     1      33.997 -23.847 -19.456  0.00  0.00    -0.126 OA
ATOM     22  N   UNL     1      33.806 -22.609 -19.386  0.00  0.00    +0.058 N 
ENDBRANCH  17  22
ENDBRANCH  13  14
BRANCH   4  23
ATOM     23  C   UNL     1      34.214 -12.150 -24.446  0.00  0.00    +0.098 C 
BRANCH  23  24
ATOM     24  C   UNL     1      33.078 -11.659 -23.552  0.00  0.00    -0.001 C 
BRANCH  24  25
ATOM     25  C   UNL     1      32.942 -10.135 -23.482  0.00  0.00    -0.075 C 
BRANCH  25  27
ATOM     26  O   UNL     1      32.159  -9.186 -19.469  0.00  0.00    -0.358 OA
ATOM     27  N   UNL     1      32.254  -9.704 -22.267  0.00  0.00    +0.390 N 
ATOM     28  C   UNL     1      32.917  -8.531 -21.679  0.00  0.00    -0.045 C 
ATOM     29  C   UNL     1      32.198 -10.795 -21.284  0.00  0.00    -0.045 C 
ATOM     30  C   UNL     1      32.190  -8.108 -20.406  0.00  0.00    +0.119 C 
ATOM     31  C   UNL     1      31.487 -10.319 -20.021  0.00  0.00    +0.119 C 
ATOM     32  H   UNL     1      31.301  -9.446 -22.521  0.00  0.00    -0.079 HD
ENDBRANCH  25  27
ENDBRANCH  24  25
ENDBRANCH  23  24
ENDBRANCH   4  23
TORSDOF 6
ENDMDL
MODEL 4
REMARK VINA RESULT:     -10.2      2.405     10.054
REMARK  Name = 4470566
REMARK  6 active torsions:
REMARK  status: ('A' for Active; 'I' for Inactive)
REMARK    1  A    between atoms: N_4  and  C_23
REMARK    2  A    between atoms: C_13  and  C_14
REMARK    3  A    between atoms: C_17  and  N_22
REMARK    4  A    between atoms: C_23  and  C_24
REMARK    5  A    between atoms: C_24  and  C_25
REMARK    6  A    between atoms: C_25  and  N_27
REMARK                            x       y       z     vdW  Elec       q    Type
REMARK                         _______ _______ _______ _____ _____    ______ ____
ROOT
ATOM      1  S   UNL     1      33.549 -21.249 -20.255  0.00  0.00    -0.086 S 
ATOM      2  S   UNL     1      37.651 -22.879 -16.172  0.00  0.00    -0.017 S 
ATOM      3  O   UNL     1      32.984 -24.710 -15.196  0.00  0.00    -0.268 OA
ATOM      4  N   UNL     1      35.247 -24.019 -15.368  0.00  0.00    -0.237 N 
ATOM      5  N   UNL     1      35.092 -22.868 -17.185  0.00  0.00    -0.244 N 
ATOM      6  C   UNL     1      33.847 -23.347 -16.937  0.00  0.00    +0.112 C 
ATOM      7  C   UNL     1      35.047 -22.125 -18.334  0.00  0.00    +0.064 C 
ATOM      8  C   UNL     1      36.034 -23.246 -16.241  0.00  0.00    +0.152 C 
ATOM      9  C   UNL     1      33.900 -24.117 -15.742  0.00  0.00    +0.268 C 
ATOM     10  C   UNL     1      33.749 -22.158 -18.791  0.00  0.00    +0.045 C 
ATOM     11  C   UNL     1      32.958 -22.947 -17.894  0.00  0.00    +0.028 C 
ATOM     12  C   UNL     1      35.918 -21.364 -19.159  0.00  0.00    +0.022 C 
ATOM     13  C   UNL     1      35.220 -20.842 -20.227  0.00  0.00    +0.031 C 
ENDROOT
BRANCH  13  14
ATOM     14  C   UNL     1      35.728 -20.013 -21.297  0.00  0.00    +0.008 C 
ATOM     15  C   UNL     1      34.913 -19.703 -22.383  0.00  0.00    +0.025 C 
ATOM     16  C   UNL     1      37.031 -19.525 -21.237  0.00  0.00    +0.001 C 
ATOM     17  C   UNL     1      35.402 -18.901 -23.414  0.00  0.00    +0.143 C 
ATOM     18  C   UNL     1      37.521 -18.724 -22.268  0.00  0.00    +0.002 C 
ATOM     19  C   UNL     1      36.707 -18.411 -23.355  0.00  0.00    +0.024 C 
BRANCH  17  22
ATOM     20  O   UNL     1      34.807 -17.540 -25.177  0.00  0.00    -0.126 OA
ATOM     21  O   UNL     1      33.630 -19.358 -24.816  0.00  0.00    -0.126 OA
ATOM     22  N   UNL     1      34.574 -18.585 -24.522  0.00  0.00    +0.058 N 
ENDBRANCH  17  22
ENDBRANCH  13  14
BRANCH   4  23
ATOM     23  C   UNL     1      35.753 -24.675 -14.170  0.00  0.00    +0.098 C 
BRANCH  23  24
ATOM     24  C   UNL     1      36.392 -26.030 -14.469  0.00  0.00    -0.001 C 
BRANCH  24  25
ATOM     25  C   UNL     1      37.320 -26.548 -13.368  0.00  0.00    -0.075 C 
BRANCH  25  27
ATOM     26  O   UNL     1      40.812 -24.829 -14.939  0.00  0.00    -0.358 OA
ATOM     27  N   UNL     1      38.727 -26.301 -13.678  0.00  0.00    +0.390 N 
ATOM     28  C   UNL     1      39.149 -24.984 -13.180  0.00  0.00    -0.045 C 
ATOM     29  C   UNL     1      38.965 -26.391 -15.126  0.00  0.00    -0.045 C 
ATOM     30  C   UNL     1      40.615 -24.744 -13.527  0.00  0.00    +0.119 C 
ATOM     31  C   UNL     1      40.436 -26.118 -15.427  0.00  0.00    +0.119 C 
ATOM     32  H   UNL     1      39.281 -27.019 -13.212  0.00  0.00    -0.079 HD
ENDBRANCH  25  27
ENDBRANCH  24  25
ENDBRANCH  23  24
ENDBRANCH   4  23
TORSDOF 6
ENDMDL
MODEL 5
REMARK VINA RESULT:     -10.0      6.741     10.804
REMARK  Name = 4470566
REMARK  6 active torsions:
REMARK  status: ('A' for Active; 'I' for Inactive)
REMARK    1  A    between atoms: N_4  and  C_23
REMARK    2  A    between atoms: C_13  and  C_14
REMARK    3  A    between atoms: C_17  and  N_22
REMARK    4  A    between atoms: C_23  and  C_24
REMARK    5  A    between atoms: C_24  and  C_25
REMARK    6  A    between atoms: C_25  and  N_27
REMARK                            x       y       z     vdW  Elec       q    Type
REMARK                         _______ _______ _______ _____ _____    ______ ____
ROOT
ATOM      1  S   UNL     1      35.132 -14.913 -25.024  0.00  0.00    -0.086 S 
ATOM      2  S   UNL     1      32.206 -12.591 -20.313  0.00  0.00    -0.017 S 
ATOM      3  O   UNL     1      32.862  -9.262 -24.130  0.00  0.00    -0.268 OA
ATOM      4  N   UNL     1      32.401 -10.556 -22.197  0.00  0.00    -0.237 N 
ATOM      5  N   UNL     1      33.302 -12.410 -22.831  0.00  0.00    -0.244 N 
ATOM      6  C   UNL     1      33.484 -11.536 -23.852  0.00  0.00    +0.112 C 
ATOM      7  C   UNL     1      33.860 -13.609 -23.186  0.00  0.00    +0.064 C 
ATOM      8  C   UNL     1      32.627 -11.870 -21.747  0.00  0.00    +0.152 C 
ATOM      9  C   UNL     1      32.902 -10.292 -23.478  0.00  0.00    +0.268 C 
ATOM     10  C   UNL     1      34.388 -13.456 -24.447  0.00  0.00    +0.045 C 
ATOM     11  C   UNL     1      34.152 -12.115 -24.893  0.00  0.00    +0.028 C 
ATOM     12  C   UNL     1      34.041 -14.912 -22.650  0.00  0.00    +0.022 C 
ATOM     13  C   UNL     1      34.717 -15.704 -23.555  0.00  0.00    +0.031 C 
ENDROOT
BRANCH  13  14
ATOM     14  C   UNL     1      35.103 -17.090 -23.405  0.00  0.00    +0.008 C 
ATOM     15  C   UNL     1      35.740 -17.511 -22.241  0.00  0.00    +0.025 C 
ATOM     16  C   UNL     1      34.834 -17.998 -24.426  0.00  0.00    +0.001 C 
ATOM     17  C   UNL     1      36.110 -18.848 -22.096  0.00  0.00    +0.143 C 
ATOM     18  C   UNL     1      35.204 -19.335 -24.282  0.00  0.00    +0.002 C 
ATOM     19  C   UNL     1      35.842 -19.759 -23.116  0.00  0.00    +0.024 C 
BRANCH  17  22
ATOM     20  O   UNL     1      36.271 -20.235 -20.260  0.00  0.00    -0.126 OA
ATOM     21  O   UNL     1      37.808 -18.693 -20.544  0.00  0.00    -0.126 OA
ATOM     22  N   UNL     1      36.761 -19.280 -20.910  0.00  0.00    +0.058 N 
ENDBRANCH  17  22
ENDBRANCH  13  14
BRANCH   4  23
ATOM     23  C   UNL     1      31.710  -9.533 -21.425  0.00  0.00    +0.098 C 
BRANCH  23  24
ATOM     24  C   UNL     1      32.629  -8.831 -20.427  0.00  0.00    -0.001 C 
BRANCH  24  25
ATOM     25  C   UNL     1      33.366  -7.614 -20.993  0.00  0.00    -0.075 C 
BRANCH  25  27
ATOM     26  O   UNL     1      31.762  -4.618 -23.456  0.00  0.00    -0.358 OA
ATOM     27  N   UNL     1      32.587  -6.938 -22.029  0.00  0.00    +0.390 N 
ATOM     28  C   UNL     1      33.471  -6.278 -23.000  0.00  0.00    -0.045 C 
ATOM     29  C   UNL     1      31.669  -5.956 -21.435  0.00  0.00    -0.045 C 
ATOM     30  C   UNL     1      32.637  -5.570 -24.063  0.00  0.00    +0.119 C 
ATOM     31  C   UNL     1      30.877  -5.257 -22.536  0.00  0.00    +0.119 C 
ATOM     32  H   UNL     1      32.037  -7.645 -22.517  0.00  0.00    -0.079 HD
ENDBRANCH  25  27
ENDBRANCH  24  25
ENDBRANCH  23  24
ENDBRANCH   4  23
TORSDOF 6
ENDMDL
MODEL 6
REMARK VINA RESULT:      -9.9      3.070      9.876
REMARK  Name = 4470566
REMARK  6 active torsions:
REMARK  status: ('A' for Active; 'I' for Inactive)
REMARK    1  A    between atoms: N_4  and  C_23
REMARK    2  A    between atoms: C_13  and  C_14
REMARK    3  A    between atoms: C_17  and  N_22
REMARK    4  A    between atoms: C_23  and  C_24
REMARK    5  A    between atoms: C_24  and  C_25
REMARK    6  A    between atoms: C_25  and  N_27
REMARK                            x       y       z     vdW  Elec       q    Type
REMARK                         _______ _______ _______ _____ _____    ______ ____
ROOT
ATOM      1  S   UNL     1      37.449 -19.962 -19.948  0.00  0.00    -0.086 S 
ATOM      2  S   UNL     1      33.031 -23.486 -17.896  0.00  0.00    -0.017 S 
ATOM      3  O   UNL     1      37.235 -23.616 -14.999  0.00  0.00    -0.268 OA
ATOM      4  N   UNL     1      35.152 -23.775 -16.123  0.00  0.00    -0.237 N 
ATOM      5  N   UNL     1      35.562 -22.417 -17.748  0.00  0.00    -0.244 N 
ATOM      6  C   UNL     1      36.686 -22.443 -16.989  0.00  0.00    +0.112 C 
ATOM      7  C   UNL     1      35.773 -21.566 -18.800  0.00  0.00    +0.064 C 
ATOM      8  C   UNL     1      34.547 -23.232 -17.271  0.00  0.00    +0.152 C 
ATOM      9  C   UNL     1      36.461 -23.330 -15.898  0.00  0.00    +0.268 C 
ATOM     10  C   UNL     1      37.049 -21.065 -18.671  0.00  0.00    +0.045 C 
ATOM     11  C   UNL     1      37.654 -21.627 -17.499  0.00  0.00    +0.028 C 
ATOM     12  C   UNL     1      35.082 -21.068 -19.937  0.00  0.00    +0.022 C 
ATOM     13  C   UNL     1      35.888 -20.193 -20.633  0.00  0.00    +0.031 C 
ENDROOT
BRANCH  13  14
ATOM     14  C   UNL     1      35.572 -19.469 -21.844  0.00  0.00    +0.008 C 
ATOM     15  C   UNL     1      35.593 -18.076 -21.847  0.00  0.00    +0.025 C 
ATOM     16  C   UNL     1      35.248 -20.168 -23.004  0.00  0.00    +0.001 C 
ATOM     17  C   UNL     1      35.290 -17.379 -23.016  0.00  0.00    +0.143 C 
ATOM     18  C   UNL     1      34.944 -19.470 -24.173  0.00  0.00    +0.002 C 
ATOM     19  C   UNL     1      34.965 -18.076 -24.179  0.00  0.00    +0.024 C 
BRANCH  17  22
ATOM     20  O   UNL     1      34.974 -15.343 -21.979  0.00  0.00    -0.126 OA
ATOM     21  O   UNL     1      35.660 -15.359 -24.065  0.00  0.00    -0.126 OA
ATOM     22  N   UNL     1      35.310 -15.959 -23.020  0.00  0.00    +0.058 N 
ENDBRANCH  17  22
ENDBRANCH  13  14
BRANCH   4  23
ATOM     23  C   UNL     1      34.506 -24.721 -15.225  0.00  0.00    +0.098 C 
BRANCH  23  24
ATOM     24  C   UNL     1      33.666 -24.030 -14.152  0.00  0.00    -0.001 C 
BRANCH  24  25
ATOM     25  C   UNL     1      32.320 -24.704 -13.870  0.00  0.00    -0.075 C 
BRANCH  25  27
ATOM     26  O   UNL     1      28.683 -23.818 -15.767  0.00  0.00    -0.358 OA
ATOM     27  N   UNL     1      31.332 -24.402 -14.902  0.00  0.00    +0.390 N 
ATOM     28  C   UNL     1      30.719 -23.086 -14.671  0.00  0.00    -0.045 C 
ATOM     29  C   UNL     1      30.291 -25.439 -14.949  0.00  0.00    -0.045 C 
ATOM     30  C   UNL     1      29.683 -22.798 -15.753  0.00  0.00    +0.119 C 
ATOM     31  C   UNL     1      29.265 -25.096 -16.025  0.00  0.00    +0.119 C 
ATOM     32  H   UNL     1      31.813 -24.384 -15.801  0.00  0.00    -0.079 HD
ENDBRANCH  25  27
ENDBRANCH  24  25
ENDBRANCH  23  24
ENDBRANCH   4  23
TORSDOF 6
ENDMDL
MODEL 7
REMARK VINA RESULT:      -9.8      3.916      5.624
REMARK  Name = 4470566
REMARK  6 active torsions:
REMARK  status: ('A' for Active; 'I' for Inactive)
REMARK    1  A    between atoms: N_4  and  C_23
REMARK    2  A    between atoms: C_13  and  C_14
REMARK    3  A    between atoms: C_17  and  N_22
REMARK    4  A    between atoms: C_23  and  C_24
REMARK    5  A    between atoms: C_24  and  C_25
REMARK    6  A    between atoms: C_25  and  N_27
REMARK                            x       y       z     vdW  Elec       q    Type
REMARK                         _______ _______ _______ _____ _____    ______ ____
ROOT
ATOM      1  S   UNL     1      34.599 -23.370 -16.631  0.00  0.00    -0.086 S 
ATOM      2  S   UNL     1      32.748 -20.217 -21.404  0.00  0.00    -0.017 S 
ATOM      3  O   UNL     1      37.824 -20.239 -20.836  0.00  0.00    -0.268 OA
ATOM      4  N   UNL     1      35.522 -20.037 -21.372  0.00  0.00    -0.237 N 
ATOM      5  N   UNL     1      34.713 -21.211 -19.753  0.00  0.00    -0.244 N 
ATOM      6  C   UNL     1      36.060 -21.224 -19.590  0.00  0.00    +0.112 C 
ATOM      7  C   UNL     1      34.150 -21.945 -18.745  0.00  0.00    +0.064 C 
ATOM      8  C   UNL     1      34.292 -20.482 -20.856  0.00  0.00    +0.152 C 
ATOM      9  C   UNL     1      36.640 -20.459 -20.640  0.00  0.00    +0.268 C 
ATOM     10  C   UNL     1      35.177 -22.414 -17.957  0.00  0.00    +0.045 C 
ATOM     11  C   UNL     1      36.424 -21.953 -18.494  0.00  0.00    +0.028 C 
ATOM     12  C   UNL     1      32.863 -22.349 -18.297  0.00  0.00    +0.022 C 
ATOM     13  C   UNL     1      32.982 -23.123 -17.162  0.00  0.00    +0.031 C 
ENDROOT
BRANCH  13  14
ATOM     14  C   UNL     1      31.921 -23.733 -16.391  0.00  0.00    +0.008 C 
ATOM     15  C   UNL     1      30.597 -23.597 -16.801  0.00  0.00    +0.025 C 
ATOM     16  C   UNL     1      32.228 -24.455 -15.239  0.00  0.00    +0.001 C 
ATOM     17  C   UNL     1      29.574 -24.187 -16.058  0.00  0.00    +0.143 C 
ATOM     18  C   UNL     1      31.205 -25.044 -14.496  0.00  0.00    +0.002 C 
ATOM     19  C   UNL     1      29.879 -24.910 -14.906  0.00  0.00    +0.024 C 
BRANCH  17  22
ATOM     20  O   UNL     1      27.441 -23.358 -15.777  0.00  0.00    -0.126 OA
ATOM     21  O   UNL     1      27.850 -24.621 -17.527  0.00  0.00    -0.126 OA
ATOM     22  N   UNL     1      28.224 -24.048 -16.474  0.00  0.00    +0.058 N 
ENDBRANCH  17  22
ENDBRANCH  13  14
BRANCH   4  23
ATOM     23  C   UNL     1      35.661 -19.208 -22.561  0.00  0.00    +0.098 C 
BRANCH  23  24
ATOM     24  C   UNL     1      35.544 -17.717 -22.252  0.00  0.00    -0.001 C 
BRANCH  24  25
ATOM     25  C   UNL     1      35.973 -16.797 -23.399  0.00  0.00    -0.075 C 
BRANCH  25  27
ATOM     26  O   UNL     1      33.673 -14.189 -25.749  0.00  0.00    -0.358 OA
ATOM     27  N   UNL     1      34.830 -16.139 -24.028  0.00  0.00    +0.390 N 
ATOM     28  C   UNL     1      34.890 -16.272 -25.491  0.00  0.00    -0.045 C 
ATOM     29  C   UNL     1      34.774 -14.719 -23.654  0.00  0.00    -0.045 C 
ATOM     30  C   UNL     1      33.694 -15.567 -26.125  0.00  0.00    +0.119 C 
ATOM     31  C   UNL     1      33.581 -14.051 -24.331  0.00  0.00    +0.119 C 
ATOM     32  H   UNL     1      33.982 -16.597 -23.693  0.00  0.00    -0.079 HD
ENDBRANCH  25  27
ENDBRANCH  24  25
ENDBRANCH  23  24
ENDBRANCH   4  23
TORSDOF 6
ENDMDL
MODEL 8
REMARK VINA RESULT:      -9.8      2.515     10.134
REMARK  Name = 4470566
REMARK  6 active torsions:
REMARK  status: ('A' for Active; 'I' for Inactive)
REMARK    1  A    between atoms: N_4  and  C_23
REMARK    2  A    between atoms: C_13  and  C_14
REMARK    3  A    between atoms: C_17  and  N_22
REMARK    4  A    between atoms: C_23  and  C_24
REMARK    5  A    between atoms: C_24  and  C_25
REMARK    6  A    between atoms: C_25  and  N_27
REMARK                            x       y       z     vdW  Elec       q    Type
REMARK                         _______ _______ _______ _____ _____    ______ ____
ROOT
ATOM      1  S   UNL     1      33.328 -21.108 -20.224  0.00  0.00    -0.086 S 
ATOM      2  S   UNL     1      37.040 -23.285 -16.025  0.00  0.00    -0.017 S 
ATOM      3  O   UNL     1      32.165 -24.633 -15.313  0.00  0.00    -0.268 OA
ATOM      4  N   UNL     1      34.494 -24.184 -15.365  0.00  0.00    -0.237 N 
ATOM      5  N   UNL     1      34.547 -22.971 -17.147  0.00  0.00    -0.244 N 
ATOM      6  C   UNL     1      33.248 -23.320 -16.969  0.00  0.00    +0.112 C 
ATOM      7  C   UNL     1      34.634 -22.194 -18.271  0.00  0.00    +0.064 C 
ATOM      8  C   UNL     1      35.399 -23.475 -16.176  0.00  0.00    +0.152 C 
ATOM      9  C   UNL     1      33.164 -24.126 -15.799  0.00  0.00    +0.268 C 
ATOM     10  C   UNL     1      33.362 -22.074 -18.784  0.00  0.00    +0.045 C 
ATOM     11  C   UNL     1      32.451 -22.800 -17.949  0.00  0.00    +0.028 C 
ATOM     12  C   UNL     1      35.618 -21.508 -19.031  0.00  0.00    +0.022 C 
ATOM     13  C   UNL     1      35.029 -20.884 -20.111  0.00  0.00    +0.031 C 
ENDROOT
BRANCH  13  14
ATOM     14  C   UNL     1      35.671 -20.082 -21.129  0.00  0.00    +0.008 C 
ATOM     15  C   UNL     1      34.947 -19.663 -22.243  0.00  0.00    +0.025 C 
ATOM     16  C   UNL     1      37.012 -19.732 -20.992  0.00  0.00    +0.001 C 
ATOM     17  C   UNL     1      35.566 -18.888 -23.223  0.00  0.00    +0.143 C 
ATOM     18  C   UNL     1      37.632 -18.958 -21.973  0.00  0.00    +0.002 C 
ATOM     19  C   UNL     1      36.909 -18.536 -23.088  0.00  0.00    +0.024 C 
BRANCH  17  22
ATOM     20  O   UNL     1      34.132 -19.298 -24.982  0.00  0.00    -0.126 OA
ATOM     21  O   UNL     1      34.899 -17.259 -24.712  0.00  0.00    -0.126 OA
ATOM     22  N   UNL     1      34.830 -18.461 -24.360  0.00  0.00    +0.058 N 
ENDBRANCH  17  22
ENDBRANCH  13  14
BRANCH   4  23
ATOM     23  C   UNL     1      34.872 -24.925 -14.169  0.00  0.00    +0.098 C 
BRANCH  23  24
ATOM     24  C   UNL     1      34.843 -24.059 -12.911  0.00  0.00    -0.001 C 
BRANCH  24  25
ATOM     25  C   UNL     1      35.444 -24.727 -11.670  0.00  0.00    -0.075 C 
BRANCH  25  27
ATOM     26  O   UNL     1      39.363 -24.624 -13.167  0.00  0.00    -0.358 OA
ATOM     27  N   UNL     1      36.898 -24.837 -11.760  0.00  0.00    +0.390 N 
ATOM     28  C   UNL     1      37.505 -23.531 -12.055  0.00  0.00    -0.045 C 
ATOM     29  C   UNL     1      37.285 -25.815 -12.787  0.00  0.00    -0.045 C 
ATOM     30  C   UNL     1      39.020 -23.674 -12.157  0.00  0.00    +0.119 C 
ATOM     31  C   UNL     1      38.806 -25.905 -12.871  0.00  0.00    +0.119 C 
ATOM     32  H   UNL     1      37.244 -25.161 -10.857  0.00  0.00    -0.079 HD
ENDBRANCH  25  27
ENDBRANCH  24  25
ENDBRANCH  23  24
ENDBRANCH   4  23
TORSDOF 6
ENDMDL
MODEL 9
REMARK VINA RESULT:      -9.5      2.907     10.215
REMARK  Name = 4470566
REMARK  6 active torsions:
REMARK  status: ('A' for Active; 'I' for Inactive)
REMARK    1  A    between atoms: N_4  and  C_23
REMARK    2  A    between atoms: C_13  and  C_14
REMARK    3  A    between atoms: C_17  and  N_22
REMARK    4  A    between atoms: C_23  and  C_24
REMARK    5  A    between atoms: C_24  and  C_25
REMARK    6  A    between atoms: C_25  and  N_27
REMARK                            x       y       z     vdW  Elec       q    Type
REMARK                         _______ _______ _______ _____ _____    ______ ____
ROOT
ATOM      1  S   UNL     1      37.305 -19.093 -21.021  0.00  0.00    -0.086 S 
ATOM      2  S   UNL     1      33.450 -23.112 -18.754  0.00  0.00    -0.017 S 
ATOM      3  O   UNL     1      37.636 -22.485 -15.895  0.00  0.00    -0.268 OA
ATOM      4  N   UNL     1      35.596 -23.000 -16.990  0.00  0.00    -0.237 N 
ATOM      5  N   UNL     1      35.800 -21.682 -18.684  0.00  0.00    -0.244 N 
ATOM      6  C   UNL     1      36.918 -21.506 -17.935  0.00  0.00    +0.112 C 
ATOM      7  C   UNL     1      35.882 -20.863 -19.778  0.00  0.00    +0.064 C 
ATOM      8  C   UNL     1      34.915 -22.609 -18.157  0.00  0.00    +0.152 C 
ATOM      9  C   UNL     1      36.827 -22.360 -16.800  0.00  0.00    +0.268 C 
ATOM     10  C   UNL     1      37.072 -20.177 -19.688  0.00  0.00    +0.045 C 
ATOM     11  C   UNL     1      37.756 -20.585 -18.495  0.00  0.00    +0.028 C 
ATOM     12  C   UNL     1      35.123 -20.528 -20.932  0.00  0.00    +0.022 C 
ATOM     13  C   UNL     1      35.793 -19.582 -21.679  0.00  0.00    +0.031 C 
ENDROOT
BRANCH  13  14
ATOM     14  C   UNL     1      35.371 -18.973 -22.921  0.00  0.00    +0.008 C 
ATOM     15  C   UNL     1      35.377 -17.587 -23.053  0.00  0.00    +0.025 C 
ATOM     16  C   UNL     1      34.962 -19.777 -23.982  0.00  0.00    +0.001 C 
ATOM     17  C   UNL     1      34.973 -17.001 -24.252  0.00  0.00    +0.143 C 
ATOM     18  C   UNL     1      34.556 -19.191 -25.181  0.00  0.00    +0.002 C 
ATOM     19  C   UNL     1      34.562 -17.803 -25.316  0.00  0.00    +0.024 C 
BRANCH  17  22
ATOM     20  O   UNL     1      34.505 -15.076 -25.432  0.00  0.00    -0.126 OA
ATOM     21  O   UNL     1      35.453 -14.889 -23.461  0.00  0.00    -0.126 OA
ATOM     22  N   UNL     1      34.977 -15.588 -24.388  0.00  0.00    +0.058 N 
ENDBRANCH  17  22
ENDBRANCH  13  14
BRANCH   4  23
ATOM     23  C   UNL     1      35.096 -23.983 -16.039  0.00  0.00    +0.098 C 
BRANCH  23  24
ATOM     24  C   UNL     1      33.971 -23.433 -15.164  0.00  0.00    -0.001 C 
BRANCH  24  25
ATOM     25  C   UNL     1      33.069 -24.504 -14.545  0.00  0.00    -0.075 C 
BRANCH  25  27
ATOM     26  O   UNL     1      29.198 -24.373 -16.161  0.00  0.00    -0.358 OA
ATOM     27  N   UNL     1      31.652 -24.197 -14.730  0.00  0.00    +0.390 N 
ATOM     28  C   UNL     1      30.846 -25.426 -14.726  0.00  0.00    -0.045 C 
ATOM     29  C   UNL     1      31.437 -23.458 -15.982  0.00  0.00    -0.045 C 
ATOM     30  C   UNL     1      29.374 -25.082 -14.934  0.00  0.00    +0.119 C 
ATOM     31  C   UNL     1      29.951 -23.160 -16.159  0.00  0.00    +0.119 C 
ATOM     32  H   UNL     1      31.355 -23.610 -13.951  0.00  0.00    -0.079 HD
ENDBRANCH  25  27
ENDBRANCH  24  25
ENDBRANCH  23  24
ENDBRANCH   4  23
TORSDOF 6
ENDMDL
