MODEL 1
REMARK VINA RESULT:     -12.0      0.000      0.000
REMARK  Name = 15602701
REMARK  5 active torsions:
REMARK  status: ('A' for Active; 'I' for Inactive)
REMARK    1  A    between atoms: N_5  and  C_12
REMARK    2  A    between atoms: C_6  and  C_22
REMARK    3  A    between atoms: C_13  and  C_21
REMARK    4  A    between atoms: C_22  and  C_23
REMARK    5  A    between atoms: C_23  and  N_24
REMARK                            x       y       z     vdW  Elec       q    Type
REMARK                         _______ _______ _______ _____ _____    ______ ____
ROOT
ATOM      1  S   UNL     1      36.785 -20.547 -20.049  0.00  0.00    -0.056 S 
ATOM      2  O   UNL     1      35.497 -23.451 -16.662  0.00  0.00    -0.252 OA
ATOM      3  N   UNL     1      34.814 -21.908 -19.078  0.00  0.00    -0.223 NA
ATOM      4  N   UNL     1      36.920 -22.066 -17.917  0.00  0.00    -0.248 N 
ATOM      5  N   UNL     1      37.733 -23.165 -16.050  0.00  0.00    -0.268 N 
ATOM      6  C   UNL     1      35.277 -20.475 -20.824  0.00  0.00    +0.031 C 
ATOM      7  C   UNL     1      34.351 -21.241 -20.195  0.00  0.00    +0.103 C 
ATOM      8  C   UNL     1      36.083 -21.617 -18.905  0.00  0.00    +0.166 C 
ATOM      9  C   UNL     1      36.600 -22.950 -16.852  0.00  0.00    +0.310 C 
ATOM     10  H   UNL     1      37.848 -21.738 -17.948  0.00  0.00    +0.158 HD
ATOM     11  H   UNL     1      38.553 -22.693 -16.326  0.00  0.00    +0.156 HD
ENDROOT
BRANCH   5  12
ATOM     12  C   UNL     1      37.842 -23.974 -14.895  0.00  0.00    +0.052 C 
ATOM     13  C   UNL     1      37.106 -24.540 -12.682  0.00  0.00    +0.073 C 
ATOM     14  C   UNL     1      36.998 -23.741 -13.821  0.00  0.00    +0.019 C 
ATOM     15  C   UNL     1      38.789 -24.985 -14.862  0.00  0.00    +0.015 C 
ATOM     16  C   UNL     1      38.054 -25.562 -12.634  0.00  0.00    +0.004 C 
ATOM     17  C   UNL     1      38.896 -25.784 -13.724  0.00  0.00    +0.001 C 
BRANCH  13  21
ATOM     18  F   UNL     1      35.765 -25.452 -10.923  0.00  0.00    -0.166 F 
ATOM     19  F   UNL     1      36.788 -23.585 -10.513  0.00  0.00    -0.166 F 
ATOM     20  F   UNL     1      35.079 -23.611 -11.856  0.00  0.00    -0.166 F 
ATOM     21  C   UNL     1      36.205 -24.303 -11.517  0.00  0.00    +0.419 C 
ENDBRANCH  13  21
ENDBRANCH   5  12
BRANCH   6  22
ATOM     22  C   UNL     1      35.113 -19.622 -22.060  0.00  0.00    +0.056 C 
BRANCH  22  23
ATOM     23  C   UNL     1      36.208 -18.563 -22.193  0.00  0.00    +0.093 C 
BRANCH  23  24
ATOM     24  N   UNL     1      35.647 -17.245 -22.240  0.00  0.00    -0.320 N 
ATOM     25  N   UNL     1      34.421 -14.431 -22.488  0.00  0.00    -0.220 N 
ATOM     26  N   UNL     1      33.866 -13.299 -22.963  0.00  0.00    -0.178 NA
ATOM     27  N   UNL     1      35.270 -17.317 -24.600  0.00  0.00    -0.232 NA
ATOM     28  N   UNL     1      34.279 -15.454 -25.822  0.00  0.00    -0.245 NA
ATOM     29  C   UNL     1      34.654 -15.375 -23.444  0.00  0.00    +0.185 C 
ATOM     30  C   UNL     1      35.191 -16.649 -23.427  0.00  0.00    +0.128 C 
ATOM     31  C   UNL     1      34.214 -14.813 -24.632  0.00  0.00    +0.103 C 
ATOM     32  C   UNL     1      33.742 -13.538 -24.273  0.00  0.00    +0.134 C 
ATOM     33  C   UNL     1      34.703 -14.524 -21.074  0.00  0.00    +0.135 C 
ATOM     34  C   UNL     1      34.816 -16.688 -25.709  0.00  0.00    +0.251 C 
ATOM     35  H   UNL     1      35.577 -16.735 -21.401  0.00  0.00    +0.148 HD
ENDBRANCH  23  24
ENDBRANCH  22  23
ENDBRANCH   6  22
TORSDOF 5
ENDMDL
MODEL 2
REMARK VINA RESULT:     -11.8      0.629      1.909
REMARK  Name = 15602701
REMARK  5 active torsions:
REMARK  status: ('A' for Active; 'I' for Inactive)
REMARK    1  A    between atoms: N_5  and  C_12
REMARK    2  A    between atoms: C_6  and  C_22
REMARK    3  A    between atoms: C_13  and  C_21
REMARK    4  A    between atoms: C_22  and  C_23
REMARK    5  A    between atoms: C_23  and  N_24
REMARK                            x       y       z     vdW  Elec       q    Type
REMARK                         _______ _______ _______ _____ _____    ______ ____
ROOT
ATOM      1  S   UNL     1      36.714 -20.627 -20.132  0.00  0.00    -0.056 S 
ATOM      2  O   UNL     1      35.471 -23.408 -16.628  0.00  0.00    -0.252 OA
ATOM      3  N   UNL     1      34.743 -21.909 -19.058  0.00  0.00    -0.223 NA
ATOM      4  N   UNL     1      36.884 -22.094 -17.967  0.00  0.00    -0.248 N 
ATOM      5  N   UNL     1      37.734 -23.167 -16.102  0.00  0.00    -0.268 N 
ATOM      6  C   UNL     1      35.181 -20.534 -20.857  0.00  0.00    +0.031 C 
ATOM      7  C   UNL     1      34.258 -21.258 -20.175  0.00  0.00    +0.103 C 
ATOM      8  C   UNL     1      36.025 -21.648 -18.937  0.00  0.00    +0.166 C 
ATOM      9  C   UNL     1      36.579 -22.942 -16.869  0.00  0.00    +0.310 C 
ATOM     10  H   UNL     1      37.820 -21.792 -18.039  0.00  0.00    +0.158 HD
ATOM     11  H   UNL     1      38.556 -22.725 -16.418  0.00  0.00    +0.156 HD
ENDROOT
BRANCH   5  12
ATOM     12  C   UNL     1      37.863 -23.950 -14.930  0.00  0.00    +0.052 C 
ATOM     13  C   UNL     1      37.142 -24.486 -12.706  0.00  0.00    +0.073 C 
ATOM     14  C   UNL     1      37.015 -23.714 -13.860  0.00  0.00    +0.019 C 
ATOM     15  C   UNL     1      38.833 -24.937 -14.878  0.00  0.00    +0.015 C 
ATOM     16  C   UNL     1      38.114 -25.485 -12.637  0.00  0.00    +0.004 C 
ATOM     17  C   UNL     1      38.960 -25.709 -13.723  0.00  0.00    +0.001 C 
BRANCH  13  21
ATOM     18  F   UNL     1      36.806 -23.504 -10.550  0.00  0.00    -0.166 F 
ATOM     19  F   UNL     1      35.090 -23.582 -11.873  0.00  0.00    -0.166 F 
ATOM     20  F   UNL     1      35.830 -25.405 -10.948  0.00  0.00    -0.166 F 
ATOM     21  C   UNL     1      36.237 -24.247 -11.544  0.00  0.00    +0.419 C 
ENDBRANCH  13  21
ENDBRANCH   5  12
BRANCH   6  22
ATOM     22  C   UNL     1      34.996 -19.708 -22.108  0.00  0.00    +0.056 C 
BRANCH  22  23
ATOM     23  C   UNL     1      36.026 -18.585 -22.229  0.00  0.00    +0.093 C 
BRANCH  23  24
ATOM     24  N   UNL     1      35.540 -17.530 -23.069  0.00  0.00    -0.320 N 
ATOM     25  N   UNL     1      34.473 -15.180 -24.750  0.00  0.00    -0.220 N 
ATOM     26  N   UNL     1      33.961 -13.997 -25.140  0.00  0.00    -0.178 NA
ATOM     27  N   UNL     1      35.056 -16.077 -21.233  0.00  0.00    -0.232 NA
ATOM     28  N   UNL     1      34.119 -13.847 -21.543  0.00  0.00    -0.245 NA
ATOM     29  C   UNL     1      34.606 -15.304 -23.398  0.00  0.00    +0.185 C 
ATOM     30  C   UNL     1      35.069 -16.305 -22.565  0.00  0.00    +0.128 C 
ATOM     31  C   UNL     1      34.146 -14.108 -22.871  0.00  0.00    +0.103 C 
ATOM     32  C   UNL     1      33.764 -13.346 -23.989  0.00  0.00    +0.134 C 
ATOM     33  C   UNL     1      34.813 -16.156 -25.759  0.00  0.00    +0.135 C 
ATOM     34  C   UNL     1      34.589 -14.878 -20.810  0.00  0.00    +0.251 C 
ATOM     35  H   UNL     1      35.538 -17.669 -24.043  0.00  0.00    +0.148 HD
ENDBRANCH  23  24
ENDBRANCH  22  23
ENDBRANCH   6  22
TORSDOF 5
ENDMDL
MODEL 3
REMARK VINA RESULT:     -11.6      5.250     11.808
REMARK  Name = 15602701
REMARK  5 active torsions:
REMARK  status: ('A' for Active; 'I' for Inactive)
REMARK    1  A    between atoms: N_5  and  C_12
REMARK    2  A    between atoms: C_6  and  C_22
REMARK    3  A    between atoms: C_13  and  C_21
REMARK    4  A    between atoms: C_22  and  C_23
REMARK    5  A    between atoms: C_23  and  N_24
REMARK                            x       y       z     vdW  Elec       q    Type
REMARK                         _______ _______ _______ _____ _____    ______ ____
ROOT
ATOM      1  S   UNL     1      34.456 -23.161 -17.020  0.00  0.00    -0.056 S 
ATOM      2  O   UNL     1      32.776 -20.725 -20.598  0.00  0.00    -0.252 OA
ATOM      3  N   UNL     1      32.298 -22.403 -18.225  0.00  0.00    -0.223 NA
ATOM      4  N   UNL     1      34.387 -21.659 -19.167  0.00  0.00    -0.248 N 
ATOM      5  N   UNL     1      35.055 -20.371 -20.970  0.00  0.00    -0.268 N 
ATOM      6  C   UNL     1      32.954 -23.654 -16.402  0.00  0.00    +0.031 C 
ATOM      7  C   UNL     1      31.924 -23.177 -17.144  0.00  0.00    +0.103 C 
ATOM      8  C   UNL     1      33.609 -22.327 -18.258  0.00  0.00    +0.166 C 
ATOM      9  C   UNL     1      33.948 -20.897 -20.283  0.00  0.00    +0.310 C 
ATOM     10  H   UNL     1      35.362 -21.714 -19.032  0.00  0.00    +0.158 HD
ATOM     11  H   UNL     1      35.939 -20.594 -20.599  0.00  0.00    +0.156 HD
ENDROOT
BRANCH   5  12
ATOM     12  C   UNL     1      35.056 -19.560 -22.129  0.00  0.00    +0.052 C 
ATOM     13  C   UNL     1      35.084 -17.382 -23.136  0.00  0.00    +0.073 C 
ATOM     14  C   UNL     1      35.083 -18.181 -21.992  0.00  0.00    +0.019 C 
ATOM     15  C   UNL     1      35.032 -20.161 -23.377  0.00  0.00    +0.015 C 
ATOM     16  C   UNL     1      35.061 -17.972 -24.400  0.00  0.00    +0.004 C 
ATOM     17  C   UNL     1      35.034 -19.361 -24.520  0.00  0.00    +0.001 C 
BRANCH  13  21
ATOM     18  F   UNL     1      33.950 -15.290 -23.388  0.00  0.00    -0.166 F 
ATOM     19  F   UNL     1      35.340 -15.462 -21.733  0.00  0.00    -0.166 F 
ATOM     20  F   UNL     1      36.090 -15.322 -23.769  0.00  0.00    -0.166 F 
ATOM     21  C   UNL     1      35.114 -15.896 -23.007  0.00  0.00    +0.419 C 
ENDBRANCH  13  21
ENDBRANCH   5  12
BRANCH   6  22
ATOM     22  C   UNL     1      32.905 -24.523 -15.166  0.00  0.00    +0.056 C 
BRANCH  22  23
ATOM     23  C   UNL     1      33.969 -24.142 -14.137  0.00  0.00    +0.093 C 
BRANCH  23  24
ATOM     24  N   UNL     1      35.188 -24.859 -14.367  0.00  0.00    -0.320 N 
ATOM     25  N   UNL     1      37.875 -26.312 -14.761  0.00  0.00    -0.220 N 
ATOM     26  N   UNL     1      39.165 -26.692 -14.675  0.00  0.00    -0.178 NA
ATOM     27  N   UNL     1      36.440 -23.547 -12.810  0.00  0.00    -0.232 NA
ATOM     28  N   UNL     1      38.808 -23.936 -12.380  0.00  0.00    -0.245 NA
ATOM     29  C   UNL     1      37.554 -25.264 -13.950  0.00  0.00    +0.185 C 
ATOM     30  C   UNL     1      36.391 -24.556 -13.708  0.00  0.00    +0.128 C 
ATOM     31  C   UNL     1      38.725 -24.940 -13.284  0.00  0.00    +0.103 C 
ATOM     32  C   UNL     1      39.679 -25.850 -13.771  0.00  0.00    +0.134 C 
ATOM     33  C   UNL     1      37.002 -27.022 -15.666  0.00  0.00    +0.135 C 
ATOM     34  C   UNL     1      37.629 -23.303 -12.210  0.00  0.00    +0.251 C 
ATOM     35  H   UNL     1      35.182 -25.599 -15.017  0.00  0.00    +0.148 HD
ENDBRANCH  23  24
ENDBRANCH  22  23
ENDBRANCH   6  22
TORSDOF 5
ENDMDL
MODEL 4
REMARK VINA RESULT:     -11.4      5.771     11.805
REMARK  Name = 15602701
REMARK  5 active torsions:
REMARK  status: ('A' for Active; 'I' for Inactive)
REMARK    1  A    between atoms: N_5  and  C_12
REMARK    2  A    between atoms: C_6  and  C_22
REMARK    3  A    between atoms: C_13  and  C_21
REMARK    4  A    between atoms: C_22  and  C_23
REMARK    5  A    between atoms: C_23  and  N_24
REMARK                            x       y       z     vdW  Elec       q    Type
REMARK                         _______ _______ _______ _____ _____    ______ ____
ROOT
ATOM      1  S   UNL     1      34.040 -23.710 -16.381  0.00  0.00    -0.056 S 
ATOM      2  O   UNL     1      33.358 -20.894 -20.009  0.00  0.00    -0.252 OA
ATOM      3  N   UNL     1      32.249 -22.525 -17.820  0.00  0.00    -0.223 NA
ATOM      4  N   UNL     1      34.552 -22.157 -18.429  0.00  0.00    -0.248 N 
ATOM      5  N   UNL     1      35.693 -20.962 -20.049  0.00  0.00    -0.268 N 
ATOM      6  C   UNL     1      32.401 -23.932 -15.999  0.00  0.00    +0.031 C 
ATOM      7  C   UNL     1      31.590 -23.248 -16.845  0.00  0.00    +0.103 C 
ATOM      8  C   UNL     1      33.544 -22.695 -17.673  0.00  0.00    +0.166 C 
ATOM      9  C   UNL     1      34.422 -21.292 -19.549  0.00  0.00    +0.310 C 
ATOM     10  H   UNL     1      35.471 -22.398 -18.167  0.00  0.00    +0.158 HD
ATOM     11  H   UNL     1      36.460 -21.359 -19.576  0.00  0.00    +0.156 HD
ENDROOT
BRANCH   5  12
ATOM     12  C   UNL     1      36.006 -20.131 -21.150  0.00  0.00    +0.052 C 
ATOM     13  C   UNL     1      35.509 -19.343 -23.361  0.00  0.00    +0.073 C 
ATOM     14  C   UNL     1      35.200 -20.164 -22.276  0.00  0.00    +0.019 C 
ATOM     15  C   UNL     1      37.111 -19.299 -21.078  0.00  0.00    +0.015 C 
ATOM     16  C   UNL     1      36.619 -18.500 -23.305  0.00  0.00    +0.004 C 
ATOM     17  C   UNL     1      37.420 -18.479 -22.163  0.00  0.00    +0.001 C 
BRANCH  13  21
ATOM     18  F   UNL     1      34.932 -20.399 -25.430  0.00  0.00    -0.166 F 
ATOM     19  F   UNL     1      33.318 -19.480 -24.311  0.00  0.00    -0.166 F 
ATOM     20  F   UNL     1      34.777 -18.232 -25.332  0.00  0.00    -0.166 F 
ATOM     21  C   UNL     1      34.652 -19.365 -24.582  0.00  0.00    +0.419 C 
ENDBRANCH  13  21
ENDBRANCH   5  12
BRANCH   6  22
ATOM     22  C   UNL     1      32.019 -24.814 -14.833  0.00  0.00    +0.056 C 
BRANCH  22  23
ATOM     23  C   UNL     1      32.915 -24.598 -13.614  0.00  0.00    +0.093 C 
BRANCH  23  24
ATOM     24  N   UNL     1      34.241 -25.085 -13.857  0.00  0.00    -0.320 N 
ATOM     25  N   UNL     1      37.131 -26.075 -14.247  0.00  0.00    -0.220 N 
ATOM     26  N   UNL     1      38.441 -26.340 -14.079  0.00  0.00    -0.178 NA
ATOM     27  N   UNL     1      35.103 -24.233 -11.797  0.00  0.00    -0.232 NA
ATOM     28  N   UNL     1      37.433 -24.517 -11.139  0.00  0.00    -0.245 NA
ATOM     29  C   UNL     1      36.573 -25.379 -13.216  0.00  0.00    +0.185 C 
ATOM     30  C   UNL     1      35.303 -24.899 -12.956  0.00  0.00    +0.128 C 
ATOM     31  C   UNL     1      37.600 -25.179 -12.307  0.00  0.00    +0.103 C 
ATOM     32  C   UNL     1      38.722 -25.790 -12.892  0.00  0.00    +0.134 C 
ATOM     33  C   UNL     1      36.480 -26.534 -15.452  0.00  0.00    +0.135 C 
ATOM     34  C   UNL     1      36.166 -24.085 -10.971  0.00  0.00    +0.251 C 
ATOM     35  H   UNL     1      34.415 -25.573 -14.694  0.00  0.00    +0.148 HD
ENDBRANCH  23  24
ENDBRANCH  22  23
ENDBRANCH   6  22
TORSDOF 5
ENDMDL
MODEL 5
REMARK VINA RESULT:     -11.4      1.849      2.334
REMARK  Name = 15602701
REMARK  5 active torsions:
REMARK  status: ('A' for Active; 'I' for Inactive)
REMARK    1  A    between atoms: N_5  and  C_12
REMARK    2  A    between atoms: C_6  and  C_22
REMARK    3  A    between atoms: C_13  and  C_21
REMARK    4  A    between atoms: C_22  and  C_23
REMARK    5  A    between atoms: C_23  and  N_24
REMARK                            x       y       z     vdW  Elec       q    Type
REMARK                         _______ _______ _______ _____ _____    ______ ____
ROOT
ATOM      1  S   UNL     1      34.485 -21.128 -20.729  0.00  0.00    -0.056 S 
ATOM      2  O   UNL     1      37.087 -22.091 -17.005  0.00  0.00    -0.252 OA
ATOM      3  N   UNL     1      36.748 -20.672 -19.565  0.00  0.00    -0.223 NA
ATOM      4  N   UNL     1      35.228 -22.165 -18.439  0.00  0.00    -0.248 N 
ATOM      5  N   UNL     1      35.219 -23.391 -16.477  0.00  0.00    -0.268 N 
ATOM      6  C   UNL     1      35.596 -20.084 -21.475  0.00  0.00    +0.031 C 
ATOM      7  C   UNL     1      36.730 -19.950 -20.742  0.00  0.00    +0.103 C 
ATOM      8  C   UNL     1      35.616 -21.331 -19.454  0.00  0.00    +0.166 C 
ATOM      9  C   UNL     1      35.965 -22.507 -17.274  0.00  0.00    +0.310 C 
ATOM     10  H   UNL     1      34.336 -22.575 -18.527  0.00  0.00    +0.158 HD
ATOM     11  H   UNL     1      34.331 -23.639 -16.822  0.00  0.00    +0.156 HD
ENDROOT
BRANCH   5  12
ATOM     12  C   UNL     1      35.587 -23.970 -15.239  0.00  0.00    +0.052 C 
ATOM     13  C   UNL     1      37.180 -25.169 -13.903  0.00  0.00    +0.073 C 
ATOM     14  C   UNL     1      36.817 -24.599 -15.124  0.00  0.00    +0.019 C 
ATOM     15  C   UNL     1      34.712 -23.895 -14.169  0.00  0.00    +0.015 C 
ATOM     16  C   UNL     1      36.309 -25.102 -12.815  0.00  0.00    +0.004 C 
ATOM     17  C   UNL     1      35.075 -24.465 -12.948  0.00  0.00    +0.001 C 
BRANCH  13  21
ATOM     18  F   UNL     1      39.567 -25.009 -13.904  0.00  0.00    -0.166 F 
ATOM     19  F   UNL     1      38.677 -26.447 -12.546  0.00  0.00    -0.166 F 
ATOM     20  F   UNL     1      38.684 -26.837 -14.685  0.00  0.00    -0.166 F 
ATOM     21  C   UNL     1      38.499 -25.849 -13.761  0.00  0.00    +0.419 C 
ENDBRANCH  13  21
ENDBRANCH   5  12
BRANCH   6  22
ATOM     22  C   UNL     1      35.247 -19.445 -22.798  0.00  0.00    +0.056 C 
BRANCH  22  23
ATOM     23  C   UNL     1      36.180 -18.289 -23.158  0.00  0.00    +0.093 C 
BRANCH  23  24
ATOM     24  N   UNL     1      35.577 -17.026 -22.853  0.00  0.00    -0.320 N 
ATOM     25  N   UNL     1      34.242 -14.297 -22.342  0.00  0.00    -0.220 N 
ATOM     26  N   UNL     1      33.597 -13.125 -22.494  0.00  0.00    -0.178 NA
ATOM     27  N   UNL     1      34.913 -16.617 -25.113  0.00  0.00    -0.232 NA
ATOM     28  N   UNL     1      33.720 -14.598 -25.780  0.00  0.00    -0.245 NA
ATOM     29  C   UNL     1      34.384 -15.003 -23.501  0.00  0.00    +0.185 C 
ATOM     30  C   UNL     1      34.958 -16.218 -23.822  0.00  0.00    +0.128 C 
ATOM     31  C   UNL     1      33.783 -14.228 -24.480  0.00  0.00    +0.103 C 
ATOM     32  C   UNL     1      33.319 -13.087 -23.802  0.00  0.00    +0.134 C 
ATOM     33  C   UNL     1      34.700 -14.672 -21.025  0.00  0.00    +0.135 C 
ATOM     34  C   UNL     1      34.305 -15.795 -26.000  0.00  0.00    +0.251 C 
ATOM     35  H   UNL     1      35.595 -16.710 -21.921  0.00  0.00    +0.148 HD
ENDBRANCH  23  24
ENDBRANCH  22  23
ENDBRANCH   6  22
TORSDOF 5
ENDMDL
MODEL 6
REMARK VINA RESULT:     -11.3      1.997      2.936
REMARK  Name = 15602701
REMARK  5 active torsions:
REMARK  status: ('A' for Active; 'I' for Inactive)
REMARK    1  A    between atoms: N_5  and  C_12
REMARK    2  A    between atoms: C_6  and  C_22
REMARK    3  A    between atoms: C_13  and  C_21
REMARK    4  A    between atoms: C_22  and  C_23
REMARK    5  A    between atoms: C_23  and  N_24
REMARK                            x       y       z     vdW  Elec       q    Type
REMARK                         _______ _______ _______ _____ _____    ______ ____
ROOT
ATOM      1  S   UNL     1      34.264 -21.009 -20.717  0.00  0.00    -0.056 S 
ATOM      2  O   UNL     1      37.040 -22.183 -17.184  0.00  0.00    -0.252 OA
ATOM      3  N   UNL     1      36.634 -20.739 -19.720  0.00  0.00    -0.223 NA
ATOM      4  N   UNL     1      35.083 -22.105 -18.481  0.00  0.00    -0.248 N 
ATOM      5  N   UNL     1      35.117 -23.329 -16.517  0.00  0.00    -0.268 N 
ATOM      6  C   UNL     1      35.400 -20.058 -21.545  0.00  0.00    +0.031 C 
ATOM      7  C   UNL     1      36.591 -20.017 -20.896  0.00  0.00    +0.103 C 
ATOM      8  C   UNL     1      35.464 -21.304 -19.525  0.00  0.00    +0.166 C 
ATOM      9  C   UNL     1      35.872 -22.507 -17.370  0.00  0.00    +0.310 C 
ATOM     10  H   UNL     1      34.157 -22.441 -18.503  0.00  0.00    +0.158 HD
ATOM     11  H   UNL     1      34.189 -23.504 -16.797  0.00  0.00    +0.156 HD
ENDROOT
BRANCH   5  12
ATOM     12  C   UNL     1      35.525 -23.937 -15.307  0.00  0.00    +0.052 C 
ATOM     13  C   UNL     1      37.141 -25.203 -14.064  0.00  0.00    +0.073 C 
ATOM     14  C   UNL     1      36.738 -24.604 -15.258  0.00  0.00    +0.019 C 
ATOM     15  C   UNL     1      34.703 -23.852 -14.195  0.00  0.00    +0.015 C 
ATOM     16  C   UNL     1      36.325 -25.126 -12.935  0.00  0.00    +0.004 C 
ATOM     17  C   UNL     1      35.106 -24.451 -13.001  0.00  0.00    +0.001 C 
BRANCH  13  21
ATOM     18  F   UNL     1      39.501 -25.193 -14.456  0.00  0.00    -0.166 F 
ATOM     19  F   UNL     1      38.795 -26.296 -12.727  0.00  0.00    -0.166 F 
ATOM     20  F   UNL     1      38.448 -27.076 -14.727  0.00  0.00    -0.166 F 
ATOM     21  C   UNL     1      38.444 -25.925 -13.994  0.00  0.00    +0.419 C 
ENDBRANCH  13  21
ENDBRANCH   5  12
BRANCH   6  22
ATOM     22  C   UNL     1      35.009 -19.391 -22.843  0.00  0.00    +0.056 C 
BRANCH  22  23
ATOM     23  C   UNL     1      36.065 -18.403 -23.339  0.00  0.00    +0.093 C 
BRANCH  23  24
ATOM     24  N   UNL     1      35.457 -17.207 -23.840  0.00  0.00    -0.320 N 
ATOM     25  N   UNL     1      34.142 -14.583 -24.777  0.00  0.00    -0.220 N 
ATOM     26  N   UNL     1      33.572 -13.364 -24.812  0.00  0.00    -0.178 NA
ATOM     27  N   UNL     1      35.235 -16.222 -21.673  0.00  0.00    -0.232 NA
ATOM     28  N   UNL     1      34.250 -14.017 -21.334  0.00  0.00    -0.245 NA
ATOM     29  C   UNL     1      34.471 -15.002 -23.521  0.00  0.00    +0.185 C 
ATOM     30  C   UNL     1      35.056 -16.146 -23.011  0.00  0.00    +0.128 C 
ATOM     31  C   UNL     1      34.085 -13.973 -22.677  0.00  0.00    +0.103 C 
ATOM     32  C   UNL     1      33.540 -12.995 -23.527  0.00  0.00    +0.134 C 
ATOM     33  C   UNL     1      34.337 -15.295 -26.018  0.00  0.00    +0.135 C 
ATOM     34  C   UNL     1      34.827 -15.168 -20.927  0.00  0.00    +0.251 C 
ATOM     35  H   UNL     1      35.313 -17.124 -24.810  0.00  0.00    +0.148 HD
ENDBRANCH  23  24
ENDBRANCH  22  23
ENDBRANCH   6  22
TORSDOF 5
ENDMDL
MODEL 7
REMARK VINA RESULT:     -11.1      1.199      2.181
REMARK  Name = 15602701
REMARK  5 active torsions:
REMARK  status: ('A' for Active; 'I' for Inactive)
REMARK    1  A    between atoms: N_5  and  C_12
REMARK    2  A    between atoms: C_6  and  C_22
REMARK    3  A    between atoms: C_13  and  C_21
REMARK    4  A    between atoms: C_22  and  C_23
REMARK    5  A    between atoms: C_23  and  N_24
REMARK                            x       y       z     vdW  Elec       q    Type
REMARK                         _______ _______ _______ _____ _____    ______ ____
ROOT
ATOM      1  S   UNL     1      34.788 -21.228 -20.461  0.00  0.00    -0.056 S 
ATOM      2  O   UNL     1      37.915 -21.779 -17.073  0.00  0.00    -0.252 OA
ATOM      3  N   UNL     1      37.081 -20.442 -19.562  0.00  0.00    -0.223 NA
ATOM      4  N   UNL     1      35.932 -22.131 -18.283  0.00  0.00    -0.248 N 
ATOM      5  N   UNL     1      36.328 -23.332 -16.345  0.00  0.00    -0.268 N 
ATOM      6  C   UNL     1      35.643 -20.040 -21.320  0.00  0.00    +0.031 C 
ATOM      7  C   UNL     1      36.823 -19.738 -20.723  0.00  0.00    +0.103 C 
ATOM      8  C   UNL     1      36.076 -21.256 -19.328  0.00  0.00    +0.166 C 
ATOM      9  C   UNL     1      36.841 -22.355 -17.215  0.00  0.00    +0.310 C 
ATOM     10  H   UNL     1      35.105 -22.666 -18.271  0.00  0.00    +0.158 HD
ATOM     11  H   UNL     1      35.451 -23.708 -16.588  0.00  0.00    +0.156 HD
ENDROOT
BRANCH   5  12
ATOM     12  C   UNL     1      36.916 -23.843 -15.165  0.00  0.00    +0.052 C 
ATOM     13  C   UNL     1      36.797 -24.274 -12.807  0.00  0.00    +0.073 C 
ATOM     14  C   UNL     1      36.216 -23.769 -13.971  0.00  0.00    +0.019 C 
ATOM     15  C   UNL     1      38.179 -24.409 -15.226  0.00  0.00    +0.015 C 
ATOM     16  C   UNL     1      38.068 -24.847 -12.853  0.00  0.00    +0.004 C 
ATOM     17  C   UNL     1      38.759 -24.914 -14.062  0.00  0.00    +0.001 C 
BRANCH  13  21
ATOM     18  F   UNL     1      34.849 -23.573 -11.607  0.00  0.00    -0.166 F 
ATOM     19  F   UNL     1      35.779 -25.427 -10.975  0.00  0.00    -0.166 F 
ATOM     20  F   UNL     1      36.749 -23.528 -10.550  0.00  0.00    -0.166 F 
ATOM     21  C   UNL     1      36.057 -24.203 -11.513  0.00  0.00    +0.419 C 
ENDBRANCH  13  21
ENDBRANCH   5  12
BRANCH   6  22
ATOM     22  C   UNL     1      35.054 -19.467 -22.588  0.00  0.00    +0.056 C 
BRANCH  22  23
ATOM     23  C   UNL     1      36.046 -18.594 -23.356  0.00  0.00    +0.093 C 
BRANCH  23  24
ATOM     24  N   UNL     1      35.415 -17.405 -23.846  0.00  0.00    -0.320 N 
ATOM     25  N   UNL     1      34.059 -14.794 -24.757  0.00  0.00    -0.220 N 
ATOM     26  N   UNL     1      33.488 -13.574 -24.784  0.00  0.00    -0.178 NA
ATOM     27  N   UNL     1      35.299 -16.387 -21.686  0.00  0.00    -0.232 NA
ATOM     28  N   UNL     1      34.333 -14.176 -21.333  0.00  0.00    -0.245 NA
ATOM     29  C   UNL     1      34.447 -15.194 -23.513  0.00  0.00    +0.185 C 
ATOM     30  C   UNL     1      35.056 -16.331 -23.015  0.00  0.00    +0.128 C 
ATOM     31  C   UNL     1      34.104 -14.152 -22.667  0.00  0.00    +0.103 C 
ATOM     32  C   UNL     1      33.518 -13.186 -23.504  0.00  0.00    +0.134 C 
ATOM     33  C   UNL     1      34.193 -15.524 -25.996  0.00  0.00    +0.135 C 
ATOM     34  C   UNL     1      34.928 -15.321 -20.937  0.00  0.00    +0.251 C 
ATOM     35  H   UNL     1      35.225 -17.337 -24.809  0.00  0.00    +0.148 HD
ENDBRANCH  23  24
ENDBRANCH  22  23
ENDBRANCH   6  22
TORSDOF 5
ENDMDL
MODEL 8
REMARK VINA RESULT:     -10.7      2.920      3.701
REMARK  Name = 15602701
REMARK  5 active torsions:
REMARK  status: ('A' for Active; 'I' for Inactive)
REMARK    1  A    between atoms: N_5  and  C_12
REMARK    2  A    between atoms: C_6  and  C_22
REMARK    3  A    between atoms: C_13  and  C_21
REMARK    4  A    between atoms: C_22  and  C_23
REMARK    5  A    between atoms: C_23  and  N_24
REMARK                            x       y       z     vdW  Elec       q    Type
REMARK                         _______ _______ _______ _____ _____    ______ ____
ROOT
ATOM      1  S   UNL     1      34.788 -20.074 -21.872  0.00  0.00    -0.056 S 
ATOM      2  O   UNL     1      35.875 -21.996 -17.787  0.00  0.00    -0.252 OA
ATOM      3  N   UNL     1      36.662 -20.373 -20.117  0.00  0.00    -0.223 NA
ATOM      4  N   UNL     1      34.550 -21.432 -19.642  0.00  0.00    -0.248 N 
ATOM      5  N   UNL     1      33.663 -22.730 -17.945  0.00  0.00    -0.268 N 
ATOM      6  C   UNL     1      36.298 -19.351 -22.152  0.00  0.00    +0.031 C 
ATOM      7  C   UNL     1      37.170 -19.601 -21.143  0.00  0.00    +0.103 C 
ATOM      8  C   UNL     1      35.415 -20.681 -20.394  0.00  0.00    +0.166 C 
ATOM      9  C   UNL     1      34.809 -22.050 -18.390  0.00  0.00    +0.310 C 
ATOM     10  H   UNL     1      33.645 -21.558 -20.013  0.00  0.00    +0.158 HD
ATOM     11  H   UNL     1      32.877 -22.686 -18.537  0.00  0.00    +0.156 HD
ENDROOT
BRANCH   5  12
ATOM     12  C   UNL     1      33.499 -23.472 -16.751  0.00  0.00    +0.052 C 
ATOM     13  C   UNL     1      32.062 -24.409 -15.073  0.00  0.00    +0.073 C 
ATOM     14  C   UNL     1      32.223 -23.676 -16.250  0.00  0.00    +0.019 C 
ATOM     15  C   UNL     1      34.616 -23.981 -16.110  0.00  0.00    +0.015 C 
ATOM     16  C   UNL     1      33.177 -24.928 -14.416  0.00  0.00    +0.004 C 
ATOM     17  C   UNL     1      34.454 -24.713 -14.934  0.00  0.00    +0.001 C 
BRANCH  13  21
ATOM     18  F   UNL     1      30.640 -24.577 -13.156  0.00  0.00    -0.166 F 
ATOM     19  F   UNL     1      29.770 -23.734 -14.955  0.00  0.00    -0.166 F 
ATOM     20  F   UNL     1      30.195 -25.864 -14.851  0.00  0.00    -0.166 F 
ATOM     21  C   UNL     1      30.696 -24.639 -14.519  0.00  0.00    +0.419 C 
ENDBRANCH  13  21
ENDBRANCH   5  12
BRANCH   6  22
ATOM     22  C   UNL     1      36.519 -18.551 -23.414  0.00  0.00    +0.056 C 
BRANCH  22  23
ATOM     23  C   UNL     1      35.212 -18.059 -24.036  0.00  0.00    +0.093 C 
BRANCH  23  24
ATOM     24  N   UNL     1      34.960 -16.692 -23.690  0.00  0.00    -0.320 N 
ATOM     25  N   UNL     1      34.377 -13.727 -23.089  0.00  0.00    -0.220 N 
ATOM     26  N   UNL     1      34.040 -12.428 -23.198  0.00  0.00    -0.178 NA
ATOM     27  N   UNL     1      34.316 -16.083 -25.910  0.00  0.00    -0.232 NA
ATOM     28  N   UNL     1      33.638 -13.816 -26.499  0.00  0.00    -0.245 NA
ATOM     29  C   UNL     1      34.284 -14.421 -24.260  0.00  0.00    +0.185 C 
ATOM     30  C   UNL     1      34.520 -15.735 -24.620  0.00  0.00    +0.128 C 
ATOM     31  C   UNL     1      33.851 -13.501 -25.200  0.00  0.00    +0.103 C 
ATOM     32  C   UNL     1      33.720 -12.295 -24.490  0.00  0.00    +0.134 C 
ATOM     33  C   UNL     1      34.787 -14.232 -21.800  0.00  0.00    +0.135 C 
ATOM     34  C   UNL     1      33.893 -15.116 -26.759  0.00  0.00    +0.251 C 
ATOM     35  H   UNL     1      35.101 -16.410 -22.757  0.00  0.00    +0.148 HD
ENDBRANCH  23  24
ENDBRANCH  22  23
ENDBRANCH   6  22
TORSDOF 5
ENDMDL
MODEL 9
REMARK VINA RESULT:     -10.7      8.240     12.365
REMARK  Name = 15602701
REMARK  5 active torsions:
REMARK  status: ('A' for Active; 'I' for Inactive)
REMARK    1  A    between atoms: N_5  and  C_12
REMARK    2  A    between atoms: C_6  and  C_22
REMARK    3  A    between atoms: C_13  and  C_21
REMARK    4  A    between atoms: C_22  and  C_23
REMARK    5  A    between atoms: C_23  and  N_24
REMARK                            x       y       z     vdW  Elec       q    Type
REMARK                         _______ _______ _______ _____ _____    ______ ____
ROOT
ATOM      1  S   UNL     1      33.170  -9.284 -23.456  0.00  0.00    -0.056 S 
ATOM      2  O   UNL     1      32.883 -13.819 -22.500  0.00  0.00    -0.252 OA
ATOM      3  N   UNL     1      32.134 -11.040 -21.868  0.00  0.00    -0.223 NA
ATOM      4  N   UNL     1      33.551 -11.871 -23.631  0.00  0.00    -0.248 N 
ATOM      5  N   UNL     1      34.299 -13.937 -24.355  0.00  0.00    -0.268 N 
ATOM      6  C   UNL     1      32.163  -8.758 -22.195  0.00  0.00    +0.031 C 
ATOM      7  C   UNL     1      31.701  -9.796 -21.454  0.00  0.00    +0.103 C 
ATOM      8  C   UNL     1      32.913 -10.892 -22.915  0.00  0.00    +0.166 C 
ATOM      9  C   UNL     1      33.512 -13.272 -23.400  0.00  0.00    +0.310 C 
ATOM     10  H   UNL     1      34.099 -11.569 -24.392  0.00  0.00    +0.158 HD
ATOM     11  H   UNL     1      34.748 -13.365 -25.019  0.00  0.00    +0.156 HD
ENDROOT
BRANCH   5  12
ATOM     12  C   UNL     1      34.528 -15.328 -24.479  0.00  0.00    +0.052 C 
ATOM     13  C   UNL     1      35.382 -17.378 -23.570  0.00  0.00    +0.073 C 
ATOM     14  C   UNL     1      35.157 -16.007 -23.447  0.00  0.00    +0.019 C 
ATOM     15  C   UNL     1      34.117 -15.983 -25.628  0.00  0.00    +0.015 C 
ATOM     16  C   UNL     1      34.974 -18.053 -24.721  0.00  0.00    +0.004 C 
ATOM     17  C   UNL     1      34.342 -17.354 -25.750  0.00  0.00    +0.001 C 
BRANCH  13  21
ATOM     18  F   UNL     1      36.060 -17.459 -21.276  0.00  0.00    -0.166 F 
ATOM     19  F   UNL     1      35.485 -19.335 -22.199  0.00  0.00    -0.166 F 
ATOM     20  F   UNL     1      37.368 -18.391 -22.742  0.00  0.00    -0.166 F 
ATOM     21  C   UNL     1      36.057 -18.125 -22.469  0.00  0.00    +0.419 C 
ENDBRANCH  13  21
ENDBRANCH   5  12
BRANCH   6  22
ATOM     22  C   UNL     1      31.892  -7.281 -22.023  0.00  0.00    +0.056 C 
BRANCH  22  23
ATOM     23  C   UNL     1      33.101  -6.416 -22.379  0.00  0.00    +0.093 C 
BRANCH  23  24
ATOM     24  N   UNL     1      32.743  -5.392 -23.315  0.00  0.00    -0.320 N 
ATOM     25  N   UNL     1      32.086  -3.237 -25.416  0.00  0.00    -0.220 N 
ATOM     26  N   UNL     1      32.097  -2.453 -26.511  0.00  0.00    -0.178 NA
ATOM     27  N   UNL     1      34.480  -5.969 -24.852  0.00  0.00    -0.232 NA
ATOM     28  N   UNL     1      34.817  -4.776 -26.952  0.00  0.00    -0.245 NA
ATOM     29  C   UNL     1      33.063  -4.189 -25.409  0.00  0.00    +0.185 C 
ATOM     30  C   UNL     1      33.429  -5.186 -24.524  0.00  0.00    +0.128 C 
ATOM     31  C   UNL     1      33.760  -4.010 -26.593  0.00  0.00    +0.103 C 
ATOM     32  C   UNL     1      33.121  -2.930 -27.227  0.00  0.00    +0.134 C 
ATOM     33  C   UNL     1      31.086  -2.999 -24.401  0.00  0.00    +0.135 C 
ATOM     34  C   UNL     1      35.101  -5.719 -26.029  0.00  0.00    +0.251 C 
ATOM     35  H   UNL     1      31.981  -4.806 -23.101  0.00  0.00    +0.148 HD
ENDBRANCH  23  24
ENDBRANCH  22  23
ENDBRANCH   6  22
TORSDOF 5
ENDMDL
