MODEL 1
REMARK VINA RESULT:     -12.1      0.000      0.000
REMARK  Name = 107971
REMARK  9 active torsions:
REMARK  status: ('A' for Active; 'I' for Inactive)
REMARK    1  A    between atoms: C_3  and  O_20
REMARK    2  A    between atoms: C_10  and  C_12
REMARK    3  A    between atoms: C_17  and  O_18
REMARK    4  A    between atoms: O_20  and  C_26
REMARK    5  A    between atoms: C_22  and  O_27
REMARK    6  A    between atoms: C_23  and  O_29
REMARK    7  A    between atoms: C_24  and  O_31
REMARK    8  A    between atoms: C_25  and  C_33
REMARK    9  A    between atoms: C_33  and  O_34
REMARK                            x       y       z     vdW  Elec       q    Type
REMARK                         _______ _______ _______ _____ _____    ______ ____
ROOT
ATOM      1  O   UNL     1      36.410 -21.646 -19.070  0.00  0.00    -0.450 OA
ATOM      2  O   UNL     1      32.829 -20.629 -20.740  0.00  0.00    -0.286 OA
ATOM      3  C   UNL     1      34.190 -23.536 -16.886  0.00  0.00    +0.144 C 
ATOM      4  C   UNL     1      35.344 -23.001 -17.457  0.00  0.00    +0.075 C 
ATOM      5  C   UNL     1      32.936 -23.215 -17.408  0.00  0.00    +0.037 C 
ATOM      6  C   UNL     1      35.242 -22.142 -18.551  0.00  0.00    +0.151 C 
ATOM      7  C   UNL     1      33.989 -21.820 -19.073  0.00  0.00    +0.074 C 
ATOM      8  C   UNL     1      32.832 -22.356 -18.503  0.00  0.00    +0.009 C 
ATOM      9  C   UNL     1      33.906 -20.913 -20.232  0.00  0.00    +0.202 C 
ATOM     10  C   UNL     1      35.196 -20.382 -20.752  0.00  0.00    +0.077 C 
ATOM     11  C   UNL     1      36.319 -20.786 -20.138  0.00  0.00    +0.183 C 
ENDROOT
BRANCH  10  12
ATOM     12  C   UNL     1      35.253 -19.438 -21.881  0.00  0.00    +0.006 C 
ATOM     13  C   UNL     1      34.939 -19.869 -23.172  0.00  0.00    +0.003 C 
ATOM     14  C   UNL     1      35.620 -18.108 -21.663  0.00  0.00    +0.003 C 
ATOM     15  C   UNL     1      34.993 -18.974 -24.240  0.00  0.00    +0.037 C 
ATOM     16  C   UNL     1      35.675 -17.214 -22.732  0.00  0.00    +0.037 C 
ATOM     17  C   UNL     1      35.361 -17.647 -24.021  0.00  0.00    +0.134 C 
BRANCH  17  18
ATOM     18  O   UNL     1      35.413 -16.774 -25.064  0.00  0.00    -0.506 OA
ATOM     19  H   UNL     1      34.627 -16.375 -25.380  0.00  0.00    +0.292 HD
ENDBRANCH  17  18
ENDBRANCH  10  12
BRANCH   3  20
ATOM     20  O   UNL     1      34.286 -24.375 -15.815  0.00  0.00    -0.450 OA
BRANCH  20  26
ATOM     21  O   UNL     1      36.482 -24.674 -15.087  0.00  0.00    -0.316 OA
ATOM     22  C   UNL     1      35.720 -24.271 -12.347  0.00  0.00    +0.173 C 
ATOM     23  C   UNL     1      37.081 -24.841 -12.744  0.00  0.00    +0.169 C 
ATOM     24  C   UNL     1      34.691 -24.472 -13.460  0.00  0.00    +0.210 C 
ATOM     25  C   UNL     1      37.494 -24.346 -14.133  0.00  0.00    +0.177 C 
ATOM     26  C   UNL     1      35.242 -24.026 -14.814  0.00  0.00    +0.318 C 
BRANCH  22  27
ATOM     27  O   UNL     1      35.283 -24.949 -11.168  0.00  0.00    -0.379 OA
ATOM     28  H   UNL     1      35.817 -24.660 -10.412  0.00  0.00    +0.211 HD
ENDBRANCH  22  27
BRANCH  23  29
ATOM     29  O   UNL     1      38.059 -24.434 -11.790  0.00  0.00    -0.379 OA
ATOM     30  H   UNL     1      38.294 -25.187 -11.227  0.00  0.00    +0.211 HD
ENDBRANCH  23  29
BRANCH  24  31
ATOM     31  O   UNL     1      33.527 -23.696 -13.174  0.00  0.00    -0.377 OA
ATOM     32  H   UNL     1      33.362 -23.079 -13.904  0.00  0.00    +0.211 HD
ENDBRANCH  24  31
BRANCH  25  33
ATOM     33  C   UNL     1      38.794 -24.993 -14.599  0.00  0.00    +0.169 C 
BRANCH  33  34
ATOM     34  O   UNL     1      39.320 -24.227 -15.668  0.00  0.00    -0.379 OA
ATOM     35  H   UNL     1      38.870 -23.369 -15.701  0.00  0.00    +0.211 HD
ENDBRANCH  33  34
ENDBRANCH  25  33
ENDBRANCH  20  26
ENDBRANCH   3  20
TORSDOF 9
ENDMDL
MODEL 2
REMARK VINA RESULT:     -12.0      1.143      2.054
REMARK  Name = 107971
REMARK  9 active torsions:
REMARK  status: ('A' for Active; 'I' for Inactive)
REMARK    1  A    between atoms: C_3  and  O_20
REMARK    2  A    between atoms: C_10  and  C_12
REMARK    3  A    between atoms: C_17  and  O_18
REMARK    4  A    between atoms: O_20  and  C_26
REMARK    5  A    between atoms: C_22  and  O_27
REMARK    6  A    between atoms: C_23  and  O_29
REMARK    7  A    between atoms: C_24  and  O_31
REMARK    8  A    between atoms: C_25  and  C_33
REMARK    9  A    between atoms: C_33  and  O_34
REMARK                            x       y       z     vdW  Elec       q    Type
REMARK                         _______ _______ _______ _____ _____    ______ ____
ROOT
ATOM      1  O   UNL     1      33.263 -21.419 -20.217  0.00  0.00    -0.450 OA
ATOM      2  O   UNL     1      36.970 -19.787 -20.707  0.00  0.00    -0.286 OA
ATOM      3  C   UNL     1      35.007 -23.107 -17.501  0.00  0.00    +0.144 C 
ATOM      4  C   UNL     1      34.002 -22.702 -18.378  0.00  0.00    +0.075 C 
ATOM      5  C   UNL     1      36.297 -22.591 -17.627  0.00  0.00    +0.037 C 
ATOM      6  C   UNL     1      34.290 -21.780 -19.384  0.00  0.00    +0.151 C 
ATOM      7  C   UNL     1      35.579 -21.263 -19.511  0.00  0.00    +0.074 C 
ATOM      8  C   UNL     1      36.588 -21.667 -18.633  0.00  0.00    +0.009 C 
ATOM      9  C   UNL     1      35.860 -20.287 -20.579  0.00  0.00    +0.202 C 
ATOM     10  C   UNL     1      34.721 -19.938 -21.473  0.00  0.00    +0.077 C 
ATOM     11  C   UNL     1      33.541 -20.523 -21.222  0.00  0.00    +0.183 C 
ENDROOT
BRANCH  10  12
ATOM     12  C   UNL     1      34.874 -19.005 -22.602  0.00  0.00    +0.006 C 
ATOM     13  C   UNL     1      35.349 -17.710 -22.383  0.00  0.00    +0.003 C 
ATOM     14  C   UNL     1      34.544 -19.413 -23.897  0.00  0.00    +0.003 C 
ATOM     15  C   UNL     1      35.494 -16.828 -23.453  0.00  0.00    +0.037 C 
ATOM     16  C   UNL     1      34.688 -18.530 -24.967  0.00  0.00    +0.037 C 
ATOM     17  C   UNL     1      35.163 -17.237 -24.745  0.00  0.00    +0.134 C 
BRANCH  17  18
ATOM     18  O   UNL     1      35.304 -16.375 -25.789  0.00  0.00    -0.506 OA
ATOM     19  H   UNL     1      34.842 -15.559 -25.788  0.00  0.00    +0.292 HD
ENDBRANCH  17  18
ENDBRANCH  10  12
BRANCH   3  20
ATOM     20  O   UNL     1      34.730 -24.010 -16.517  0.00  0.00    -0.450 OA
BRANCH  20  26
ATOM     21  O   UNL     1      36.662 -24.975 -15.637  0.00  0.00    -0.316 OA
ATOM     22  C   UNL     1      35.720 -24.616 -12.947  0.00  0.00    +0.173 C 
ATOM     23  C   UNL     1      36.914 -25.509 -13.285  0.00  0.00    +0.169 C 
ATOM     24  C   UNL     1      34.814 -24.422 -14.163  0.00  0.00    +0.210 C 
ATOM     25  C   UNL     1      37.605 -25.030 -14.565  0.00  0.00    +0.177 C 
ATOM     26  C   UNL     1      35.620 -24.032 -15.401  0.00  0.00    +0.318 C 
BRANCH  22  27
ATOM     27  O   UNL     1      34.981 -25.246 -11.899  0.00  0.00    -0.379 OA
ATOM     28  H   UNL     1      34.349 -25.875 -12.281  0.00  0.00    +0.211 HD
ENDBRANCH  22  27
BRANCH  23  29
ATOM     29  O   UNL     1      37.846 -25.477 -12.207  0.00  0.00    -0.379 OA
ATOM     30  H   UNL     1      37.489 -25.976 -11.456  0.00  0.00    +0.211 HD
ENDBRANCH  23  29
BRANCH  24  31
ATOM     31  O   UNL     1      33.876 -23.380 -13.893  0.00  0.00    -0.377 OA
ATOM     32  H   UNL     1      34.215 -22.818 -13.178  0.00  0.00    +0.211 HD
ENDBRANCH  24  31
BRANCH  25  33
ATOM     33  C   UNL     1      38.729 -25.972 -14.986  0.00  0.00    +0.169 C 
BRANCH  33  34
ATOM     34  O   UNL     1      38.342 -27.299 -14.679  0.00  0.00    -0.379 OA
ATOM     35  H   UNL     1      38.857 -27.918 -15.219  0.00  0.00    +0.211 HD
ENDBRANCH  33  34
ENDBRANCH  25  33
ENDBRANCH  20  26
ENDBRANCH   3  20
TORSDOF 9
ENDMDL
MODEL 3
REMARK VINA RESULT:     -11.5      1.614      3.328
REMARK  Name = 107971
REMARK  9 active torsions:
REMARK  status: ('A' for Active; 'I' for Inactive)
REMARK    1  A    between atoms: C_3  and  O_20
REMARK    2  A    between atoms: C_10  and  C_12
REMARK    3  A    between atoms: C_17  and  O_18
REMARK    4  A    between atoms: O_20  and  C_26
REMARK    5  A    between atoms: C_22  and  O_27
REMARK    6  A    between atoms: C_23  and  O_29
REMARK    7  A    between atoms: C_24  and  O_31
REMARK    8  A    between atoms: C_25  and  C_33
REMARK    9  A    between atoms: C_33  and  O_34
REMARK                            x       y       z     vdW  Elec       q    Type
REMARK                         _______ _______ _______ _____ _____    ______ ____
ROOT
ATOM      1  O   UNL     1      37.255 -19.742 -20.541  0.00  0.00    -0.450 OA
ATOM      2  O   UNL     1      33.466 -20.203 -21.982  0.00  0.00    -0.286 OA
ATOM      3  C   UNL     1      36.012 -22.186 -18.143  0.00  0.00    +0.144 C 
ATOM      4  C   UNL     1      36.854 -21.299 -18.812  0.00  0.00    +0.075 C 
ATOM      5  C   UNL     1      34.702 -22.376 -18.584  0.00  0.00    +0.037 C 
ATOM      6  C   UNL     1      36.383 -20.600 -19.924  0.00  0.00    +0.151 C 
ATOM      7  C   UNL     1      35.073 -20.790 -20.365  0.00  0.00    +0.074 C 
ATOM      8  C   UNL     1      34.228 -21.679 -19.696  0.00  0.00    +0.009 C 
ATOM      9  C   UNL     1      34.598 -20.043 -21.544  0.00  0.00    +0.202 C 
ATOM     10  C   UNL     1      35.571 -19.108 -22.172  0.00  0.00    +0.077 C 
ATOM     11  C   UNL     1      36.795 -19.037 -21.627  0.00  0.00    +0.183 C 
ENDROOT
BRANCH  10  12
ATOM     12  C   UNL     1      35.213 -18.274 -23.332  0.00  0.00    +0.006 C 
ATOM     13  C   UNL     1      35.454 -16.898 -23.308  0.00  0.00    +0.003 C 
ATOM     14  C   UNL     1      34.632 -18.857 -24.461  0.00  0.00    +0.003 C 
ATOM     15  C   UNL     1      35.115 -16.110 -24.407  0.00  0.00    +0.037 C 
ATOM     16  C   UNL     1      34.293 -18.068 -25.559  0.00  0.00    +0.037 C 
ATOM     17  C   UNL     1      34.534 -16.694 -25.533  0.00  0.00    +0.134 C 
BRANCH  17  18
ATOM     18  O   UNL     1      34.203 -15.924 -26.605  0.00  0.00    -0.506 OA
ATOM     19  H   UNL     1      33.743 -16.303 -27.329  0.00  0.00    +0.292 HD
ENDBRANCH  17  18
ENDBRANCH  10  12
BRANCH   3  20
ATOM     20  O   UNL     1      36.469 -22.869 -17.055  0.00  0.00    -0.450 OA
BRANCH  20  26
ATOM     21  O   UNL     1      34.450 -22.873 -15.886  0.00  0.00    -0.316 OA
ATOM     22  C   UNL     1      35.259 -25.143 -14.324  0.00  0.00    +0.173 C 
ATOM     23  C   UNL     1      34.046 -24.288 -13.959  0.00  0.00    +0.169 C 
ATOM     24  C   UNL     1      36.238 -24.368 -15.205  0.00  0.00    +0.210 C 
ATOM     25  C   UNL     1      33.448 -23.633 -15.207  0.00  0.00    +0.177 C 
ATOM     26  C   UNL     1      35.519 -23.684 -16.367  0.00  0.00    +0.318 C 
BRANCH  22  27
ATOM     27  O   UNL     1      35.911 -25.526 -13.112  0.00  0.00    -0.379 OA
ATOM     28  H   UNL     1      35.470 -26.305 -12.739  0.00  0.00    +0.211 HD
ENDBRANCH  22  27
BRANCH  23  29
ATOM     29  O   UNL     1      33.059 -25.109 -13.339  0.00  0.00    -0.379 OA
ATOM     30  H   UNL     1      32.453 -24.553 -12.825  0.00  0.00    +0.211 HD
ENDBRANCH  23  29
BRANCH  24  31
ATOM     31  O   UNL     1      37.205 -25.268 -15.745  0.00  0.00    -0.377 OA
ATOM     32  H   UNL     1      37.539 -24.918 -16.585  0.00  0.00    +0.211 HD
ENDBRANCH  24  31
BRANCH  25  33
ATOM     33  C   UNL     1      32.308 -22.682 -14.855  0.00  0.00    +0.169 C 
BRANCH  33  34
ATOM     34  O   UNL     1      31.111 -23.432 -14.754  0.00  0.00    -0.379 OA
ATOM     35  H   UNL     1      30.837 -23.723 -15.638  0.00  0.00    +0.211 HD
ENDBRANCH  33  34
ENDBRANCH  25  33
ENDBRANCH  20  26
ENDBRANCH   3  20
TORSDOF 9
ENDMDL
MODEL 4
REMARK VINA RESULT:     -10.7      1.719     10.067
REMARK  Name = 107971
REMARK  9 active torsions:
REMARK  status: ('A' for Active; 'I' for Inactive)
REMARK    1  A    between atoms: C_3  and  O_20
REMARK    2  A    between atoms: C_10  and  C_12
REMARK    3  A    between atoms: C_17  and  O_18
REMARK    4  A    between atoms: O_20  and  C_26
REMARK    5  A    between atoms: C_22  and  O_27
REMARK    6  A    between atoms: C_23  and  O_29
REMARK    7  A    between atoms: C_24  and  O_31
REMARK    8  A    between atoms: C_25  and  C_33
REMARK    9  A    between atoms: C_33  and  O_34
REMARK                            x       y       z     vdW  Elec       q    Type
REMARK                         _______ _______ _______ _____ _____    ______ ____
ROOT
ATOM      1  O   UNL     1      33.805 -22.980 -18.004  0.00  0.00    -0.450 OA
ATOM      2  O   UNL     1      37.689 -22.463 -16.866  0.00  0.00    -0.286 OA
ATOM      3  C   UNL     1      34.914 -20.787 -20.693  0.00  0.00    +0.144 C 
ATOM      4  C   UNL     1      34.110 -21.600 -19.895  0.00  0.00    +0.075 C 
ATOM      5  C   UNL     1      36.248 -20.564 -20.347  0.00  0.00    +0.037 C 
ATOM      6  C   UNL     1      34.643 -22.191 -18.749  0.00  0.00    +0.151 C 
ATOM      7  C   UNL     1      35.975 -21.969 -18.403  0.00  0.00    +0.074 C 
ATOM      8  C   UNL     1      36.783 -21.154 -19.201  0.00  0.00    +0.009 C 
ATOM      9  C   UNL     1      36.517 -22.607 -17.190  0.00  0.00    +0.202 C 
ATOM     10  C   UNL     1      35.569 -23.440 -16.399  0.00  0.00    +0.077 C 
ATOM     11  C   UNL     1      34.316 -23.553 -16.864  0.00  0.00    +0.183 C 
ENDROOT
BRANCH  10  12
ATOM     12  C   UNL     1      35.971 -24.102 -15.147  0.00  0.00    +0.006 C 
ATOM     13  C   UNL     1      36.615 -25.341 -15.184  0.00  0.00    +0.003 C 
ATOM     14  C   UNL     1      35.709 -23.492 -13.917  0.00  0.00    +0.003 C 
ATOM     15  C   UNL     1      36.995 -25.967 -13.997  0.00  0.00    +0.037 C 
ATOM     16  C   UNL     1      36.089 -24.119 -12.731  0.00  0.00    +0.037 C 
ATOM     17  C   UNL     1      36.732 -25.357 -12.770  0.00  0.00    +0.134 C 
BRANCH  17  18
ATOM     18  O   UNL     1      37.102 -25.969 -11.612  0.00  0.00    -0.506 OA
ATOM     19  H   UNL     1      36.451 -26.338 -11.049  0.00  0.00    +0.292 HD
ENDBRANCH  17  18
ENDBRANCH  10  12
BRANCH   3  20
ATOM     20  O   UNL     1      34.397 -20.206 -21.813  0.00  0.00    -0.450 OA
BRANCH  20  26
ATOM     21  O   UNL     1      34.726 -17.903 -21.640  0.00  0.00    -0.316 OA
ATOM     22  C   UNL     1      35.371 -17.698 -24.431  0.00  0.00    +0.173 C 
ATOM     23  C   UNL     1      35.072 -16.473 -23.567  0.00  0.00    +0.169 C 
ATOM     24  C   UNL     1      34.768 -18.964 -23.824  0.00  0.00    +0.210 C 
ATOM     25  C   UNL     1      35.422 -16.744 -22.102  0.00  0.00    +0.177 C 
ATOM     26  C   UNL     1      35.109 -19.085 -22.338  0.00  0.00    +0.318 C 
BRANCH  22  27
ATOM     27  O   UNL     1      34.806 -17.476 -25.724  0.00  0.00    -0.379 OA
ATOM     28  H   UNL     1      35.128 -16.632 -26.077  0.00  0.00    +0.211 HD
ENDBRANCH  22  27
BRANCH  23  29
ATOM     29  O   UNL     1      35.837 -15.367 -24.038  0.00  0.00    -0.379 OA
ATOM     30  H   UNL     1      36.559 -15.185 -23.416  0.00  0.00    +0.211 HD
ENDBRANCH  23  29
BRANCH  24  31
ATOM     31  O   UNL     1      35.292 -20.109 -24.496  0.00  0.00    -0.377 OA
ATOM     32  H   UNL     1      34.960 -20.915 -24.070  0.00  0.00    +0.211 HD
ENDBRANCH  24  31
BRANCH  25  33
ATOM     33  C   UNL     1      35.024 -15.578 -21.202  0.00  0.00    +0.169 C 
BRANCH  33  34
ATOM     34  O   UNL     1      34.237 -14.675 -21.957  0.00  0.00    -0.379 OA
ATOM     35  H   UNL     1      33.478 -15.147 -22.334  0.00  0.00    +0.211 HD
ENDBRANCH  33  34
ENDBRANCH  25  33
ENDBRANCH  20  26
ENDBRANCH   3  20
TORSDOF 9
ENDMDL
MODEL 5
REMARK VINA RESULT:     -10.7      1.427      2.401
REMARK  Name = 107971
REMARK  9 active torsions:
REMARK  status: ('A' for Active; 'I' for Inactive)
REMARK    1  A    between atoms: C_3  and  O_20
REMARK    2  A    between atoms: C_10  and  C_12
REMARK    3  A    between atoms: C_17  and  O_18
REMARK    4  A    between atoms: O_20  and  C_26
REMARK    5  A    between atoms: C_22  and  O_27
REMARK    6  A    between atoms: C_23  and  O_29
REMARK    7  A    between atoms: C_24  and  O_31
REMARK    8  A    between atoms: C_25  and  C_33
REMARK    9  A    between atoms: C_33  and  O_34
REMARK                            x       y       z     vdW  Elec       q    Type
REMARK                         _______ _______ _______ _____ _____    ______ ____
ROOT
ATOM      1  O   UNL     1      33.248 -21.114 -20.784  0.00  0.00    -0.450 OA
ATOM      2  O   UNL     1      36.940 -19.405 -21.084  0.00  0.00    -0.286 OA
ATOM      3  C   UNL     1      34.964 -22.964 -18.156  0.00  0.00    +0.144 C 
ATOM      4  C   UNL     1      33.970 -22.512 -19.023  0.00  0.00    +0.075 C 
ATOM      5  C   UNL     1      36.249 -22.424 -18.220  0.00  0.00    +0.037 C 
ATOM      6  C   UNL     1      34.264 -21.519 -19.957  0.00  0.00    +0.151 C 
ATOM      7  C   UNL     1      35.548 -20.978 -20.022  0.00  0.00    +0.074 C 
ATOM      8  C   UNL     1      36.546 -21.430 -19.153  0.00  0.00    +0.009 C 
ATOM      9  C   UNL     1      35.835 -19.926 -21.014  0.00  0.00    +0.202 C 
ATOM     10  C   UNL     1      34.709 -19.531 -21.904  0.00  0.00    +0.077 C 
ATOM     11  C   UNL     1      33.533 -20.147 -21.717  0.00  0.00    +0.183 C 
ENDROOT
BRANCH  10  12
ATOM     12  C   UNL     1      34.871 -18.520 -22.963  0.00  0.00    +0.006 C 
ATOM     13  C   UNL     1      34.584 -18.843 -24.291  0.00  0.00    +0.003 C 
ATOM     14  C   UNL     1      35.311 -17.234 -22.641  0.00  0.00    +0.003 C 
ATOM     15  C   UNL     1      34.737 -17.885 -25.293  0.00  0.00    +0.037 C 
ATOM     16  C   UNL     1      35.465 -16.276 -23.644  0.00  0.00    +0.037 C 
ATOM     17  C   UNL     1      35.178 -16.602 -24.970  0.00  0.00    +0.134 C 
BRANCH  17  18
ATOM     18  O   UNL     1      35.328 -15.667 -25.947  0.00  0.00    -0.506 OA
ATOM     19  H   UNL     1      34.696 -15.607 -26.637  0.00  0.00    +0.292 HD
ENDBRANCH  17  18
ENDBRANCH  10  12
BRANCH   3  20
ATOM     20  O   UNL     1      34.680 -23.937 -17.243  0.00  0.00    -0.450 OA
BRANCH  20  26
ATOM     21  O   UNL     1      35.985 -23.854 -15.311  0.00  0.00    -0.316 OA
ATOM     22  C   UNL     1      33.666 -24.080 -13.631  0.00  0.00    +0.173 C 
ATOM     23  C   UNL     1      35.086 -24.261 -13.096  0.00  0.00    +0.169 C 
ATOM     24  C   UNL     1      33.608 -24.321 -15.139  0.00  0.00    +0.210 C 
ATOM     25  C   UNL     1      36.089 -23.468 -13.939  0.00  0.00    +0.177 C 
ATOM     26  C   UNL     1      34.709 -23.550 -15.868  0.00  0.00    +0.318 C 
BRANCH  22  27
ATOM     27  O   UNL     1      32.820 -25.020 -12.967  0.00  0.00    -0.379 OA
ATOM     28  H   UNL     1      31.891 -24.778 -13.109  0.00  0.00    +0.211 HD
ENDBRANCH  22  27
BRANCH  23  29
ATOM     29  O   UNL     1      35.142 -23.806 -11.746  0.00  0.00    -0.379 OA
ATOM     30  H   UNL     1      35.067 -24.564 -11.147  0.00  0.00    +0.211 HD
ENDBRANCH  23  29
BRANCH  24  31
ATOM     31  O   UNL     1      32.347 -23.881 -15.642  0.00  0.00    -0.377 OA
ATOM     32  H   UNL     1      31.647 -24.470 -15.319  0.00  0.00    +0.211 HD
ENDBRANCH  24  31
BRANCH  25  33
ATOM     33  C   UNL     1      37.526 -23.725 -13.495  0.00  0.00    +0.169 C 
BRANCH  33  34
ATOM     34  O   UNL     1      37.861 -22.786 -12.490  0.00  0.00    -0.379 OA
ATOM     35  H   UNL     1      38.783 -22.919 -12.219  0.00  0.00    +0.211 HD
ENDBRANCH  33  34
ENDBRANCH  25  33
ENDBRANCH  20  26
ENDBRANCH   3  20
TORSDOF 9
ENDMDL
MODEL 6
REMARK VINA RESULT:     -10.6      2.114     10.384
REMARK  Name = 107971
REMARK  9 active torsions:
REMARK  status: ('A' for Active; 'I' for Inactive)
REMARK    1  A    between atoms: C_3  and  O_20
REMARK    2  A    between atoms: C_10  and  C_12
REMARK    3  A    between atoms: C_17  and  O_18
REMARK    4  A    between atoms: O_20  and  C_26
REMARK    5  A    between atoms: C_22  and  O_27
REMARK    6  A    between atoms: C_23  and  O_29
REMARK    7  A    between atoms: C_24  and  O_31
REMARK    8  A    between atoms: C_25  and  C_33
REMARK    9  A    between atoms: C_33  and  O_34
REMARK                            x       y       z     vdW  Elec       q    Type
REMARK                         _______ _______ _______ _____ _____    ______ ____
ROOT
ATOM      1  O   UNL     1      33.660 -21.073 -20.706  0.00  0.00    -0.450 OA
ATOM      2  O   UNL     1      37.243 -21.255 -18.762  0.00  0.00    -0.286 OA
ATOM      3  C   UNL     1      35.620 -18.913 -22.890  0.00  0.00    +0.144 C 
ATOM      4  C   UNL     1      34.556 -19.638 -22.354  0.00  0.00    +0.075 C 
ATOM      5  C   UNL     1      36.866 -18.929 -22.261  0.00  0.00    +0.037 C 
ATOM      6  C   UNL     1      34.741 -20.380 -21.187  0.00  0.00    +0.151 C 
ATOM      7  C   UNL     1      35.986 -20.396 -20.558  0.00  0.00    +0.074 C 
ATOM      8  C   UNL     1      37.053 -19.670 -21.094  0.00  0.00    +0.009 C 
ATOM      9  C   UNL     1      36.159 -21.190 -19.328  0.00  0.00    +0.202 C 
ATOM     10  C   UNL     1      34.955 -21.910 -18.830  0.00  0.00    +0.077 C 
ATOM     11  C   UNL     1      33.828 -21.793 -19.548  0.00  0.00    +0.183 C 
ENDROOT
BRANCH  10  12
ATOM     12  C   UNL     1      34.981 -22.708 -17.593  0.00  0.00    +0.006 C 
ATOM     13  C   UNL     1      33.837 -23.394 -17.176  0.00  0.00    +0.003 C 
ATOM     14  C   UNL     1      36.150 -22.782 -16.831  0.00  0.00    +0.003 C 
ATOM     15  C   UNL     1      33.863 -24.149 -16.004  0.00  0.00    +0.037 C 
ATOM     16  C   UNL     1      36.174 -23.536 -15.658  0.00  0.00    +0.037 C 
ATOM     17  C   UNL     1      35.031 -24.220 -15.245  0.00  0.00    +0.134 C 
BRANCH  17  18
ATOM     18  O   UNL     1      35.055 -24.957 -14.101  0.00  0.00    -0.506 OA
ATOM     19  H   UNL     1      34.257 -25.134 -13.641  0.00  0.00    +0.292 HD
ENDBRANCH  17  18
ENDBRANCH  10  12
BRANCH   3  20
ATOM     20  O   UNL     1      35.442 -18.186 -24.029  0.00  0.00    -0.450 OA
BRANCH  20  26
ATOM     21  O   UNL     1      34.932 -16.435 -22.574  0.00  0.00    -0.316 OA
ATOM     22  C   UNL     1      34.224 -14.711 -24.760  0.00  0.00    +0.173 C 
ATOM     23  C   UNL     1      33.882 -14.376 -23.308  0.00  0.00    +0.169 C 
ATOM     24  C   UNL     1      34.448 -16.212 -24.943  0.00  0.00    +0.210 C 
ATOM     25  C   UNL     1      34.886 -15.024 -22.350  0.00  0.00    +0.177 C 
ATOM     26  C   UNL     1      35.396 -16.766 -23.880  0.00  0.00    +0.318 C 
BRANCH  22  27
ATOM     27  O   UNL     1      33.132 -14.290 -25.579  0.00  0.00    -0.379 OA
ATOM     28  H   UNL     1      32.650 -15.068 -25.901  0.00  0.00    +0.211 HD
ENDBRANCH  22  27
BRANCH  23  29
ATOM     29  O   UNL     1      33.908 -12.962 -23.131  0.00  0.00    -0.379 OA
ATOM     30  H   UNL     1      34.758 -12.614 -23.443  0.00  0.00    +0.211 HD
ENDBRANCH  23  29
BRANCH  24  31
ATOM     31  O   UNL     1      35.026 -16.451 -26.226  0.00  0.00    -0.377 OA
ATOM     32  H   UNL     1      34.903 -17.382 -26.468  0.00  0.00    +0.211 HD
ENDBRANCH  24  31
BRANCH  25  33
ATOM     33  C   UNL     1      34.499 -14.802 -20.892  0.00  0.00    +0.169 C 
BRANCH  33  34
ATOM     34  O   UNL     1      33.130 -14.444 -20.839  0.00  0.00    -0.379 OA
ATOM     35  H   UNL     1      32.585 -15.244 -20.890  0.00  0.00    +0.211 HD
ENDBRANCH  33  34
ENDBRANCH  25  33
ENDBRANCH  20  26
ENDBRANCH   3  20
TORSDOF 9
ENDMDL
MODEL 7
REMARK VINA RESULT:     -10.5      1.252      2.724
REMARK  Name = 107971
REMARK  9 active torsions:
REMARK  status: ('A' for Active; 'I' for Inactive)
REMARK    1  A    between atoms: C_3  and  O_20
REMARK    2  A    between atoms: C_10  and  C_12
REMARK    3  A    between atoms: C_17  and  O_18
REMARK    4  A    between atoms: O_20  and  C_26
REMARK    5  A    between atoms: C_22  and  O_27
REMARK    6  A    between atoms: C_23  and  O_29
REMARK    7  A    between atoms: C_24  and  O_31
REMARK    8  A    between atoms: C_25  and  C_33
REMARK    9  A    between atoms: C_33  and  O_34
REMARK                            x       y       z     vdW  Elec       q    Type
REMARK                         _______ _______ _______ _____ _____    ______ ____
ROOT
ATOM      1  O   UNL     1      33.241 -21.870 -19.482  0.00  0.00    -0.450 OA
ATOM      2  O   UNL     1      36.996 -20.314 -19.829  0.00  0.00    -0.286 OA
ATOM      3  C   UNL     1      34.843 -23.584 -16.695  0.00  0.00    +0.144 C 
ATOM      4  C   UNL     1      33.881 -23.162 -17.612  0.00  0.00    +0.075 C 
ATOM      5  C   UNL     1      36.147 -23.094 -16.772  0.00  0.00    +0.037 C 
ATOM      6  C   UNL     1      34.227 -22.248 -18.608  0.00  0.00    +0.151 C 
ATOM      7  C   UNL     1      35.530 -21.758 -18.686  0.00  0.00    +0.074 C 
ATOM      8  C   UNL     1      36.496 -22.180 -17.767  0.00  0.00    +0.009 C 
ATOM      9  C   UNL     1      35.872 -20.791 -19.744  0.00  0.00    +0.202 C 
ATOM     10  C   UNL     1      34.776 -20.422 -20.683  0.00  0.00    +0.077 C 
ATOM     11  C   UNL     1      33.576 -20.983 -20.476  0.00  0.00    +0.183 C 
ENDROOT
BRANCH  10  12
ATOM     12  C   UNL     1      34.992 -19.496 -21.807  0.00  0.00    +0.006 C 
ATOM     13  C   UNL     1      35.456 -18.200 -21.569  0.00  0.00    +0.003 C 
ATOM     14  C   UNL     1      34.733 -19.911 -23.116  0.00  0.00    +0.003 C 
ATOM     15  C   UNL     1      35.660 -17.324 -22.635  0.00  0.00    +0.037 C 
ATOM     16  C   UNL     1      34.937 -19.034 -24.181  0.00  0.00    +0.037 C 
ATOM     17  C   UNL     1      35.400 -17.740 -23.941  0.00  0.00    +0.134 C 
BRANCH  17  18
ATOM     18  O   UNL     1      35.599 -16.885 -24.981  0.00  0.00    -0.506 OA
ATOM     19  H   UNL     1      34.911 -16.730 -25.597  0.00  0.00    +0.292 HD
ENDBRANCH  17  18
ENDBRANCH  10  12
BRANCH   3  20
ATOM     20  O   UNL     1      34.509 -24.478 -15.721  0.00  0.00    -0.450 OA
BRANCH  20  26
ATOM     21  O   UNL     1      36.057 -23.690 -14.163  0.00  0.00    -0.316 OA
ATOM     22  C   UNL     1      37.868 -25.842 -14.745  0.00  0.00    +0.173 C 
ATOM     23  C   UNL     1      38.288 -24.612 -13.941  0.00  0.00    +0.169 C 
ATOM     24  C   UNL     1      36.649 -25.543 -15.617  0.00  0.00    +0.210 C 
ATOM     25  C   UNL     1      37.085 -23.998 -13.220  0.00  0.00    +0.177 C 
ATOM     26  C   UNL     1      35.547 -24.851 -14.814  0.00  0.00    +0.318 C 
BRANCH  22  27
ATOM     27  O   UNL     1      38.965 -26.222 -15.578  0.00  0.00    -0.379 OA
ATOM     28  H   UNL     1      38.733 -27.022 -16.075  0.00  0.00    +0.211 HD
ENDBRANCH  22  27
BRANCH  23  29
ATOM     29  O   UNL     1      39.270 -24.990 -12.980  0.00  0.00    -0.379 OA
ATOM     30  H   UNL     1      40.155 -24.884 -13.363  0.00  0.00    +0.211 HD
ENDBRANCH  23  29
BRANCH  24  31
ATOM     31  O   UNL     1      36.124 -26.765 -16.135  0.00  0.00    -0.377 OA
ATOM     32  H   UNL     1      35.346 -27.027 -15.618  0.00  0.00    +0.211 HD
ENDBRANCH  24  31
BRANCH  25  33
ATOM     33  C   UNL     1      37.457 -22.702 -12.505  0.00  0.00    +0.169 C 
BRANCH  33  34
ATOM     34  O   UNL     1      37.809 -23.011 -11.168  0.00  0.00    -0.379 OA
ATOM     35  H   UNL     1      37.526 -22.290 -10.585  0.00  0.00    +0.211 HD
ENDBRANCH  33  34
ENDBRANCH  25  33
ENDBRANCH  20  26
ENDBRANCH   3  20
TORSDOF 9
ENDMDL
MODEL 8
REMARK VINA RESULT:     -10.5      2.147      4.023
REMARK  Name = 107971
REMARK  9 active torsions:
REMARK  status: ('A' for Active; 'I' for Inactive)
REMARK    1  A    between atoms: C_3  and  O_20
REMARK    2  A    between atoms: C_10  and  C_12
REMARK    3  A    between atoms: C_17  and  O_18
REMARK    4  A    between atoms: O_20  and  C_26
REMARK    5  A    between atoms: C_22  and  O_27
REMARK    6  A    between atoms: C_23  and  O_29
REMARK    7  A    between atoms: C_24  and  O_31
REMARK    8  A    between atoms: C_25  and  C_33
REMARK    9  A    between atoms: C_33  and  O_34
REMARK                            x       y       z     vdW  Elec       q    Type
REMARK                         _______ _______ _______ _____ _____    ______ ____
ROOT
ATOM      1  O   UNL     1      33.695 -21.324 -20.212  0.00  0.00    -0.450 OA
ATOM      2  O   UNL     1      37.214 -19.410 -20.987  0.00  0.00    -0.286 OA
ATOM      3  C   UNL     1      35.715 -22.698 -17.509  0.00  0.00    +0.144 C 
ATOM      4  C   UNL     1      34.636 -22.432 -18.351  0.00  0.00    +0.075 C 
ATOM      5  C   UNL     1      36.946 -22.081 -17.733  0.00  0.00    +0.037 C 
ATOM      6  C   UNL     1      34.791 -21.547 -19.418  0.00  0.00    +0.151 C 
ATOM      7  C   UNL     1      36.021 -20.930 -19.642  0.00  0.00    +0.074 C 
ATOM      8  C   UNL     1      37.104 -21.195 -18.800  0.00  0.00    +0.009 C 
ATOM      9  C   UNL     1      36.160 -19.995 -20.774  0.00  0.00    +0.202 C 
ATOM     10  C   UNL     1      34.952 -19.797 -21.622  0.00  0.00    +0.077 C 
ATOM     11  C   UNL     1      33.843 -20.467 -21.276  0.00  0.00    +0.183 C 
ENDROOT
BRANCH  10  12
ATOM     12  C   UNL     1      34.966 -18.921 -22.805  0.00  0.00    +0.006 C 
ATOM     13  C   UNL     1      35.403 -17.599 -22.693  0.00  0.00    +0.003 C 
ATOM     14  C   UNL     1      34.541 -19.409 -24.043  0.00  0.00    +0.003 C 
ATOM     15  C   UNL     1      35.415 -16.770 -23.815  0.00  0.00    +0.037 C 
ATOM     16  C   UNL     1      34.553 -18.579 -25.164  0.00  0.00    +0.037 C 
ATOM     17  C   UNL     1      34.990 -17.259 -25.050  0.00  0.00    +0.134 C 
BRANCH  17  18
ATOM     18  O   UNL     1      35.002 -16.449 -26.144  0.00  0.00    -0.506 OA
ATOM     19  H   UNL     1      35.298 -16.782 -26.968  0.00  0.00    +0.292 HD
ENDBRANCH  17  18
ENDBRANCH  10  12
BRANCH   3  20
ATOM     20  O   UNL     1      35.568 -23.564 -16.466  0.00  0.00    -0.450 OA
BRANCH  20  26
ATOM     21  O   UNL     1      33.281 -23.102 -16.506  0.00  0.00    -0.316 OA
ATOM     22  C   UNL     1      32.761 -25.073 -14.482  0.00  0.00    +0.173 C 
ATOM     23  C   UNL     1      31.722 -24.032 -14.899  0.00  0.00    +0.169 C 
ATOM     24  C   UNL     1      34.177 -24.610 -14.826  0.00  0.00    +0.210 C 
ATOM     25  C   UNL     1      31.948 -23.589 -16.347  0.00  0.00    +0.177 C 
ATOM     26  C   UNL     1      34.263 -24.108 -16.267  0.00  0.00    +0.318 C 
BRANCH  22  27
ATOM     27  O   UNL     1      32.653 -25.264 -13.070  0.00  0.00    -0.379 OA
ATOM     28  H   UNL     1      31.731 -25.139 -12.796  0.00  0.00    +0.211 HD
ENDBRANCH  22  27
BRANCH  23  29
ATOM     29  O   UNL     1      30.417 -24.593 -14.775  0.00  0.00    -0.379 OA
ATOM     30  H   UNL     1      30.047 -24.361 -13.910  0.00  0.00    +0.211 HD
ENDBRANCH  23  29
BRANCH  24  31
ATOM     31  O   UNL     1      35.082 -25.703 -14.678  0.00  0.00    -0.377 OA
ATOM     32  H   UNL     1      35.811 -25.607 -15.310  0.00  0.00    +0.211 HD
ENDBRANCH  24  31
BRANCH  25  33
ATOM     33  C   UNL     1      30.996 -22.467 -16.749  0.00  0.00    +0.169 C 
BRANCH  33  34
ATOM     34  O   UNL     1      29.787 -23.044 -17.207  0.00  0.00    -0.379 OA
ATOM     35  H   UNL     1      29.952 -23.527 -18.032  0.00  0.00    +0.211 HD
ENDBRANCH  33  34
ENDBRANCH  25  33
ENDBRANCH  20  26
ENDBRANCH   3  20
TORSDOF 9
ENDMDL
MODEL 9
REMARK VINA RESULT:      -9.6      2.313     10.354
REMARK  Name = 107971
REMARK  9 active torsions:
REMARK  status: ('A' for Active; 'I' for Inactive)
REMARK    1  A    between atoms: C_3  and  O_20
REMARK    2  A    between atoms: C_10  and  C_12
REMARK    3  A    between atoms: C_17  and  O_18
REMARK    4  A    between atoms: O_20  and  C_26
REMARK    5  A    between atoms: C_22  and  O_27
REMARK    6  A    between atoms: C_23  and  O_29
REMARK    7  A    between atoms: C_24  and  O_31
REMARK    8  A    between atoms: C_25  and  C_33
REMARK    9  A    between atoms: C_33  and  O_34
REMARK                            x       y       z     vdW  Elec       q    Type
REMARK                         _______ _______ _______ _____ _____    ______ ____
ROOT
ATOM      1  O   UNL     1      33.225 -21.033 -20.393  0.00  0.00    -0.450 OA
ATOM      2  O   UNL     1      36.457 -22.157 -18.172  0.00  0.00    -0.286 OA
ATOM      3  C   UNL     1      35.842 -19.326 -22.266  0.00  0.00    +0.144 C 
ATOM      4  C   UNL     1      34.591 -19.793 -21.868  0.00  0.00    +0.075 C 
ATOM      5  C   UNL     1      36.982 -19.669 -21.538  0.00  0.00    +0.037 C 
ATOM      6  C   UNL     1      34.481 -20.604 -20.738  0.00  0.00    +0.151 C 
ATOM      7  C   UNL     1      35.620 -20.947 -20.010  0.00  0.00    +0.074 C 
ATOM      8  C   UNL     1      36.875 -20.480 -20.408  0.00  0.00    +0.009 C 
ATOM      9  C   UNL     1      35.480 -21.808 -18.821  0.00  0.00    +0.202 C 
ATOM     10  C   UNL     1      34.097 -22.235 -18.472  0.00  0.00    +0.077 C 
ATOM     11  C   UNL     1      33.105 -21.819 -19.272  0.00  0.00    +0.183 C 
ENDROOT
BRANCH  10  12
ATOM     12  C   UNL     1      33.813 -23.064 -17.289  0.00  0.00    +0.006 C 
ATOM     13  C   UNL     1      32.492 -23.323 -16.914  0.00  0.00    +0.003 C 
ATOM     14  C   UNL     1      34.864 -23.596 -16.537  0.00  0.00    +0.003 C 
ATOM     15  C   UNL     1      32.224 -24.109 -15.794  0.00  0.00    +0.037 C 
ATOM     16  C   UNL     1      34.595 -24.381 -15.416  0.00  0.00    +0.037 C 
ATOM     17  C   UNL     1      33.275 -24.637 -15.044  0.00  0.00    +0.134 C 
BRANCH  17  18
ATOM     18  O   UNL     1      33.013 -25.404 -13.950  0.00  0.00    -0.506 OA
ATOM     19  H   UNL     1      33.718 -25.707 -13.412  0.00  0.00    +0.292 HD
ENDBRANCH  17  18
ENDBRANCH  10  12
BRANCH   3  20
ATOM     20  O   UNL     1      35.954 -18.533 -23.369  0.00  0.00    -0.450 OA
BRANCH  20  26
ATOM     21  O   UNL     1      35.025 -16.938 -24.796  0.00  0.00    -0.316 OA
ATOM     22  C   UNL     1      34.677 -15.079 -22.635  0.00  0.00    +0.173 C 
ATOM     23  C   UNL     1      34.549 -14.665 -24.100  0.00  0.00    +0.169 C 
ATOM     24  C   UNL     1      35.511 -16.352 -22.491  0.00  0.00    +0.210 C 
ATOM     25  C   UNL     1      34.112 -15.852 -24.964  0.00  0.00    +0.177 C 
ATOM     26  C   UNL     1      35.043 -17.436 -23.461  0.00  0.00    +0.318 C 
BRANCH  22  27
ATOM     27  O   UNL     1      35.312 -14.012 -21.928  0.00  0.00    -0.379 OA
ATOM     28  H   UNL     1      34.732 -13.235 -21.925  0.00  0.00    +0.211 HD
ENDBRANCH  22  27
BRANCH  23  29
ATOM     29  O   UNL     1      33.584 -13.621 -24.212  0.00  0.00    -0.379 OA
ATOM     30  H   UNL     1      32.859 -13.784 -23.590  0.00  0.00    +0.211 HD
ENDBRANCH  23  29
BRANCH  24  31
ATOM     31  O   UNL     1      35.381 -16.856 -21.162  0.00  0.00    -0.377 OA
ATOM     32  H   UNL     1      35.909 -16.311 -20.557  0.00  0.00    +0.211 HD
ENDBRANCH  24  31
BRANCH  25  33
ATOM     33  C   UNL     1      34.089 -15.493 -26.446  0.00  0.00    +0.169 C 
BRANCH  33  34
ATOM     34  O   UNL     1      32.904 -14.766 -26.715  0.00  0.00    -0.379 OA
ATOM     35  H   UNL     1      32.159 -15.382 -26.796  0.00  0.00    +0.211 HD
ENDBRANCH  33  34
ENDBRANCH  25  33
ENDBRANCH  20  26
ENDBRANCH   3  20
TORSDOF 9
ENDMDL
