MODEL 1
REMARK VINA RESULT:     -11.6      0.000      0.000
REMARK  Name = 10275777
REMARK  5 active torsions:
REMARK  status: ('A' for Active; 'I' for Inactive)
REMARK    1  A    between atoms: C_1  and  N_19
REMARK    2  A    between atoms: C_2  and  C_11
REMARK    3  A    between atoms: C_5  and  O_34
REMARK    4  A    between atoms: C_20  and  C_22
REMARK    5  A    between atoms: C_23  and  C_30
REMARK                            x       y       z     vdW  Elec       q    Type
REMARK                         _______ _______ _______ _____ _____    ______ ____
ROOT
ATOM      1  C   UNL     1      32.053 -23.210 -16.748  0.00  0.00    +0.055 C 
ATOM      2  C   UNL     1      32.789 -23.837 -15.757  0.00  0.00    +0.070 C 
ATOM      3  C   UNL     1      30.674 -23.335 -16.810  0.00  0.00    +0.018 C 
ATOM      4  C   UNL     1      32.130 -24.610 -14.801  0.00  0.00    +0.043 C 
ATOM      5  C   UNL     1      30.742 -24.746 -14.849  0.00  0.00    +0.139 C 
ATOM      6  C   UNL     1      30.014 -24.108 -15.854  0.00  0.00    +0.038 C 
ENDROOT
BRANCH   2  11
ATOM      7 CL   UNL     1      40.700 -25.649 -14.812  0.00  0.00    -0.081 Cl
ATOM      8  O   UNL     1      34.754 -22.591 -15.794  0.00  0.00    -0.270 OA
ATOM      9  N   UNL     1      34.939 -24.903 -15.438  0.00  0.00    -0.266 N 
ATOM     10  N   UNL     1      36.785 -26.334 -15.063  0.00  0.00    -0.228 NA
ATOM     11  C   UNL     1      34.239 -23.713 -15.675  0.00  0.00    +0.252 C 
ATOM     12  C   UNL     1      36.335 -25.087 -15.287  0.00  0.00    +0.134 C 
ATOM     13  C   UNL     1      37.125 -23.962 -15.381  0.00  0.00    +0.035 C 
ATOM     14  C   UNL     1      38.498 -24.131 -15.233  0.00  0.00    +0.016 C 
ATOM     15  C   UNL     1      38.123 -26.461 -14.925  0.00  0.00    +0.112 C 
ATOM     16  C   UNL     1      39.014 -25.402 -15.001  0.00  0.00    +0.077 C 
ATOM     17  H   UNL     1      34.389 -25.717 -15.366  0.00  0.00    +0.157 HD
ENDBRANCH   2  11
BRANCH   1  19
ATOM     18  O   UNL     1      33.811 -24.019 -19.037  0.00  0.00    -0.270 OA
ATOM     19  N   UNL     1      32.700 -22.420 -17.729  0.00  0.00    -0.280 N 
ATOM     20  C   UNL     1      33.517 -22.840 -18.788  0.00  0.00    +0.249 C 
ATOM     21  H   UNL     1      32.558 -21.448 -17.657  0.00  0.00    +0.155 HD
BRANCH  20  22
ATOM     22  C   UNL     1      34.068 -21.783 -19.621  0.00  0.00    +0.054 C 
ATOM     23  C   UNL     1      35.109 -19.779 -21.200  0.00  0.00    +0.031 C 
ATOM     24  C   UNL     1      33.215 -20.884 -20.261  0.00  0.00    +0.005 C 
ATOM     25  C   UNL     1      35.449 -21.667 -19.781  0.00  0.00    +0.005 C 
ATOM     26  C   UNL     1      33.742 -19.869 -21.060  0.00  0.00    +0.003 C 
ATOM     27  C   UNL     1      35.976 -20.652 -20.580  0.00  0.00    +0.003 C 
BRANCH  23  30
ATOM     28  N   UNL     1      35.281 -18.580 -23.390  0.00  0.00    -0.290 N 
ATOM     29  N   UNL     1      36.515 -17.907 -21.448  0.00  0.00    -0.285 NA
ATOM     30  C   UNL     1      35.672 -18.696 -22.052  0.00  0.00    +0.123 C 
ATOM     31  C   UNL     1      35.876 -17.579 -24.272  0.00  0.00    +0.114 C 
ATOM     32  C   UNL     1      34.324 -19.480 -24.028  0.00  0.00    +0.114 C 
ATOM     33  H   UNL     1      36.934 -17.165 -21.940  0.00  0.00    +0.188 HD
ENDBRANCH  23  30
ENDBRANCH  20  22
ENDBRANCH   1  19
BRANCH   5  34
ATOM     34  O   UNL     1      30.099 -25.500 -13.917  0.00  0.00    -0.471 OA
ATOM     35  C   UNL     1      28.891 -26.141 -14.322  0.00  0.00    +0.252 C 
ENDBRANCH   5  34
TORSDOF 5
ENDMDL
MODEL 2
REMARK VINA RESULT:     -11.2      3.176      5.663
REMARK  Name = 10275777
REMARK  5 active torsions:
REMARK  status: ('A' for Active; 'I' for Inactive)
REMARK    1  A    between atoms: C_1  and  N_19
REMARK    2  A    between atoms: C_2  and  C_11
REMARK    3  A    between atoms: C_5  and  O_34
REMARK    4  A    between atoms: C_20  and  C_22
REMARK    5  A    between atoms: C_23  and  C_30
REMARK                            x       y       z     vdW  Elec       q    Type
REMARK                         _______ _______ _______ _____ _____    ______ ____
ROOT
ATOM      1  C   UNL     1      36.803 -22.768 -16.931  0.00  0.00    +0.055 C 
ATOM      2  C   UNL     1      35.747 -23.265 -16.186  0.00  0.00    +0.070 C 
ATOM      3  C   UNL     1      38.116 -22.931 -16.519  0.00  0.00    +0.018 C 
ATOM      4  C   UNL     1      36.009 -23.944 -14.996  0.00  0.00    +0.043 C 
ATOM      5  C   UNL     1      37.326 -24.117 -14.568  0.00  0.00    +0.139 C 
ATOM      6  C   UNL     1      38.379 -23.610 -15.329  0.00  0.00    +0.038 C 
ENDROOT
BRANCH   2  11
ATOM      7 CL   UNL     1      27.594 -22.747 -16.038  0.00  0.00    -0.081 Cl
ATOM      8  O   UNL     1      34.111 -22.961 -17.813  0.00  0.00    -0.270 OA
ATOM      9  N   UNL     1      33.405 -23.154 -15.584  0.00  0.00    -0.266 N 
ATOM     10  N   UNL     1      31.272 -23.129 -14.560  0.00  0.00    -0.228 NA
ATOM     11  C   UNL     1      34.361 -23.105 -16.607  0.00  0.00    +0.252 C 
ATOM     12  C   UNL     1      31.996 -23.054 -15.691  0.00  0.00    +0.134 C 
ATOM     13  C   UNL     1      31.478 -22.889 -16.957  0.00  0.00    +0.035 C 
ATOM     14  C   UNL     1      30.096 -22.791 -17.073  0.00  0.00    +0.016 C 
ATOM     15  C   UNL     1      29.933 -23.031 -14.712  0.00  0.00    +0.112 C 
ATOM     16  C   UNL     1      29.301 -22.862 -15.934  0.00  0.00    +0.077 C 
ATOM     17  H   UNL     1      33.758 -23.274 -14.672  0.00  0.00    +0.157 HD
ENDBRANCH   2  11
BRANCH   1  19
ATOM     18  O   UNL     1      37.820 -20.113 -17.883  0.00  0.00    -0.270 OA
ATOM     19  N   UNL     1      36.561 -22.076 -18.142  0.00  0.00    -0.280 N 
ATOM     20  C   UNL     1      37.059 -20.831 -18.551  0.00  0.00    +0.249 C 
ATOM     21  H   UNL     1      35.964 -22.529 -18.782  0.00  0.00    +0.155 HD
BRANCH  20  22
ATOM     22  C   UNL     1      36.606 -20.362 -19.851  0.00  0.00    +0.054 C 
ATOM     23  C   UNL     1      35.746 -19.472 -22.313  0.00  0.00    +0.031 C 
ATOM     24  C   UNL     1      35.343 -20.721 -20.321  0.00  0.00    +0.005 C 
ATOM     25  C   UNL     1      37.434 -19.551 -20.628  0.00  0.00    +0.005 C 
ATOM     26  C   UNL     1      34.908 -20.270 -21.567  0.00  0.00    +0.003 C 
ATOM     27  C   UNL     1      36.999 -19.100 -21.874  0.00  0.00    +0.003 C 
BRANCH  23  30
ATOM     28  N   UNL     1      35.155 -17.619 -23.887  0.00  0.00    -0.290 N 
ATOM     29  N   UNL     1      35.029 -19.931 -24.507  0.00  0.00    -0.285 NA
ATOM     30  C   UNL     1      35.282 -18.990 -23.642  0.00  0.00    +0.123 C 
ATOM     31  C   UNL     1      34.625 -17.118 -25.153  0.00  0.00    +0.114 C 
ATOM     32  C   UNL     1      35.459 -16.593 -22.893  0.00  0.00    +0.114 C 
ATOM     33  H   UNL     1      34.717 -19.697 -25.411  0.00  0.00    +0.188 HD
ENDBRANCH  23  30
ENDBRANCH  20  22
ENDBRANCH   1  19
BRANCH   5  34
ATOM     34  O   UNL     1      37.582 -24.780 -13.407  0.00  0.00    -0.471 OA
ATOM     35  C   UNL     1      37.489 -26.204 -13.439  0.00  0.00    +0.252 C 
ENDBRANCH   5  34
TORSDOF 5
ENDMDL
MODEL 3
REMARK VINA RESULT:     -10.6      3.161      5.546
REMARK  Name = 10275777
REMARK  5 active torsions:
REMARK  status: ('A' for Active; 'I' for Inactive)
REMARK    1  A    between atoms: C_1  and  N_19
REMARK    2  A    between atoms: C_2  and  C_11
REMARK    3  A    between atoms: C_5  and  O_34
REMARK    4  A    between atoms: C_20  and  C_22
REMARK    5  A    between atoms: C_23  and  C_30
REMARK                            x       y       z     vdW  Elec       q    Type
REMARK                         _______ _______ _______ _____ _____    ______ ____
ROOT
ATOM      1  C   UNL     1      36.655 -22.529 -16.975  0.00  0.00    +0.055 C 
ATOM      2  C   UNL     1      35.625 -23.206 -16.345  0.00  0.00    +0.070 C 
ATOM      3  C   UNL     1      37.977 -22.719 -16.603  0.00  0.00    +0.018 C 
ATOM      4  C   UNL     1      35.922 -24.097 -15.314  0.00  0.00    +0.043 C 
ATOM      5  C   UNL     1      37.247 -24.300 -14.928  0.00  0.00    +0.139 C 
ATOM      6  C   UNL     1      38.274 -23.610 -15.572  0.00  0.00    +0.038 C 
ENDROOT
BRANCH   2  11
ATOM      7 CL   UNL     1      27.478 -22.686 -15.997  0.00  0.00    -0.081 Cl
ATOM      8  O   UNL     1      33.956 -22.809 -17.918  0.00  0.00    -0.270 OA
ATOM      9  N   UNL     1      33.296 -23.126 -15.688  0.00  0.00    -0.266 N 
ATOM     10  N   UNL     1      31.186 -23.156 -14.620  0.00  0.00    -0.228 NA
ATOM     11  C   UNL     1      34.230 -23.021 -16.727  0.00  0.00    +0.252 C 
ATOM     12  C   UNL     1      31.885 -23.018 -15.760  0.00  0.00    +0.134 C 
ATOM     13  C   UNL     1      31.341 -22.782 -17.004  0.00  0.00    +0.035 C 
ATOM     14  C   UNL     1      29.957 -22.675 -17.085  0.00  0.00    +0.016 C 
ATOM     15  C   UNL     1      29.844 -23.047 -14.738  0.00  0.00    +0.112 C 
ATOM     16  C   UNL     1      29.187 -22.809 -15.935  0.00  0.00    +0.077 C 
ATOM     17  H   UNL     1      33.668 -23.297 -14.793  0.00  0.00    +0.157 HD
ENDBRANCH   2  11
BRANCH   1  19
ATOM     18  O   UNL     1      35.964 -23.039 -19.848  0.00  0.00    -0.270 OA
ATOM     19  N   UNL     1      36.377 -21.620 -18.025  0.00  0.00    -0.280 N 
ATOM     20  C   UNL     1      36.057 -21.901 -19.361  0.00  0.00    +0.249 C 
ATOM     21  H   UNL     1      36.414 -20.666 -17.786  0.00  0.00    +0.155 HD
BRANCH  20  22
ATOM     22  C   UNL     1      35.849 -20.746 -20.220  0.00  0.00    +0.054 C 
ATOM     23  C   UNL     1      35.457 -18.559 -21.849  0.00  0.00    +0.031 C 
ATOM     24  C   UNL     1      36.936 -19.968 -20.617  0.00  0.00    +0.005 C 
ATOM     25  C   UNL     1      34.563 -20.417 -20.648  0.00  0.00    +0.005 C 
ATOM     26  C   UNL     1      36.738 -18.861 -21.443  0.00  0.00    +0.003 C 
ATOM     27  C   UNL     1      34.364 -19.310 -21.473  0.00  0.00    +0.003 C 
BRANCH  23  30
ATOM     28  N   UNL     1      34.971 -17.557 -24.091  0.00  0.00    -0.290 N 
ATOM     29  N   UNL     1      35.329 -16.225 -22.130  0.00  0.00    -0.285 NA
ATOM     30  C   UNL     1      35.245 -17.379 -22.730  0.00  0.00    +0.123 C 
ATOM     31  C   UNL     1      34.839 -16.418 -24.996  0.00  0.00    +0.114 C 
ATOM     32  C   UNL     1      34.875 -18.869 -24.725  0.00  0.00    +0.114 C 
ATOM     33  H   UNL     1      35.201 -15.394 -22.641  0.00  0.00    +0.188 HD
ENDBRANCH  23  30
ENDBRANCH  20  22
ENDBRANCH   1  19
BRANCH   5  34
ATOM     34  O   UNL     1      37.537 -25.169 -13.922  0.00  0.00    -0.471 OA
ATOM     35  C   UNL     1      37.467 -26.562 -14.228  0.00  0.00    +0.252 C 
ENDBRANCH   5  34
TORSDOF 5
ENDMDL
MODEL 4
REMARK VINA RESULT:     -10.3      2.848      7.735
REMARK  Name = 10275777
REMARK  5 active torsions:
REMARK  status: ('A' for Active; 'I' for Inactive)
REMARK    1  A    between atoms: C_1  and  N_19
REMARK    2  A    between atoms: C_2  and  C_11
REMARK    3  A    between atoms: C_5  and  O_34
REMARK    4  A    between atoms: C_20  and  C_22
REMARK    5  A    between atoms: C_23  and  C_30
REMARK                            x       y       z     vdW  Elec       q    Type
REMARK                         _______ _______ _______ _____ _____    ______ ____
ROOT
ATOM      1  C   UNL     1      31.474 -23.970 -15.708  0.00  0.00    +0.055 C 
ATOM      2  C   UNL     1      31.354 -23.211 -16.860  0.00  0.00    +0.070 C 
ATOM      3  C   UNL     1      30.358 -24.391 -15.002  0.00  0.00    +0.018 C 
ATOM      4  C   UNL     1      30.084 -22.862 -17.320  0.00  0.00    +0.043 C 
ATOM      5  C   UNL     1      28.951 -23.278 -16.621  0.00  0.00    +0.139 C 
ATOM      6  C   UNL     1      29.088 -24.042 -15.462  0.00  0.00    +0.038 C 
ENDROOT
BRANCH   2  11
ATOM      7 CL   UNL     1      36.040 -19.532 -22.451  0.00  0.00    -0.081 Cl
ATOM      8  O   UNL     1      33.639 -23.187 -17.300  0.00  0.00    -0.270 OA
ATOM      9  N   UNL     1      32.253 -21.891 -18.679  0.00  0.00    -0.266 N 
ATOM     10  N   UNL     1      32.681 -20.497 -20.542  0.00  0.00    -0.228 NA
ATOM     11  C   UNL     1      32.517 -22.765 -17.616  0.00  0.00    +0.252 C 
ATOM     12  C   UNL     1      33.169 -21.316 -19.594  0.00  0.00    +0.134 C 
ATOM     13  C   UNL     1      34.497 -21.649 -19.437  0.00  0.00    +0.035 C 
ATOM     14  C   UNL     1      35.405 -21.090 -20.331  0.00  0.00    +0.016 C 
ATOM     15  C   UNL     1      33.592 -19.975 -21.393  0.00  0.00    +0.112 C 
ATOM     16  C   UNL     1      34.951 -20.236 -21.331  0.00  0.00    +0.077 C 
ATOM     17  H   UNL     1      31.308 -21.644 -18.807  0.00  0.00    +0.157 HD
ENDBRANCH   2  11
BRANCH   1  19
ATOM     18  O   UNL     1      32.724 -23.532 -13.019  0.00  0.00    -0.270 OA
ATOM     19  N   UNL     1      32.753 -24.336 -15.222  0.00  0.00    -0.280 N 
ATOM     20  C   UNL     1      33.301 -24.112 -13.952  0.00  0.00    +0.249 C 
ATOM     21  H   UNL     1      33.333 -24.811 -15.861  0.00  0.00    +0.155 HD
BRANCH  20  22
ATOM     22  C   UNL     1      34.662 -24.585 -13.756  0.00  0.00    +0.054 C 
ATOM     23  C   UNL     1      37.242 -25.479 -13.386  0.00  0.00    +0.031 C 
ATOM     24  C   UNL     1      35.342 -25.208 -14.802  0.00  0.00    +0.005 C 
ATOM     25  C   UNL     1      35.289 -24.415 -12.521  0.00  0.00    +0.005 C 
ATOM     26  C   UNL     1      36.648 -25.660 -14.615  0.00  0.00    +0.003 C 
ATOM     27  C   UNL     1      36.596 -24.867 -12.334  0.00  0.00    +0.003 C 
BRANCH  23  30
ATOM     28  N   UNL     1      39.622 -25.673 -14.135  0.00  0.00    -0.290 N 
ATOM     29  N   UNL     1      38.830 -26.635 -12.088  0.00  0.00    -0.285 NA
ATOM     30  C   UNL     1      38.636 -25.961 -13.186  0.00  0.00    +0.123 C 
ATOM     31  C   UNL     1      40.978 -26.200 -14.008  0.00  0.00    +0.114 C 
ATOM     32  C   UNL     1      39.367 -24.904 -15.351  0.00  0.00    +0.114 C 
ATOM     33  H   UNL     1      39.724 -26.990 -11.880  0.00  0.00    +0.188 HD
ENDBRANCH  23  30
ENDBRANCH  20  22
ENDBRANCH   1  19
BRANCH   5  34
ATOM     34  O   UNL     1      27.712 -22.939 -17.070  0.00  0.00    -0.471 OA
ATOM     35  C   UNL     1      26.837 -22.301 -16.141  0.00  0.00    +0.252 C 
ENDBRANCH   5  34
TORSDOF 5
ENDMDL
MODEL 5
REMARK VINA RESULT:      -9.7      3.322      7.731
REMARK  Name = 10275777
REMARK  5 active torsions:
REMARK  status: ('A' for Active; 'I' for Inactive)
REMARK    1  A    between atoms: C_1  and  N_19
REMARK    2  A    between atoms: C_2  and  C_11
REMARK    3  A    between atoms: C_5  and  O_34
REMARK    4  A    between atoms: C_20  and  C_22
REMARK    5  A    between atoms: C_23  and  C_30
REMARK                            x       y       z     vdW  Elec       q    Type
REMARK                         _______ _______ _______ _____ _____    ______ ____
ROOT
ATOM      1  C   UNL     1      36.246 -24.623 -14.619  0.00  0.00    +0.055 C 
ATOM      2  C   UNL     1      37.278 -24.049 -15.342  0.00  0.00    +0.070 C 
ATOM      3  C   UNL     1      36.497 -25.462 -13.544  0.00  0.00    +0.018 C 
ATOM      4  C   UNL     1      38.599 -24.321 -14.982  0.00  0.00    +0.043 C 
ATOM      5  C   UNL     1      38.868 -25.163 -13.903  0.00  0.00    +0.139 C 
ATOM      6  C   UNL     1      37.818 -25.734 -13.185  0.00  0.00    +0.038 C 
ENDROOT
BRANCH   2  11
ATOM      7 CL   UNL     1      33.616 -20.247 -21.577  0.00  0.00    -0.081 Cl
ATOM      8  O   UNL     1      37.954 -22.446 -16.886  0.00  0.00    -0.270 OA
ATOM      9  N   UNL     1      35.743 -23.217 -17.018  0.00  0.00    -0.266 N 
ATOM     10  N   UNL     1      33.944 -22.717 -18.470  0.00  0.00    -0.228 NA
ATOM     11  C   UNL     1      37.031 -23.162 -16.471  0.00  0.00    +0.252 C 
ATOM     12  C   UNL     1      35.224 -22.497 -18.122  0.00  0.00    +0.134 C 
ATOM     13  C   UNL     1      36.083 -21.626 -18.756  0.00  0.00    +0.035 C 
ATOM     14  C   UNL     1      35.583 -20.915 -19.842  0.00  0.00    +0.016 C 
ATOM     15  C   UNL     1      33.494 -22.009 -19.530  0.00  0.00    +0.112 C 
ATOM     16  C   UNL     1      34.265 -21.104 -20.243  0.00  0.00    +0.077 C 
ATOM     17  H   UNL     1      35.116 -23.837 -16.578  0.00  0.00    +0.157 HD
ENDBRANCH   2  11
BRANCH   1  19
ATOM     18  O   UNL     1      33.769 -24.661 -12.930  0.00  0.00    -0.270 OA
ATOM     19  N   UNL     1      34.898 -24.362 -14.965  0.00  0.00    -0.280 N 
ATOM     20  C   UNL     1      33.764 -24.390 -14.141  0.00  0.00    +0.249 C 
ATOM     21  H   UNL     1      34.736 -24.130 -15.908  0.00  0.00    +0.155 HD
BRANCH  20  22
ATOM     22  C   UNL     1      32.498 -24.100 -14.795  0.00  0.00    +0.054 C 
ATOM     23  C   UNL     1      30.097 -23.551 -16.031  0.00  0.00    +0.031 C 
ATOM     24  C   UNL     1      31.411 -24.958 -14.622  0.00  0.00    +0.005 C 
ATOM     25  C   UNL     1      32.369 -22.965 -15.595  0.00  0.00    +0.005 C 
ATOM     26  C   UNL     1      30.196 -24.679 -15.247  0.00  0.00    +0.003 C 
ATOM     27  C   UNL     1      31.153 -22.686 -16.220  0.00  0.00    +0.003 C 
BRANCH  23  30
ATOM     28  N   UNL     1      27.812 -22.532 -16.021  0.00  0.00    -0.290 N 
ATOM     29  N   UNL     1      28.695 -23.705 -17.915  0.00  0.00    -0.285 NA
ATOM     30  C   UNL     1      28.801 -23.254 -16.698  0.00  0.00    +0.123 C 
ATOM     31  C   UNL     1      26.500 -22.294 -16.619  0.00  0.00    +0.114 C 
ATOM     32  C   UNL     1      27.972 -22.033 -14.658  0.00  0.00    +0.114 C 
ATOM     33  H   UNL     1      27.869 -23.551 -18.428  0.00  0.00    +0.188 HD
ENDBRANCH  23  30
ENDBRANCH  20  22
ENDBRANCH   1  19
BRANCH   5  34
ATOM     34  O   UNL     1      40.156 -25.427 -13.552  0.00  0.00    -0.471 OA
ATOM     35  C   UNL     1      40.918 -26.241 -14.443  0.00  0.00    +0.252 C 
ENDBRANCH   5  34
TORSDOF 5
ENDMDL
MODEL 6
REMARK VINA RESULT:      -9.7      3.296      7.605
REMARK  Name = 10275777
REMARK  5 active torsions:
REMARK  status: ('A' for Active; 'I' for Inactive)
REMARK    1  A    between atoms: C_1  and  N_19
REMARK    2  A    between atoms: C_2  and  C_11
REMARK    3  A    between atoms: C_5  and  O_34
REMARK    4  A    between atoms: C_20  and  C_22
REMARK    5  A    between atoms: C_23  and  C_30
REMARK                            x       y       z     vdW  Elec       q    Type
REMARK                         _______ _______ _______ _____ _____    ______ ____
ROOT
ATOM      1  C   UNL     1      35.110 -24.013 -14.167  0.00  0.00    +0.055 C 
ATOM      2  C   UNL     1      36.066 -23.829 -15.152  0.00  0.00    +0.070 C 
ATOM      3  C   UNL     1      35.458 -24.446 -12.897  0.00  0.00    +0.018 C 
ATOM      4  C   UNL     1      37.406 -24.087 -14.861  0.00  0.00    +0.043 C 
ATOM      5  C   UNL     1      37.772 -24.524 -13.588  0.00  0.00    +0.139 C 
ATOM      6  C   UNL     1      36.798 -24.704 -12.606  0.00  0.00    +0.038 C 
ENDROOT
BRANCH   2  11
ATOM      7 CL   UNL     1      36.033 -19.623 -22.156  0.00  0.00    -0.081 Cl
ATOM      8  O   UNL     1      34.756 -23.889 -17.073  0.00  0.00    -0.270 OA
ATOM      9  N   UNL     1      36.513 -22.336 -17.004  0.00  0.00    -0.266 N 
ATOM     10  N   UNL     1      37.284 -20.704 -18.533  0.00  0.00    -0.228 NA
ATOM     11  C   UNL     1      35.719 -23.370 -16.491  0.00  0.00    +0.252 C 
ATOM     12  C   UNL     1      36.400 -21.678 -18.253  0.00  0.00    +0.134 C 
ATOM     13  C   UNL     1      35.382 -22.092 -19.085  0.00  0.00    +0.035 C 
ATOM     14  C   UNL     1      35.262 -21.451 -20.314  0.00  0.00    +0.016 C 
ATOM     15  C   UNL     1      37.135 -20.104 -19.735  0.00  0.00    +0.112 C 
ATOM     16  C   UNL     1      36.151 -20.437 -20.652  0.00  0.00    +0.077 C 
ATOM     17  H   UNL     1      37.244 -22.027 -16.421  0.00  0.00    +0.157 HD
ENDBRANCH   2  11
BRANCH   1  19
ATOM     18  O   UNL     1      32.750 -25.861 -14.139  0.00  0.00    -0.270 OA
ATOM     19  N   UNL     1      33.745 -23.757 -14.439  0.00  0.00    -0.280 N 
ATOM     20  C   UNL     1      32.667 -24.654 -14.414  0.00  0.00    +0.249 C 
ATOM     21  H   UNL     1      33.522 -22.828 -14.676  0.00  0.00    +0.155 HD
BRANCH  20  22
ATOM     22  C   UNL     1      31.371 -24.098 -14.770  0.00  0.00    +0.054 C 
ATOM     23  C   UNL     1      28.917 -23.044 -15.446  0.00  0.00    +0.031 C 
ATOM     24  C   UNL     1      31.226 -22.722 -14.940  0.00  0.00    +0.005 C 
ATOM     25  C   UNL     1      30.273 -24.941 -14.942  0.00  0.00    +0.005 C 
ATOM     26  C   UNL     1      29.983 -22.188 -15.283  0.00  0.00    +0.003 C 
ATOM     27  C   UNL     1      29.031 -24.408 -15.285  0.00  0.00    +0.003 C 
BRANCH  23  30
ATOM     28  N   UNL     1      27.201 -22.410 -17.154  0.00  0.00    -0.290 N 
ATOM     29  N   UNL     1      26.870 -22.075 -14.804  0.00  0.00    -0.285 NA
ATOM     30  C   UNL     1      27.591 -22.476 -15.812  0.00  0.00    +0.123 C 
ATOM     31  C   UNL     1      25.942 -21.785 -17.550  0.00  0.00    +0.114 C 
ATOM     32  C   UNL     1      28.035 -22.880 -18.257  0.00  0.00    +0.114 C 
ATOM     33  H   UNL     1      25.979 -21.687 -14.959  0.00  0.00    +0.188 HD
ENDBRANCH  23  30
ENDBRANCH  20  22
ENDBRANCH   1  19
BRANCH   5  34
ATOM     34  O   UNL     1      39.079 -24.775 -13.304  0.00  0.00    -0.471 OA
ATOM     35  C   UNL     1      39.717 -25.812 -14.048  0.00  0.00    +0.252 C 
ENDBRANCH   5  34
TORSDOF 5
ENDMDL
MODEL 7
REMARK VINA RESULT:      -9.6      3.100      8.365
REMARK  Name = 10275777
REMARK  5 active torsions:
REMARK  status: ('A' for Active; 'I' for Inactive)
REMARK    1  A    between atoms: C_1  and  N_19
REMARK    2  A    between atoms: C_2  and  C_11
REMARK    3  A    between atoms: C_5  and  O_34
REMARK    4  A    between atoms: C_20  and  C_22
REMARK    5  A    between atoms: C_23  and  C_30
REMARK                            x       y       z     vdW  Elec       q    Type
REMARK                         _______ _______ _______ _____ _____    ______ ____
ROOT
ATOM      1  C   UNL     1      35.877 -20.818 -20.223  0.00  0.00    +0.055 C 
ATOM      2  C   UNL     1      34.540 -20.637 -20.539  0.00  0.00    +0.070 C 
ATOM      3  C   UNL     1      36.883 -20.365 -21.061  0.00  0.00    +0.018 C 
ATOM      4  C   UNL     1      34.200 -19.985 -21.725  0.00  0.00    +0.043 C 
ATOM      5  C   UNL     1      35.202 -19.524 -22.579  0.00  0.00    +0.139 C 
ATOM      6  C   UNL     1      36.543 -19.714 -22.247  0.00  0.00    +0.038 C 
ENDROOT
BRANCH   2  11
ATOM      7 CL   UNL     1      30.402 -24.831 -14.879  0.00  0.00    -0.081 Cl
ATOM      8  O   UNL     1      32.339 -20.607 -19.785  0.00  0.00    -0.270 OA
ATOM      9  N   UNL     1      33.818 -22.115 -18.763  0.00  0.00    -0.266 N 
ATOM     10  N   UNL     1      33.552 -23.724 -17.050  0.00  0.00    -0.228 NA
ATOM     11  C   UNL     1      33.469 -21.103 -19.667  0.00  0.00    +0.252 C 
ATOM     12  C   UNL     1      32.993 -22.774 -17.819  0.00  0.00    +0.134 C 
ATOM     13  C   UNL     1      31.672 -22.385 -17.769  0.00  0.00    +0.035 C 
ATOM     14  C   UNL     1      30.852 -23.027 -16.847  0.00  0.00    +0.016 C 
ATOM     15  C   UNL     1      32.726 -24.326 -16.166  0.00  0.00    +0.112 C 
ATOM     16  C   UNL     1      31.382 -24.017 -16.026  0.00  0.00    +0.077 C 
ATOM     17  H   UNL     1      34.759 -22.406 -18.787  0.00  0.00    +0.157 HD
ENDBRANCH   2  11
BRANCH   1  19
ATOM     18  O   UNL     1      37.783 -19.985 -18.065  0.00  0.00    -0.270 OA
ATOM     19  N   UNL     1      36.245 -21.475 -19.025  0.00  0.00    -0.280 N 
ATOM     20  C   UNL     1      37.145 -21.050 -18.037  0.00  0.00    +0.249 C 
ATOM     21  H   UNL     1      35.814 -22.346 -18.864  0.00  0.00    +0.155 HD
BRANCH  20  22
ATOM     22  C   UNL     1      37.341 -21.962 -16.922  0.00  0.00    +0.054 C 
ATOM     23  C   UNL     1      37.711 -23.692 -14.809  0.00  0.00    +0.031 C 
ATOM     24  C   UNL     1      36.338 -22.121 -15.966  0.00  0.00    +0.005 C 
ATOM     25  C   UNL     1      38.533 -22.679 -16.807  0.00  0.00    +0.005 C 
ATOM     26  C   UNL     1      36.525 -22.997 -14.897  0.00  0.00    +0.003 C 
ATOM     27  C   UNL     1      38.720 -23.555 -15.738  0.00  0.00    +0.003 C 
BRANCH  23  30
ATOM     28  N   UNL     1      37.452 -25.946 -13.753  0.00  0.00    -0.290 N 
ATOM     29  N   UNL     1      38.533 -24.116 -12.644  0.00  0.00    -0.285 NA
ATOM     30  C   UNL     1      37.911 -24.627 -13.669  0.00  0.00    +0.123 C 
ATOM     31  C   UNL     1      37.560 -26.863 -12.621  0.00  0.00    +0.114 C 
ATOM     32  C   UNL     1      36.767 -26.485 -14.925  0.00  0.00    +0.114 C 
ATOM     33  H   UNL     1      38.706 -24.668 -11.848  0.00  0.00    +0.188 HD
ENDBRANCH  23  30
ENDBRANCH  20  22
ENDBRANCH   1  19
BRANCH   5  34
ATOM     34  O   UNL     1      34.870 -18.888 -23.736  0.00  0.00    -0.471 OA
ATOM     35  C   UNL     1      35.342 -17.551 -23.900  0.00  0.00    +0.252 C 
ENDBRANCH   5  34
TORSDOF 5
ENDMDL
MODEL 8
REMARK VINA RESULT:      -9.0      3.307      8.067
REMARK  Name = 10275777
REMARK  5 active torsions:
REMARK  status: ('A' for Active; 'I' for Inactive)
REMARK    1  A    between atoms: C_1  and  N_19
REMARK    2  A    between atoms: C_2  and  C_11
REMARK    3  A    between atoms: C_5  and  O_34
REMARK    4  A    between atoms: C_20  and  C_22
REMARK    5  A    between atoms: C_23  and  C_30
REMARK                            x       y       z     vdW  Elec       q    Type
REMARK                         _______ _______ _______ _____ _____    ______ ____
ROOT
ATOM      1  C   UNL     1      35.793 -23.545 -15.928  0.00  0.00    +0.055 C 
ATOM      2  C   UNL     1      36.624 -23.022 -16.904  0.00  0.00    +0.070 C 
ATOM      3  C   UNL     1      36.306 -24.167 -14.801  0.00  0.00    +0.018 C 
ATOM      4  C   UNL     1      38.007 -23.123 -16.751  0.00  0.00    +0.043 C 
ATOM      5  C   UNL     1      38.540 -23.747 -15.622  0.00  0.00    +0.139 C 
ATOM      6  C   UNL     1      37.689 -24.269 -14.648  0.00  0.00    +0.038 C 
ENDROOT
BRANCH   2  11
ATOM      7 CL   UNL     1      35.850 -17.966 -23.276  0.00  0.00    -0.081 Cl
ATOM      8  O   UNL     1      34.992 -22.701 -18.531  0.00  0.00    -0.270 OA
ATOM      9  N   UNL     1      36.911 -21.355 -18.636  0.00  0.00    -0.266 N 
ATOM     10  N   UNL     1      37.590 -19.625 -20.101  0.00  0.00    -0.228 NA
ATOM     11  C   UNL     1      36.101 -22.361 -18.093  0.00  0.00    +0.252 C 
ATOM     12  C   UNL     1      36.657 -20.533 -19.762  0.00  0.00    +0.134 C 
ATOM     13  C   UNL     1      35.463 -20.731 -20.420  0.00  0.00    +0.035 C 
ATOM     14  C   UNL     1      35.204 -19.928 -21.526  0.00  0.00    +0.016 C 
ATOM     15  C   UNL     1      37.303 -18.863 -21.179  0.00  0.00    +0.112 C 
ATOM     16  C   UNL     1      36.136 -18.974 -21.919  0.00  0.00    +0.077 C 
ATOM     17  H   UNL     1      37.768 -21.199 -18.176  0.00  0.00    +0.157 HD
ENDBRANCH   2  11
BRANCH   1  19
ATOM     18  O   UNL     1      33.612 -25.096 -14.577  0.00  0.00    -0.270 OA
ATOM     19  N   UNL     1      34.387 -23.452 -16.062  0.00  0.00    -0.280 N 
ATOM     20  C   UNL     1      33.397 -24.200 -15.408  0.00  0.00    +0.249 C 
ATOM     21  H   UNL     1      34.061 -22.775 -16.697  0.00  0.00    +0.155 HD
BRANCH  20  22
ATOM     22  C   UNL     1      32.023 -23.894 -15.776  0.00  0.00    +0.054 C 
ATOM     23  C   UNL     1      29.421 -23.313 -16.471  0.00  0.00    +0.031 C 
ATOM     24  C   UNL     1      30.977 -24.658 -15.261  0.00  0.00    +0.005 C 
ATOM     25  C   UNL     1      31.753 -22.835 -16.643  0.00  0.00    +0.005 C 
ATOM     26  C   UNL     1      29.659 -24.364 -15.613  0.00  0.00    +0.003 C 
ATOM     27  C   UNL     1      30.435 -22.541 -16.995  0.00  0.00    +0.003 C 
BRANCH  23  30
ATOM     28  N   UNL     1      27.167 -22.373 -15.926  0.00  0.00    -0.290 N 
ATOM     29  N   UNL     1      27.682 -23.342 -18.057  0.00  0.00    -0.285 NA
ATOM     30  C   UNL     1      28.016 -22.999 -16.846  0.00  0.00    +0.123 C 
ATOM     31  C   UNL     1      25.761 -22.125 -16.236  0.00  0.00    +0.114 C 
ATOM     32  C   UNL     1      27.581 -21.994 -14.578  0.00  0.00    +0.114 C 
ATOM     33  H   UNL     1      26.770 -23.169 -18.385  0.00  0.00    +0.188 HD
ENDBRANCH  23  30
ENDBRANCH  20  22
ENDBRANCH   1  19
BRANCH   5  34
ATOM     34  O   UNL     1      39.889 -23.846 -15.472  0.00  0.00    -0.471 OA
ATOM     35  C   UNL     1      40.411 -25.129 -15.130  0.00  0.00    +0.252 C 
ENDBRANCH   5  34
TORSDOF 5
ENDMDL
MODEL 9
REMARK VINA RESULT:      -8.6     11.107     15.550
REMARK  Name = 10275777
REMARK  5 active torsions:
REMARK  status: ('A' for Active; 'I' for Inactive)
REMARK    1  A    between atoms: C_1  and  N_19
REMARK    2  A    between atoms: C_2  and  C_11
REMARK    3  A    between atoms: C_5  and  O_34
REMARK    4  A    between atoms: C_20  and  C_22
REMARK    5  A    between atoms: C_23  and  C_30
REMARK                            x       y       z     vdW  Elec       q    Type
REMARK                         _______ _______ _______ _____ _____    ______ ____
ROOT
ATOM      1  C   UNL     1      32.656  -7.197 -23.866  0.00  0.00    +0.055 C 
ATOM      2  C   UNL     1      32.530  -6.710 -22.576  0.00  0.00    +0.070 C 
ATOM      3  C   UNL     1      32.567  -6.358 -24.965  0.00  0.00    +0.018 C 
ATOM      4  C   UNL     1      32.307  -5.347 -22.378  0.00  0.00    +0.043 C 
ATOM      5  C   UNL     1      32.214  -4.489 -23.475  0.00  0.00    +0.139 C 
ATOM      6  C   UNL     1      32.344  -4.995 -24.768  0.00  0.00    +0.038 C 
ENDROOT
BRANCH   2  11
ATOM      7 CL   UNL     1      31.595 -13.057 -17.518  0.00  0.00    -0.081 Cl
ATOM      8  O   UNL     1      33.230  -7.171 -20.405  0.00  0.00    -0.270 OA
ATOM      9  N   UNL     1      31.987  -8.819 -21.520  0.00  0.00    -0.266 N 
ATOM     10  N   UNL     1      31.222 -10.966 -20.886  0.00  0.00    -0.228 NA
ATOM     11  C   UNL     1      32.626  -7.577 -21.408  0.00  0.00    +0.252 C 
ATOM     12  C   UNL     1      31.892  -9.850 -20.552  0.00  0.00    +0.134 C 
ATOM     13  C   UNL     1      32.497  -9.618 -19.336  0.00  0.00    +0.035 C 
ATOM     14  C   UNL     1      32.408 -10.623 -18.378  0.00  0.00    +0.016 C 
ATOM     15  C   UNL     1      31.156 -11.920 -19.931  0.00  0.00    +0.112 C 
ATOM     16  C   UNL     1      31.726 -11.799 -18.673  0.00  0.00    +0.077 C 
ATOM     17  H   UNL     1      31.548  -9.000 -22.383  0.00  0.00    +0.157 HD
ENDBRANCH   2  11
BRANCH   1  19
ATOM     18  O   UNL     1      35.204  -8.776 -23.804  0.00  0.00    -0.270 OA
ATOM     19  N   UNL     1      32.884  -8.576 -24.090  0.00  0.00    -0.280 N 
ATOM     20  C   UNL     1      34.097  -9.278 -24.051  0.00  0.00    +0.249 C 
ATOM     21  H   UNL     1      32.086  -9.113 -24.302  0.00  0.00    +0.155 HD
BRANCH  20  22
ATOM     22  C   UNL     1      34.018 -10.698 -24.355  0.00  0.00    +0.054 C 
ATOM     23  C   UNL     1      33.866 -13.389 -24.931  0.00  0.00    +0.031 C 
ATOM     24  C   UNL     1      33.477 -11.582 -23.422  0.00  0.00    +0.005 C 
ATOM     25  C   UNL     1      34.482 -11.177 -25.581  0.00  0.00    +0.005 C 
ATOM     26  C   UNL     1      33.400 -12.944 -23.714  0.00  0.00    +0.003 C 
ATOM     27  C   UNL     1      34.404 -12.539 -25.873  0.00  0.00    +0.003 C 
BRANCH  23  30
ATOM     28  N   UNL     1      34.515 -15.765 -24.489  0.00  0.00    -0.290 N 
ATOM     29  N   UNL     1      32.993 -15.145 -26.233  0.00  0.00    -0.285 NA
ATOM     30  C   UNL     1      33.783 -14.841 -25.243  0.00  0.00    +0.123 C 
ATOM     31  C   UNL     1      34.518 -17.187 -24.821  0.00  0.00    +0.114 C 
ATOM     32  C   UNL     1      35.384 -15.386 -23.377  0.00  0.00    +0.114 C 
ATOM     33  H   UNL     1      32.881 -16.084 -26.504  0.00  0.00    +0.188 HD
ENDBRANCH  23  30
ENDBRANCH  20  22
ENDBRANCH   1  19
BRANCH   5  34
ATOM     34  O   UNL     1      31.997  -3.160 -23.282  0.00  0.00    -0.471 OA
ATOM     35  C   UNL     1      31.959  -2.333 -24.445  0.00  0.00    +0.252 C 
ENDBRANCH   5  34
TORSDOF 5
ENDMDL
