MODEL 1
REMARK VINA RESULT:     -12.6      0.000      0.000
REMARK  Name = 4369496
REMARK  6 active torsions:
REMARK  status: ('A' for Active; 'I' for Inactive)
REMARK    1  A    between atoms: N_2  and  C_21
REMARK    2  A    between atoms: C_3  and  C_10
REMARK    3  A    between atoms: C_5  and  C_11
REMARK    4  A    between atoms: C_11  and  N_12
REMARK    5  A    between atoms: C_23  and  N_27
REMARK    6  A    between atoms: C_31  and  C_36
REMARK                            x       y       z     vdW  Elec       q    Type
REMARK                         _______ _______ _______ _____ _____    ______ ____
ROOT
ATOM      1  O   UNL     1      33.838 -23.969 -19.267  0.00  0.00    -0.270 OA
ATOM      2  N   UNL     1      33.645 -22.441 -17.497  0.00  0.00    -0.280 N 
ATOM      3  C   UNL     1      34.003 -22.833 -18.795  0.00  0.00    +0.249 C 
ATOM      4  H   UNL     1      33.839 -21.504 -17.265  0.00  0.00    +0.155 HD
ENDROOT
BRANCH   3  10
ATOM      5  C   UNL     1      35.850 -19.867 -21.180  0.00  0.00    -0.043 C 
ATOM      6  C   UNL     1      34.466 -19.971 -21.168  0.00  0.00    -0.006 C 
ATOM      7  C   UNL     1      36.637 -20.722 -20.421  0.00  0.00    -0.006 C 
ATOM      8  C   UNL     1      33.857 -20.948 -20.380  0.00  0.00    +0.004 C 
ATOM      9  C   UNL     1      36.028 -21.699 -19.634  0.00  0.00    +0.004 C 
ATOM     10  C   UNL     1      34.638 -21.813 -19.613  0.00  0.00    +0.054 C 
BRANCH   5  11
ATOM     11  C   UNL     1      36.508 -18.812 -22.028  0.00  0.00    -0.050 C 
BRANCH  11  12
ATOM     12  N   UNL     1      35.540 -18.106 -22.866  0.00  0.00    +0.387 N 
ATOM     13  N   UNL     1      34.809 -16.443 -25.116  0.00  0.00    +0.383 N 
ATOM     14  C   UNL     1      35.559 -18.629 -24.237  0.00  0.00    -0.100 C 
ATOM     15  C   UNL     1      35.804 -16.662 -22.865  0.00  0.00    -0.100 C 
ATOM     16  C   UNL     1      34.546 -17.888 -25.118  0.00  0.00    -0.101 C 
ATOM     17  C   UNL     1      34.792 -15.920 -23.744  0.00  0.00    -0.101 C 
ATOM     18  C   UNL     1      33.840 -15.739 -25.953  0.00  0.00    -0.101 C 
ATOM     19  H   UNL     1      34.612 -18.263 -22.476  0.00  0.00    -0.079 HD
ATOM     20  H   UNL     1      35.738 -16.285 -25.508  0.00  0.00    -0.080 HD
ENDBRANCH  11  12
ENDBRANCH   5  11
ENDBRANCH   3  10
BRANCH   2  21
ATOM     21  C   UNL     1      33.040 -23.215 -16.477  0.00  0.00    +0.052 C 
ATOM     22  C   UNL     1      33.622 -23.253 -15.222  0.00  0.00    +0.030 C 
ATOM     23  C   UNL     1      33.027 -24.018 -14.218  0.00  0.00    +0.059 C 
ATOM     24  C   UNL     1      31.880 -23.916 -16.760  0.00  0.00    +0.015 C 
ATOM     25  C   UNL     1      31.858 -24.731 -14.485  0.00  0.00    +0.015 C 
ATOM     26  C   UNL     1      31.285 -24.680 -15.755  0.00  0.00    +0.003 C 
BRANCH  23  27
ATOM     27  N   UNL     1      33.606 -24.067 -12.932  0.00  0.00    -0.247 N 
ATOM     28  N   UNL     1      35.879 -24.344 -13.443  0.00  0.00    -0.337 NA
ATOM     29  N   UNL     1      35.130 -24.224 -11.156  0.00  0.00    -0.170 NA
ATOM     30  C   UNL     1      34.934 -24.219 -12.490  0.00  0.00    +0.149 C 
ATOM     31  C   UNL     1      37.140 -24.488 -12.984  0.00  0.00    +0.147 C 
ATOM     32  C   UNL     1      37.469 -24.508 -11.644  0.00  0.00    +0.055 C 
ATOM     33  C   UNL     1      36.414 -24.371 -10.767  0.00  0.00    +0.114 C 
ATOM     34  H   UNL     1      32.952 -23.979 -12.201  0.00  0.00    +0.165 HD
BRANCH  31  36
ATOM     35  N   UNL     1      39.106 -23.835 -16.082  0.00  0.00    -0.242 NA
ATOM     36  C   UNL     1      38.152 -24.621 -14.003  0.00  0.00    +0.050 C 
ATOM     37  C   UNL     1      39.125 -25.612 -13.924  0.00  0.00    +0.006 C 
ATOM     38  C   UNL     1      38.186 -23.766 -15.093  0.00  0.00    +0.101 C 
ATOM     39  C   UNL     1      40.088 -25.715 -14.922  0.00  0.00    +0.021 C 
ATOM     40  C   UNL     1      40.035 -24.810 -15.970  0.00  0.00    +0.099 C 
ENDBRANCH  31  36
ENDBRANCH  23  27
ENDBRANCH   2  21
TORSDOF 6
ENDMDL
MODEL 2
REMARK VINA RESULT:     -12.5      3.023      5.849
REMARK  Name = 4369496
REMARK  6 active torsions:
REMARK  status: ('A' for Active; 'I' for Inactive)
REMARK    1  A    between atoms: N_2  and  C_21
REMARK    2  A    between atoms: C_3  and  C_10
REMARK    3  A    between atoms: C_5  and  C_11
REMARK    4  A    between atoms: C_11  and  N_12
REMARK    5  A    between atoms: C_23  and  N_27
REMARK    6  A    between atoms: C_31  and  C_36
REMARK                            x       y       z     vdW  Elec       q    Type
REMARK                         _______ _______ _______ _____ _____    ______ ____
ROOT
ATOM      1  O   UNL     1      36.849 -18.298 -21.032  0.00  0.00    -0.270 OA
ATOM      2  N   UNL     1      34.678 -19.128 -21.349  0.00  0.00    -0.280 N 
ATOM      3  C   UNL     1      35.710 -18.194 -21.514  0.00  0.00    +0.249 C 
ATOM      4  H   UNL     1      33.828 -18.908 -21.792  0.00  0.00    +0.155 HD
ENDROOT
BRANCH   3  10
ATOM      5  C   UNL     1      34.748 -14.757 -23.783  0.00  0.00    -0.043 C 
ATOM      6  C   UNL     1      35.088 -15.933 -24.436  0.00  0.00    -0.006 C 
ATOM      7  C   UNL     1      34.718 -14.690 -22.398  0.00  0.00    -0.006 C 
ATOM      8  C   UNL     1      35.404 -17.067 -23.687  0.00  0.00    +0.004 C 
ATOM      9  C   UNL     1      35.034 -15.824 -21.649  0.00  0.00    +0.004 C 
ATOM     10  C   UNL     1      35.378 -17.013 -22.294  0.00  0.00    +0.054 C 
BRANCH   5  11
ATOM     11  C   UNL     1      34.405 -13.533 -24.591  0.00  0.00    -0.050 C 
BRANCH  11  12
ATOM     12  N   UNL     1      34.037 -12.404 -23.738  0.00  0.00    +0.387 N 
ATOM     13  N   UNL     1      32.370 -10.154 -23.019  0.00  0.00    +0.383 N 
ATOM     14  C   UNL     1      32.702 -12.599 -23.162  0.00  0.00    -0.100 C 
ATOM     15  C   UNL     1      34.092 -11.144 -24.489  0.00  0.00    -0.100 C 
ATOM     16  C   UNL     1      32.314 -11.415 -22.270  0.00  0.00    -0.101 C 
ATOM     17  C   UNL     1      33.706  -9.959 -23.597  0.00  0.00    -0.101 C 
ATOM     18  C   UNL     1      32.004  -9.026 -22.166  0.00  0.00    -0.101 C 
ATOM     19  H   UNL     1      34.711 -12.353 -22.975  0.00  0.00    -0.079 HD
ATOM     20  H   UNL     1      31.694 -10.204 -23.782  0.00  0.00    -0.080 HD
ENDBRANCH  11  12
ENDBRANCH   5  11
ENDBRANCH   3  10
BRANCH   2  21
ATOM     21  C   UNL     1      34.699 -20.348 -20.628  0.00  0.00    +0.052 C 
ATOM     22  C   UNL     1      33.565 -20.747 -19.941  0.00  0.00    +0.030 C 
ATOM     23  C   UNL     1      33.587 -21.947 -19.230  0.00  0.00    +0.059 C 
ATOM     24  C   UNL     1      35.853 -21.112 -20.626  0.00  0.00    +0.015 C 
ATOM     25  C   UNL     1      34.741 -22.730 -19.218  0.00  0.00    +0.015 C 
ATOM     26  C   UNL     1      35.875 -22.312 -19.916  0.00  0.00    +0.003 C 
BRANCH  23  27
ATOM     27  N   UNL     1      32.440 -22.370 -18.526  0.00  0.00    -0.247 N 
ATOM     28  N   UNL     1      33.387 -23.346 -16.613  0.00  0.00    -0.337 NA
ATOM     29  N   UNL     1      30.998 -23.289 -16.919  0.00  0.00    -0.170 NA
ATOM     30  C   UNL     1      32.267 -23.033 -17.295  0.00  0.00    +0.149 C 
ATOM     31  C   UNL     1      33.184 -23.980 -15.440  0.00  0.00    +0.147 C 
ATOM     32  C   UNL     1      31.936 -24.297 -14.946  0.00  0.00    +0.055 C 
ATOM     33  C   UNL     1      30.868 -23.924 -15.736  0.00  0.00    +0.114 C 
ATOM     34  H   UNL     1      31.595 -22.162 -18.986  0.00  0.00    +0.165 HD
BRANCH  31  36
ATOM     35  N   UNL     1      35.485 -24.623 -12.579  0.00  0.00    -0.242 NA
ATOM     36  C   UNL     1      34.383 -24.314 -14.709  0.00  0.00    +0.050 C 
ATOM     37  C   UNL     1      35.560 -24.643 -15.373  0.00  0.00    +0.006 C 
ATOM     38  C   UNL     1      34.399 -24.319 -13.323  0.00  0.00    +0.101 C 
ATOM     39  C   UNL     1      36.699 -24.961 -14.642  0.00  0.00    +0.021 C 
ATOM     40  C   UNL     1      36.610 -24.937 -13.260  0.00  0.00    +0.099 C 
ENDBRANCH  31  36
ENDBRANCH  23  27
ENDBRANCH   2  21
TORSDOF 6
ENDMDL
MODEL 3
REMARK VINA RESULT:     -12.3      1.289      1.928
REMARK  Name = 4369496
REMARK  6 active torsions:
REMARK  status: ('A' for Active; 'I' for Inactive)
REMARK    1  A    between atoms: N_2  and  C_21
REMARK    2  A    between atoms: C_3  and  C_10
REMARK    3  A    between atoms: C_5  and  C_11
REMARK    4  A    between atoms: C_11  and  N_12
REMARK    5  A    between atoms: C_23  and  N_27
REMARK    6  A    between atoms: C_31  and  C_36
REMARK                            x       y       z     vdW  Elec       q    Type
REMARK                         _______ _______ _______ _____ _____    ______ ____
ROOT
ATOM      1  O   UNL     1      33.794 -23.919 -18.973  0.00  0.00    -0.270 OA
ATOM      2  N   UNL     1      32.689 -22.159 -17.884  0.00  0.00    -0.280 N 
ATOM      3  C   UNL     1      33.529 -22.711 -18.861  0.00  0.00    +0.249 C 
ATOM      4  H   UNL     1      32.575 -21.182 -17.921  0.00  0.00    +0.155 HD
ENDROOT
BRANCH   3  10
ATOM      5  C   UNL     1      35.310 -19.957 -21.532  0.00  0.00    -0.043 C 
ATOM      6  C   UNL     1      36.117 -20.764 -20.744  0.00  0.00    -0.006 C 
ATOM      7  C   UNL     1      33.926 -20.040 -21.459  0.00  0.00    -0.006 C 
ATOM      8  C   UNL     1      35.531 -21.672 -19.864  0.00  0.00    +0.004 C 
ATOM      9  C   UNL     1      33.339 -20.949 -20.578  0.00  0.00    +0.004 C 
ATOM     10  C   UNL     1      34.141 -21.765 -19.780  0.00  0.00    +0.054 C 
BRANCH   5  11
ATOM     11  C   UNL     1      35.943 -18.977 -22.484  0.00  0.00    -0.050 C 
BRANCH  11  12
ATOM     12  N   UNL     1      35.175 -17.737 -22.578  0.00  0.00    +0.387 N 
ATOM     13  N   UNL     1      34.937 -14.870 -22.870  0.00  0.00    +0.383 N 
ATOM     14  C   UNL     1      35.400 -17.081 -23.872  0.00  0.00    -0.100 C 
ATOM     15  C   UNL     1      35.517 -16.828 -21.477  0.00  0.00    -0.100 C 
ATOM     16  C   UNL     1      34.598 -15.779 -23.971  0.00  0.00    -0.101 C 
ATOM     17  C   UNL     1      34.714 -15.526 -21.575  0.00  0.00    -0.101 C 
ATOM     18  C   UNL     1      34.168 -13.631 -22.963  0.00  0.00    -0.101 C 
ATOM     19  H   UNL     1      34.186 -17.972 -22.506  0.00  0.00    -0.079 HD
ATOM     20  H   UNL     1      35.927 -14.632 -22.943  0.00  0.00    -0.080 HD
ENDBRANCH  11  12
ENDBRANCH   5  11
ENDBRANCH   3  10
BRANCH   2  21
ATOM     21  C   UNL     1      31.983 -22.822 -16.851  0.00  0.00    +0.052 C 
ATOM     22  C   UNL     1      32.671 -23.251 -15.729  0.00  0.00    +0.030 C 
ATOM     23  C   UNL     1      31.975 -23.906 -14.712  0.00  0.00    +0.059 C 
ATOM     24  C   UNL     1      30.620 -23.026 -16.987  0.00  0.00    +0.015 C 
ATOM     25  C   UNL     1      30.602 -24.120 -14.833  0.00  0.00    +0.015 C 
ATOM     26  C   UNL     1      29.925 -23.681 -15.970  0.00  0.00    +0.003 C 
BRANCH  23  27
ATOM     27  N   UNL     1      32.659 -24.349 -13.561  0.00  0.00    -0.247 N 
ATOM     28  N   UNL     1      34.898 -24.017 -14.180  0.00  0.00    -0.337 NA
ATOM     29  N   UNL     1      34.333 -24.918 -12.018  0.00  0.00    -0.170 NA
ATOM     30  C   UNL     1      34.028 -24.432 -13.239  0.00  0.00    +0.149 C 
ATOM     31  C   UNL     1      36.200 -24.110 -13.837  0.00  0.00    +0.147 C 
ATOM     32  C   UNL     1      36.639 -24.590 -12.621  0.00  0.00    +0.055 C 
ATOM     33  C   UNL     1      35.652 -24.984 -11.742  0.00  0.00    +0.114 C 
ATOM     34  H   UNL     1      32.063 -24.662 -12.843  0.00  0.00    +0.165 HD
BRANCH  31  36
ATOM     35  N   UNL     1      39.309 -23.868 -15.879  0.00  0.00    -0.242 NA
ATOM     36  C   UNL     1      37.132 -23.665 -14.845  0.00  0.00    +0.050 C 
ATOM     37  C   UNL     1      36.798 -22.648 -15.733  0.00  0.00    +0.006 C 
ATOM     38  C   UNL     1      38.389 -24.237 -14.959  0.00  0.00    +0.101 C 
ATOM     39  C   UNL     1      37.718 -22.240 -16.693  0.00  0.00    +0.021 C 
ATOM     40  C   UNL     1      38.948 -22.877 -16.724  0.00  0.00    +0.099 C 
ENDBRANCH  31  36
ENDBRANCH  23  27
ENDBRANCH   2  21
TORSDOF 6
ENDMDL
MODEL 4
REMARK VINA RESULT:     -11.2      2.318      5.498
REMARK  Name = 4369496
REMARK  6 active torsions:
REMARK  status: ('A' for Active; 'I' for Inactive)
REMARK    1  A    between atoms: N_2  and  C_21
REMARK    2  A    between atoms: C_3  and  C_10
REMARK    3  A    between atoms: C_5  and  C_11
REMARK    4  A    between atoms: C_11  and  N_12
REMARK    5  A    between atoms: C_23  and  N_27
REMARK    6  A    between atoms: C_31  and  C_36
REMARK                            x       y       z     vdW  Elec       q    Type
REMARK                         _______ _______ _______ _____ _____    ______ ____
ROOT
ATOM      1  O   UNL     1      36.905 -19.181 -22.146  0.00  0.00    -0.270 OA
ATOM      2  N   UNL     1      34.648 -19.649 -21.711  0.00  0.00    -0.280 N 
ATOM      3  C   UNL     1      35.698 -19.003 -22.377  0.00  0.00    +0.249 C 
ATOM      4  H   UNL     1      33.741 -19.405 -22.004  0.00  0.00    +0.155 HD
ENDROOT
BRANCH   3  10
ATOM      5  C   UNL     1      34.565 -16.201 -25.336  0.00  0.00    -0.043 C 
ATOM      6  C   UNL     1      34.194 -17.530 -25.477  0.00  0.00    -0.006 C 
ATOM      7  C   UNL     1      35.302 -15.776 -24.240  0.00  0.00    -0.006 C 
ATOM      8  C   UNL     1      34.567 -18.454 -24.500  0.00  0.00    +0.004 C 
ATOM      9  C   UNL     1      35.675 -16.700 -23.264  0.00  0.00    +0.004 C 
ATOM     10  C   UNL     1      35.308 -18.039 -23.394  0.00  0.00    +0.054 C 
BRANCH   5  11
ATOM     11  C   UNL     1      34.162 -15.203 -26.389  0.00  0.00    -0.050 C 
BRANCH  11  12
ATOM     12  N   UNL     1      33.622 -13.979 -25.800  0.00  0.00    +0.387 N 
ATOM     13  N   UNL     1      33.812 -11.615 -24.146  0.00  0.00    +0.383 N 
ATOM     14  C   UNL     1      34.397 -12.809 -26.230  0.00  0.00    -0.100 C 
ATOM     15  C   UNL     1      33.603 -14.070 -24.335  0.00  0.00    -0.100 C 
ATOM     16  C   UNL     1      33.833 -11.525 -25.611  0.00  0.00    -0.101 C 
ATOM     17  C   UNL     1      33.039 -12.787 -23.715  0.00  0.00    -0.101 C 
ATOM     18  C   UNL     1      33.271 -10.392 -23.558  0.00  0.00    -0.101 C 
ATOM     19  H   UNL     1      32.664 -13.867 -26.128  0.00  0.00    -0.079 HD
ATOM     20  H   UNL     1      34.772 -11.725 -23.817  0.00  0.00    -0.080 HD
ENDBRANCH  11  12
ENDBRANCH   5  11
ENDBRANCH   3  10
BRANCH   2  21
ATOM     21  C   UNL     1      34.721 -20.607 -20.670  0.00  0.00    +0.052 C 
ATOM     22  C   UNL     1      33.553 -21.030 -20.058  0.00  0.00    +0.030 C 
ATOM     23  C   UNL     1      33.625 -21.973 -19.031  0.00  0.00    +0.059 C 
ATOM     24  C   UNL     1      35.958 -21.097 -20.288  0.00  0.00    +0.015 C 
ATOM     25  C   UNL     1      34.863 -22.478 -18.634  0.00  0.00    +0.015 C 
ATOM     26  C   UNL     1      36.029 -22.040 -19.262  0.00  0.00    +0.003 C 
BRANCH  23  27
ATOM     27  N   UNL     1      32.446 -22.416 -18.397  0.00  0.00    -0.247 N 
ATOM     28  N   UNL     1      33.294 -23.380 -16.433  0.00  0.00    -0.337 NA
ATOM     29  N   UNL     1      30.926 -23.362 -16.881  0.00  0.00    -0.170 NA
ATOM     30  C   UNL     1      32.211 -23.084 -17.180  0.00  0.00    +0.149 C 
ATOM     31  C   UNL     1      33.031 -24.020 -15.274  0.00  0.00    +0.147 C 
ATOM     32  C   UNL     1      31.761 -24.359 -14.856  0.00  0.00    +0.055 C 
ATOM     33  C   UNL     1      30.737 -24.002 -15.708  0.00  0.00    +0.114 C 
ATOM     34  H   UNL     1      31.626 -22.221 -18.907  0.00  0.00    +0.165 HD
BRANCH  31  36
ATOM     35  N   UNL     1      35.180 -24.585 -12.281  0.00  0.00    -0.242 NA
ATOM     36  C   UNL     1      34.190 -24.335 -14.473  0.00  0.00    +0.050 C 
ATOM     37  C   UNL     1      35.398 -24.686 -15.066  0.00  0.00    +0.006 C 
ATOM     38  C   UNL     1      34.134 -24.300 -13.089  0.00  0.00    +0.101 C 
ATOM     39  C   UNL     1      36.497 -24.985 -14.268  0.00  0.00    +0.021 C 
ATOM     40  C   UNL     1      36.337 -24.921 -12.894  0.00  0.00    +0.099 C 
ENDBRANCH  31  36
ENDBRANCH  23  27
ENDBRANCH   2  21
TORSDOF 6
ENDMDL
MODEL 5
REMARK VINA RESULT:     -10.9      6.597     15.039
REMARK  Name = 4369496
REMARK  6 active torsions:
REMARK  status: ('A' for Active; 'I' for Inactive)
REMARK    1  A    between atoms: N_2  and  C_21
REMARK    2  A    between atoms: C_3  and  C_10
REMARK    3  A    between atoms: C_5  and  C_11
REMARK    4  A    between atoms: C_11  and  N_12
REMARK    5  A    between atoms: C_23  and  N_27
REMARK    6  A    between atoms: C_31  and  C_36
REMARK                            x       y       z     vdW  Elec       q    Type
REMARK                         _______ _______ _______ _____ _____    ______ ____
ROOT
ATOM      1  O   UNL     1      34.065 -15.589 -25.236  0.00  0.00    -0.270 OA
ATOM      2  N   UNL     1      34.738 -14.180 -23.485  0.00  0.00    -0.280 N 
ATOM      3  C   UNL     1      34.610 -15.416 -24.134  0.00  0.00    +0.249 C 
ATOM      4  H   UNL     1      35.196 -14.201 -22.614  0.00  0.00    +0.155 HD
ENDROOT
BRANCH   3  10
ATOM      5  C   UNL     1      36.172 -18.758 -22.064  0.00  0.00    -0.043 C 
ATOM      6  C   UNL     1      35.864 -17.602 -21.362  0.00  0.00    -0.006 C 
ATOM      7  C   UNL     1      35.974 -18.836 -23.436  0.00  0.00    -0.006 C 
ATOM      8  C   UNL     1      35.348 -16.500 -22.044  0.00  0.00    +0.004 C 
ATOM      9  C   UNL     1      35.459 -17.734 -24.118  0.00  0.00    +0.004 C 
ATOM     10  C   UNL     1      35.146 -16.566 -23.423  0.00  0.00    +0.054 C 
BRANCH   5  11
ATOM     11  C   UNL     1      36.727 -19.948 -21.328  0.00  0.00    -0.050 C 
BRANCH  11  12
ATOM     12  N   UNL     1      35.805 -20.433 -20.302  0.00  0.00    +0.387 N 
ATOM     13  N   UNL     1      34.094 -22.440 -19.117  0.00  0.00    +0.383 N 
ATOM     14  C   UNL     1      36.365 -21.596 -19.605  0.00  0.00    -0.100 C 
ATOM     15  C   UNL     1      34.502 -20.767 -20.890  0.00  0.00    -0.100 C 
ATOM     16  C   UNL     1      35.398 -22.106 -18.531  0.00  0.00    -0.101 C 
ATOM     17  C   UNL     1      33.533 -21.277 -19.817  0.00  0.00    -0.101 C 
ATOM     18  C   UNL     1      33.172 -22.922 -18.091  0.00  0.00    -0.101 C 
ATOM     19  H   UNL     1      35.669 -19.686 -19.623  0.00  0.00    -0.079 HD
ATOM     20  H   UNL     1      34.229 -23.189 -19.797  0.00  0.00    -0.080 HD
ENDBRANCH  11  12
ENDBRANCH   5  11
ENDBRANCH   3  10
BRANCH   2  21
ATOM     21  C   UNL     1      34.296 -12.906 -23.918  0.00  0.00    +0.052 C 
ATOM     22  C   UNL     1      33.709 -12.048 -23.004  0.00  0.00    +0.030 C 
ATOM     23  C   UNL     1      33.271 -10.794 -23.431  0.00  0.00    +0.059 C 
ATOM     24  C   UNL     1      34.459 -12.550 -25.245  0.00  0.00    +0.015 C 
ATOM     25  C   UNL     1      33.428 -10.418 -24.765  0.00  0.00    +0.015 C 
ATOM     26  C   UNL     1      34.022 -11.295 -25.672  0.00  0.00    +0.003 C 
BRANCH  23  27
ATOM     27  N   UNL     1      32.672  -9.906 -22.514  0.00  0.00    -0.247 N 
ATOM     28  N   UNL     1      33.132  -7.824 -23.495  0.00  0.00    -0.337 NA
ATOM     29  N   UNL     1      31.911  -7.973 -21.422  0.00  0.00    -0.170 NA
ATOM     30  C   UNL     1      32.567  -8.502 -22.475  0.00  0.00    +0.149 C 
ATOM     31  C   UNL     1      33.012  -6.482 -23.425  0.00  0.00    +0.147 C 
ATOM     32  C   UNL     1      32.365  -5.822 -22.401  0.00  0.00    +0.055 C 
ATOM     33  C   UNL     1      31.829  -6.627 -21.417  0.00  0.00    +0.114 C 
ATOM     34  H   UNL     1      32.245 -10.356 -21.750  0.00  0.00    +0.165 HD
BRANCH  31  36
ATOM     35  N   UNL     1      33.521  -3.903 -26.068  0.00  0.00    -0.242 NA
ATOM     36  C   UNL     1      33.615  -5.756 -24.517  0.00  0.00    +0.050 C 
ATOM     37  C   UNL     1      34.824  -6.166 -25.070  0.00  0.00    +0.006 C 
ATOM     38  C   UNL     1      33.010  -4.628 -25.048  0.00  0.00    +0.101 C 
ATOM     39  C   UNL     1      35.381  -5.446 -26.122  0.00  0.00    +0.021 C 
ATOM     40  C   UNL     1      34.696  -4.332 -26.579  0.00  0.00    +0.099 C 
ENDBRANCH  31  36
ENDBRANCH  23  27
ENDBRANCH   2  21
TORSDOF 6
ENDMDL
MODEL 6
REMARK VINA RESULT:     -10.8      3.034      6.078
REMARK  Name = 4369496
REMARK  6 active torsions:
REMARK  status: ('A' for Active; 'I' for Inactive)
REMARK    1  A    between atoms: N_2  and  C_21
REMARK    2  A    between atoms: C_3  and  C_10
REMARK    3  A    between atoms: C_5  and  C_11
REMARK    4  A    between atoms: C_11  and  N_12
REMARK    5  A    between atoms: C_23  and  N_27
REMARK    6  A    between atoms: C_31  and  C_36
REMARK                            x       y       z     vdW  Elec       q    Type
REMARK                         _______ _______ _______ _____ _____    ______ ____
ROOT
ATOM      1  O   UNL     1      36.155 -19.259 -23.380  0.00  0.00    -0.270 OA
ATOM      2  N   UNL     1      34.580 -18.824 -21.697  0.00  0.00    -0.280 N 
ATOM      3  C   UNL     1      35.329 -18.507 -22.839  0.00  0.00    +0.249 C 
ATOM      4  H   UNL     1      33.963 -18.124 -21.384  0.00  0.00    +0.155 HD
ENDROOT
BRANCH   3  10
ATOM      5  C   UNL     1      34.709 -14.644 -24.445  0.00  0.00    -0.043 C 
ATOM      6  C   UNL     1      34.645 -15.749 -25.281  0.00  0.00    -0.006 C 
ATOM      7  C   UNL     1      34.974 -14.785 -23.090  0.00  0.00    -0.006 C 
ATOM      8  C   UNL     1      34.848 -17.023 -24.751  0.00  0.00    +0.004 C 
ATOM      9  C   UNL     1      35.177 -16.060 -22.561  0.00  0.00    +0.004 C 
ATOM     10  C   UNL     1      35.115 -17.179 -23.391  0.00  0.00    +0.054 C 
BRANCH   5  11
ATOM     11  C   UNL     1      34.489 -13.268 -25.016  0.00  0.00    -0.050 C 
BRANCH  11  12
ATOM     12  N   UNL     1      34.098 -12.307 -23.986  0.00  0.00    +0.387 N 
ATOM     13  N   UNL     1      32.309 -10.349 -22.836  0.00  0.00    +0.383 N 
ATOM     14  C   UNL     1      32.836 -12.708 -23.353  0.00  0.00    -0.100 C 
ATOM     15  C   UNL     1      33.982 -10.957 -24.550  0.00  0.00    -0.100 C 
ATOM     16  C   UNL     1      32.423 -11.700 -22.274  0.00  0.00    -0.101 C 
ATOM     17  C   UNL     1      33.571  -9.949 -23.471  0.00  0.00    -0.101 C 
ATOM     18  C   UNL     1      31.919  -9.389 -21.805  0.00  0.00    -0.101 C 
ATOM     19  H   UNL     1      34.826 -12.297 -23.273  0.00  0.00    -0.079 HD
ATOM     20  H   UNL     1      31.579 -10.358 -23.549  0.00  0.00    -0.080 HD
ENDBRANCH  11  12
ENDBRANCH   5  11
ENDBRANCH   3  10
BRANCH   2  21
ATOM     21  C   UNL     1      34.594 -20.018 -20.936  0.00  0.00    +0.052 C 
ATOM     22  C   UNL     1      35.710 -20.321 -20.174  0.00  0.00    +0.030 C 
ATOM     23  C   UNL     1      35.724 -21.499 -19.426  0.00  0.00    +0.059 C 
ATOM     24  C   UNL     1      33.492 -20.855 -20.972  0.00  0.00    +0.015 C 
ATOM     25  C   UNL     1      34.623 -22.354 -19.450  0.00  0.00    +0.015 C 
ATOM     26  C   UNL     1      33.507 -22.032 -20.223  0.00  0.00    +0.003 C 
BRANCH  23  27
ATOM     27  N   UNL     1      36.852 -21.823 -18.643  0.00  0.00    -0.247 N 
ATOM     28  N   UNL     1      35.859 -22.821 -16.766  0.00  0.00    -0.337 NA
ATOM     29  N   UNL     1      38.252 -22.594 -16.926  0.00  0.00    -0.170 NA
ATOM     30  C   UNL     1      36.994 -22.441 -17.386  0.00  0.00    +0.149 C 
ATOM     31  C   UNL     1      36.032 -23.410 -15.564  0.00  0.00    +0.147 C 
ATOM     32  C   UNL     1      37.267 -23.624 -14.987  0.00  0.00    +0.055 C 
ATOM     33  C   UNL     1      38.352 -23.190 -15.719  0.00  0.00    +0.114 C 
ATOM     34  H   UNL     1      37.707 -21.564 -19.056  0.00  0.00    +0.165 HD
BRANCH  31  36
ATOM     35  N   UNL     1      33.732 -24.651 -12.907  0.00  0.00    -0.242 NA
ATOM     36  C   UNL     1      34.818 -23.818 -14.901  0.00  0.00    +0.050 C 
ATOM     37  C   UNL     1      33.593 -23.783 -15.560  0.00  0.00    +0.006 C 
ATOM     38  C   UNL     1      34.833 -24.257 -13.586  0.00  0.00    +0.101 C 
ATOM     39  C   UNL     1      32.439 -24.182 -14.894  0.00  0.00    +0.021 C 
ATOM     40  C   UNL     1      32.562 -24.603 -13.580  0.00  0.00    +0.099 C 
ENDBRANCH  31  36
ENDBRANCH  23  27
ENDBRANCH   2  21
TORSDOF 6
ENDMDL
MODEL 7
REMARK VINA RESULT:     -10.6      9.134     17.564
REMARK  Name = 4369496
REMARK  6 active torsions:
REMARK  status: ('A' for Active; 'I' for Inactive)
REMARK    1  A    between atoms: N_2  and  C_21
REMARK    2  A    between atoms: C_3  and  C_10
REMARK    3  A    between atoms: C_5  and  C_11
REMARK    4  A    between atoms: C_11  and  N_12
REMARK    5  A    between atoms: C_23  and  N_27
REMARK    6  A    between atoms: C_31  and  C_36
REMARK                            x       y       z     vdW  Elec       q    Type
REMARK                         _______ _______ _______ _____ _____    ______ ____
ROOT
ATOM      1  O   UNL     1      34.847  -9.057 -24.121  0.00  0.00    -0.270 OA
ATOM      2  N   UNL     1      32.875  -9.426 -22.906  0.00  0.00    -0.280 N 
ATOM      3  C   UNL     1      33.912  -9.795 -23.775  0.00  0.00    +0.249 C 
ATOM      4  H   UNL     1      32.202 -10.121 -22.724  0.00  0.00    +0.155 HD
ENDROOT
BRANCH   3  10
ATOM      5  C   UNL     1      33.706 -13.721 -25.335  0.00  0.00    -0.043 C 
ATOM      6  C   UNL     1      33.341 -13.490 -24.016  0.00  0.00    -0.006 C 
ATOM      7  C   UNL     1      34.136 -12.684 -26.150  0.00  0.00    -0.006 C 
ATOM      8  C   UNL     1      33.408 -12.195 -23.502  0.00  0.00    +0.004 C 
ATOM      9  C   UNL     1      34.203 -11.389 -25.636  0.00  0.00    +0.004 C 
ATOM     10  C   UNL     1      33.840 -11.144 -24.312  0.00  0.00    +0.054 C 
BRANCH   5  11
ATOM     11  C   UNL     1      33.632 -15.119 -25.891  0.00  0.00    -0.050 C 
BRANCH  11  12
ATOM     12  N   UNL     1      34.062 -16.117 -24.913  0.00  0.00    +0.387 N 
ATOM     13  N   UNL     1      35.981 -17.967 -23.795  0.00  0.00    +0.383 N 
ATOM     14  C   UNL     1      35.230 -15.641 -24.163  0.00  0.00    -0.100 C 
ATOM     15  C   UNL     1      34.360 -17.395 -25.570  0.00  0.00    -0.100 C 
ATOM     16  C   UNL     1      35.684 -16.688 -23.139  0.00  0.00    -0.101 C 
ATOM     17  C   UNL     1      34.813 -18.442 -24.547  0.00  0.00    -0.101 C 
ATOM     18  C   UNL     1      36.410 -18.965 -22.817  0.00  0.00    -0.101 C 
ATOM     19  H   UNL     1      33.297 -16.264 -24.256  0.00  0.00    -0.079 HD
ATOM     20  H   UNL     1      36.749 -17.821 -24.452  0.00  0.00    -0.080 HD
ENDBRANCH  11  12
ENDBRANCH   5  11
ENDBRANCH   3  10
BRANCH   2  21
ATOM     21  C   UNL     1      32.669  -8.184 -22.256  0.00  0.00    +0.052 C 
ATOM     22  C   UNL     1      31.993  -7.176 -22.922  0.00  0.00    +0.030 C 
ATOM     23  C   UNL     1      31.792  -5.953 -22.282  0.00  0.00    +0.059 C 
ATOM     24  C   UNL     1      33.149  -8.008 -20.970  0.00  0.00    +0.015 C 
ATOM     25  C   UNL     1      32.269  -5.757 -20.986  0.00  0.00    +0.015 C 
ATOM     26  C   UNL     1      32.947  -6.784 -20.330  0.00  0.00    +0.003 C 
BRANCH  23  27
ATOM     27  N   UNL     1      31.104  -4.915 -22.945  0.00  0.00    -0.247 N 
ATOM     28  N   UNL     1      32.615  -4.353 -24.649  0.00  0.00    -0.337 NA
ATOM     29  N   UNL     1      30.513  -3.197 -24.429  0.00  0.00    -0.170 NA
ATOM     30  C   UNL     1      31.426  -4.118 -24.060  0.00  0.00    +0.149 C 
ATOM     31  C   UNL     1      32.891  -3.571 -25.714  0.00  0.00    +0.147 C 
ATOM     32  C   UNL     1      32.039  -2.596 -26.189  0.00  0.00    +0.055 C 
ATOM     33  C   UNL     1      30.853  -2.451 -25.500  0.00  0.00    +0.114 C 
ATOM     34  H   UNL     1      30.226  -4.707 -22.549  0.00  0.00    +0.165 HD
BRANCH  31  36
ATOM     35  N   UNL     1      35.933  -3.059 -27.806  0.00  0.00    -0.242 NA
ATOM     36  C   UNL     1      34.163  -3.824 -26.346  0.00  0.00    +0.050 C 
ATOM     37  C   UNL     1      34.847  -5.017 -26.133  0.00  0.00    +0.006 C 
ATOM     38  C   UNL     1      34.745  -2.886 -27.184  0.00  0.00    +0.101 C 
ATOM     39  C   UNL     1      36.071  -5.231 -26.756  0.00  0.00    +0.021 C 
ATOM     40  C   UNL     1      36.566  -4.230 -27.575  0.00  0.00    +0.099 C 
ENDBRANCH  31  36
ENDBRANCH  23  27
ENDBRANCH   2  21
TORSDOF 6
ENDMDL
MODEL 8
REMARK VINA RESULT:     -10.4      9.437     14.792
REMARK  Name = 4369496
REMARK  6 active torsions:
REMARK  status: ('A' for Active; 'I' for Inactive)
REMARK    1  A    between atoms: N_2  and  C_21
REMARK    2  A    between atoms: C_3  and  C_10
REMARK    3  A    between atoms: C_5  and  C_11
REMARK    4  A    between atoms: C_11  and  N_12
REMARK    5  A    between atoms: C_23  and  N_27
REMARK    6  A    between atoms: C_31  and  C_36
REMARK                            x       y       z     vdW  Elec       q    Type
REMARK                         _______ _______ _______ _____ _____    ______ ____
ROOT
ATOM      1  O   UNL     1      33.446  -7.648 -20.891  0.00  0.00    -0.270 OA
ATOM      2  N   UNL     1      32.439  -9.328 -22.182  0.00  0.00    -0.280 N 
ATOM      3  C   UNL     1      33.035  -8.075 -21.982  0.00  0.00    +0.249 C 
ATOM      4  H   UNL     1      32.163  -9.526 -23.106  0.00  0.00    +0.155 HD
ENDROOT
BRANCH   3  10
ATOM      5  C   UNL     1      33.340  -5.603 -25.401  0.00  0.00    -0.043 C 
ATOM      6  C   UNL     1      34.479  -5.895 -24.665  0.00  0.00    -0.006 C 
ATOM      7  C   UNL     1      32.102  -6.109 -25.033  0.00  0.00    -0.006 C 
ATOM      8  C   UNL     1      34.379  -6.711 -23.538  0.00  0.00    +0.004 C 
ATOM      9  C   UNL     1      32.001  -6.925 -23.906  0.00  0.00    +0.004 C 
ATOM     10  C   UNL     1      33.140  -7.226 -23.158  0.00  0.00    +0.054 C 
BRANCH   5  11
ATOM     11  C   UNL     1      33.448  -4.723 -26.618  0.00  0.00    -0.050 C 
BRANCH  11  12
ATOM     12  N   UNL     1      34.714  -3.993 -26.651  0.00  0.00    +0.387 N 
ATOM     13  N   UNL     1      36.856  -2.611 -28.016  0.00  0.00    +0.383 N 
ATOM     14  C   UNL     1      34.523  -2.645 -27.199  0.00  0.00    -0.100 C 
ATOM     15  C   UNL     1      35.718  -4.726 -27.432  0.00  0.00    -0.100 C 
ATOM     16  C   UNL     1      35.850  -1.879 -27.236  0.00  0.00    -0.101 C 
ATOM     17  C   UNL     1      37.046  -3.961 -27.469  0.00  0.00    -0.101 C 
ATOM     18  C   UNL     1      38.121  -1.881 -28.047  0.00  0.00    -0.101 C 
ATOM     19  H   UNL     1      35.052  -3.905 -25.694  0.00  0.00    -0.079 HD
ATOM     20  H   UNL     1      36.518  -2.698 -28.975  0.00  0.00    -0.080 HD
ENDBRANCH  11  12
ENDBRANCH   5  11
ENDBRANCH   3  10
BRANCH   2  21
ATOM     21  C   UNL     1      32.183 -10.345 -21.231  0.00  0.00    +0.052 C 
ATOM     22  C   UNL     1      32.951 -11.497 -21.250  0.00  0.00    +0.030 C 
ATOM     23  C   UNL     1      32.697 -12.500 -20.313  0.00  0.00    +0.059 C 
ATOM     24  C   UNL     1      31.171 -10.164 -20.304  0.00  0.00    +0.015 C 
ATOM     25  C   UNL     1      31.681 -12.334 -19.372  0.00  0.00    +0.015 C 
ATOM     26  C   UNL     1      30.918 -11.166 -19.367  0.00  0.00    +0.003 C 
BRANCH  23  27
ATOM     27  N   UNL     1      33.469 -13.681 -20.317  0.00  0.00    -0.247 N 
ATOM     28  N   UNL     1      33.790 -14.034 -22.615  0.00  0.00    -0.337 NA
ATOM     29  N   UNL     1      34.716 -15.551 -20.988  0.00  0.00    -0.170 NA
ATOM     30  C   UNL     1      34.017 -14.458 -21.356  0.00  0.00    +0.149 C 
ATOM     31  C   UNL     1      34.329 -14.802 -23.584  0.00  0.00    +0.147 C 
ATOM     32  C   UNL     1      35.064 -15.943 -23.337  0.00  0.00    +0.055 C 
ATOM     33  C   UNL     1      35.227 -16.273 -22.007  0.00  0.00    +0.114 C 
ATOM     34  H   UNL     1      33.662 -14.029 -19.417  0.00  0.00    +0.165 HD
BRANCH  31  36
ATOM     35  N   UNL     1      33.715 -14.889 -27.259  0.00  0.00    -0.242 NA
ATOM     36  C   UNL     1      34.087 -14.348 -24.932  0.00  0.00    +0.050 C 
ATOM     37  C   UNL     1      33.989 -12.991 -25.225  0.00  0.00    +0.006 C 
ATOM     38  C   UNL     1      33.943 -15.248 -25.976  0.00  0.00    +0.101 C 
ATOM     39  C   UNL     1      33.755 -12.584 -26.534  0.00  0.00    +0.021 C 
ATOM     40  C   UNL     1      33.626 -13.564 -27.505  0.00  0.00    +0.099 C 
ENDBRANCH  31  36
ENDBRANCH  23  27
ENDBRANCH   2  21
TORSDOF 6
ENDMDL
MODEL 9
REMARK VINA RESULT:     -10.4      3.770     11.573
REMARK  Name = 4369496
REMARK  6 active torsions:
REMARK  status: ('A' for Active; 'I' for Inactive)
REMARK    1  A    between atoms: N_2  and  C_21
REMARK    2  A    between atoms: C_3  and  C_10
REMARK    3  A    between atoms: C_5  and  C_11
REMARK    4  A    between atoms: C_11  and  N_12
REMARK    5  A    between atoms: C_23  and  N_27
REMARK    6  A    between atoms: C_31  and  C_36
REMARK                            x       y       z     vdW  Elec       q    Type
REMARK                         _______ _______ _______ _____ _____    ______ ____
ROOT
ATOM      1  O   UNL     1      36.827 -22.007 -19.498  0.00  0.00    -0.270 OA
ATOM      2  N   UNL     1      35.296 -20.434 -20.324  0.00  0.00    -0.280 N 
ATOM      3  C   UNL     1      35.685 -21.524 -19.533  0.00  0.00    +0.249 C 
ATOM      4  H   UNL     1      34.354 -20.163 -20.244  0.00  0.00    +0.155 HD
ENDROOT
BRANCH   3  10
ATOM      5  C   UNL     1      32.641 -23.276 -17.176  0.00  0.00    -0.043 C 
ATOM      6  C   UNL     1      33.970 -23.477 -16.834  0.00  0.00    -0.006 C 
ATOM      7  C   UNL     1      32.294 -22.508 -18.278  0.00  0.00    -0.006 C 
ATOM      8  C   UNL     1      34.974 -22.899 -17.611  0.00  0.00    +0.004 C 
ATOM      9  C   UNL     1      33.298 -21.929 -19.055  0.00  0.00    +0.004 C 
ATOM     10  C   UNL     1      34.638 -22.125 -18.722  0.00  0.00    +0.054 C 
BRANCH   5  11
ATOM     11  C   UNL     1      31.556 -23.899 -16.337  0.00  0.00    -0.050 C 
BRANCH  11  12
ATOM     12  N   UNL     1      30.298 -23.163 -16.440  0.00  0.00    +0.387 N 
ATOM     13  N   UNL     1      27.469 -22.816 -15.955  0.00  0.00    +0.383 N 
ATOM     14  C   UNL     1      29.791 -22.806 -15.110  0.00  0.00    -0.100 C 
ATOM     15  C   UNL     1      29.297 -23.944 -17.177  0.00  0.00    -0.100 C 
ATOM     16  C   UNL     1      28.471 -22.037 -15.217  0.00  0.00    -0.101 C 
ATOM     17  C   UNL     1      27.976 -23.174 -17.286  0.00  0.00    -0.101 C 
ATOM     18  C   UNL     1      26.211 -22.079 -16.059  0.00  0.00    -0.101 C 
ATOM     19  H   UNL     1      30.478 -22.302 -16.956  0.00  0.00    -0.079 HD
ATOM     20  H   UNL     1      27.287 -23.677 -15.438  0.00  0.00    -0.080 HD
ENDBRANCH  11  12
ENDBRANCH   5  11
ENDBRANCH   3  10
BRANCH   2  21
ATOM     21  C   UNL     1      36.082 -19.671 -21.223  0.00  0.00    +0.052 C 
ATOM     22  C   UNL     1      35.509 -19.203 -22.393  0.00  0.00    +0.030 C 
ATOM     23  C   UNL     1      36.284 -18.454 -23.279  0.00  0.00    +0.059 C 
ATOM     24  C   UNL     1      37.405 -19.412 -20.910  0.00  0.00    +0.015 C 
ATOM     25  C   UNL     1      37.619 -18.183 -22.979  0.00  0.00    +0.015 C 
ATOM     26  C   UNL     1      38.180 -18.662 -21.796  0.00  0.00    +0.003 C 
BRANCH  23  27
ATOM     27  N   UNL     1      35.716 -17.968 -24.475  0.00  0.00    -0.247 N 
ATOM     28  N   UNL     1      34.615 -16.034 -23.729  0.00  0.00    -0.337 NA
ATOM     29  N   UNL     1      34.545 -16.682 -26.049  0.00  0.00    -0.170 NA
ATOM     30  C   UNL     1      34.921 -16.842 -24.764  0.00  0.00    +0.149 C 
ATOM     31  C   UNL     1      33.853 -14.966 -24.043  0.00  0.00    +0.147 C 
ATOM     32  C   UNL     1      33.405 -14.693 -25.319  0.00  0.00    +0.055 C 
ATOM     33  C   UNL     1      33.785 -15.594 -26.292  0.00  0.00    +0.114 C 
ATOM     34  H   UNL     1      35.914 -18.526 -25.261  0.00  0.00    +0.165 HD
BRANCH  31  36
ATOM     35  N   UNL     1      32.692 -11.969 -22.156  0.00  0.00    -0.242 NA
ATOM     36  C   UNL     1      33.526 -14.100 -22.936  0.00  0.00    +0.050 C 
ATOM     37  C   UNL     1      33.710 -14.516 -21.621  0.00  0.00    +0.006 C 
ATOM     38  C   UNL     1      33.019 -12.828 -23.147  0.00  0.00    +0.101 C 
ATOM     39  C   UNL     1      33.386 -13.660 -20.575  0.00  0.00    +0.021 C 
ATOM     40  C   UNL     1      32.884 -12.408 -20.893  0.00  0.00    +0.099 C 
ENDBRANCH  31  36
ENDBRANCH  23  27
ENDBRANCH   2  21
TORSDOF 6
ENDMDL
