MODEL 1
REMARK VINA RESULT:     -11.4      0.000      0.000
REMARK  Name = 25147644
REMARK  4 active torsions:
REMARK  status: ('A' for Active; 'I' for Inactive)
REMARK    1  A    between atoms: C_3  and  N_11
REMARK    2  A    between atoms: C_4  and  C_23
REMARK    3  A    between atoms: C_12  and  C_15
REMARK    4  A    between atoms: C_23  and  C_25
REMARK                            x       y       z     vdW  Elec       q    Type
REMARK                         _______ _______ _______ _____ _____    ______ ____
ROOT
ATOM      1  N   UNL     1      32.462 -23.986 -13.879  0.00  0.00    +0.390 N 
ATOM      2  C   UNL     1      31.262 -23.872 -16.186  0.00  0.00    +0.012 C 
ATOM      3  C   UNL     1      32.795 -23.938 -16.359  0.00  0.00    +0.053 C 
ATOM      4  C   UNL     1      33.461 -23.792 -14.966  0.00  0.00    -0.035 C 
ATOM      5  C   UNL     1      30.900 -22.661 -15.307  0.00  0.00    -0.021 C 
ATOM      6  C   UNL     1      30.851 -25.136 -15.411  0.00  0.00    -0.021 C 
ATOM      7  C   UNL     1      31.531 -22.832 -13.913  0.00  0.00    -0.077 C 
ATOM      8  C   UNL     1      31.666 -25.215 -14.108  0.00  0.00    -0.077 C 
ATOM      9  H   UNL     1      32.947 -24.065 -12.984  0.00  0.00    -0.080 HD
ENDROOT
BRANCH   3  11
ATOM     10  O   UNL     1      33.830 -24.423 -18.993  0.00  0.00    -0.267 OA
ATOM     11  N   UNL     1      33.284 -22.948 -17.288  0.00  0.00    -0.302 N 
ATOM     12  C   UNL     1      33.767 -23.281 -18.544  0.00  0.00    +0.280 C 
ATOM     13  H   UNL     1      33.274 -22.002 -17.018  0.00  0.00    +0.150 HD
BRANCH  12  15
ATOM     14  O   UNL     1      35.596 -21.908 -19.387  0.00  0.00    -0.449 OA
ATOM     15  C   UNL     1      34.259 -22.148 -19.372  0.00  0.00    +0.198 C 
ATOM     16  C   UNL     1      33.593 -21.247 -20.168  0.00  0.00    +0.045 C 
ATOM     17  C   UNL     1      34.582 -20.389 -20.715  0.00  0.00    +0.038 C 
ATOM     18  C   UNL     1      35.796 -20.837 -20.204  0.00  0.00    +0.146 C 
ATOM     19  C   UNL     1      34.588 -19.283 -21.584  0.00  0.00    +0.003 C 
ATOM     20  C   UNL     1      37.030 -20.259 -20.498  0.00  0.00    +0.037 C 
ATOM     21  C   UNL     1      35.813 -18.680 -21.898  0.00  0.00    +0.000 C 
ATOM     22  C   UNL     1      37.011 -19.162 -21.364  0.00  0.00    +0.003 C 
ENDBRANCH  12  15
ENDBRANCH   3  11
BRANCH   4  23
ATOM     23  C   UNL     1      34.658 -24.734 -14.810  0.00  0.00    +0.009 C 
BRANCH  23  25
ATOM     24  N   UNL     1      37.716 -23.042 -13.364  0.00  0.00    -0.243 NA
ATOM     25  C   UNL     1      35.646 -24.208 -13.807  0.00  0.00    -0.005 C 
ATOM     26  C   UNL     1      35.441 -24.381 -12.443  0.00  0.00    -0.001 C 
ATOM     27  C   UNL     1      36.789 -23.537 -14.213  0.00  0.00    +0.095 C 
ATOM     28  C   UNL     1      36.374 -23.884 -11.537  0.00  0.00    +0.020 C 
ATOM     29  C   UNL     1      37.484 -23.228 -12.044  0.00  0.00    +0.099 C 
ENDBRANCH  23  25
ENDBRANCH   4  23
TORSDOF 4
ENDMDL
MODEL 2
REMARK VINA RESULT:     -10.7      1.591      4.403
REMARK  Name = 25147644
REMARK  4 active torsions:
REMARK  status: ('A' for Active; 'I' for Inactive)
REMARK    1  A    between atoms: C_3  and  N_11
REMARK    2  A    between atoms: C_4  and  C_23
REMARK    3  A    between atoms: C_12  and  C_15
REMARK    4  A    between atoms: C_23  and  C_25
REMARK                            x       y       z     vdW  Elec       q    Type
REMARK                         _______ _______ _______ _____ _____    ______ ____
ROOT
ATOM      1  N   UNL     1      36.083 -25.734 -13.501  0.00  0.00    +0.390 N 
ATOM      2  C   UNL     1      37.646 -23.811 -14.295  0.00  0.00    +0.012 C 
ATOM      3  C   UNL     1      36.165 -23.374 -14.330  0.00  0.00    +0.053 C 
ATOM      4  C   UNL     1      35.273 -24.612 -14.053  0.00  0.00    -0.035 C 
ATOM      5  C   UNL     1      37.826 -25.070 -15.161  0.00  0.00    -0.021 C 
ATOM      6  C   UNL     1      37.954 -24.209 -12.842  0.00  0.00    -0.021 C 
ATOM      7  C   UNL     1      36.976 -26.217 -14.583  0.00  0.00    -0.077 C 
ATOM      8  C   UNL     1      36.937 -25.269 -12.384  0.00  0.00    -0.077 C 
ATOM      9  H   UNL     1      35.457 -26.466 -13.162  0.00  0.00    -0.080 HD
ENDROOT
BRANCH   3  11
ATOM     10  O   UNL     1      34.896 -24.603 -16.593  0.00  0.00    -0.267 OA
ATOM     11  N   UNL     1      35.813 -22.733 -15.573  0.00  0.00    -0.302 N 
ATOM     12  C   UNL     1      35.199 -23.413 -16.614  0.00  0.00    +0.280 C 
ATOM     13  H   UNL     1      36.016 -21.776 -15.686  0.00  0.00    +0.150 HD
BRANCH  12  15
ATOM     14  O   UNL     1      35.979 -22.029 -18.461  0.00  0.00    -0.449 OA
ATOM     15  C   UNL     1      34.924 -22.616 -17.838  0.00  0.00    +0.198 C 
ATOM     16  C   UNL     1      33.752 -22.341 -18.501  0.00  0.00    +0.045 C 
ATOM     17  C   UNL     1      34.101 -21.528 -19.611  0.00  0.00    +0.038 C 
ATOM     18  C   UNL     1      35.481 -21.365 -19.542  0.00  0.00    +0.146 C 
ATOM     19  C   UNL     1      33.405 -20.911 -20.666  0.00  0.00    +0.003 C 
ATOM     20  C   UNL     1      36.228 -20.624 -20.455  0.00  0.00    +0.037 C 
ATOM     21  C   UNL     1      34.129 -20.159 -21.601  0.00  0.00    +0.000 C 
ATOM     22  C   UNL     1      35.515 -20.020 -21.495  0.00  0.00    +0.003 C 
ENDBRANCH  12  15
ENDBRANCH   3  11
BRANCH   4  23
ATOM     23  C   UNL     1      34.091 -24.266 -13.144  0.00  0.00    +0.009 C 
BRANCH  23  25
ATOM     24  N   UNL     1      30.818 -25.390 -14.671  0.00  0.00    -0.243 NA
ATOM     25  C   UNL     1      32.799 -24.231 -13.910  0.00  0.00    -0.005 C 
ATOM     26  C   UNL     1      32.379 -23.073 -14.553  0.00  0.00    -0.001 C 
ATOM     27  C   UNL     1      31.990 -25.353 -13.997  0.00  0.00    +0.095 C 
ATOM     28  C   UNL     1      31.178 -23.071 -15.256  0.00  0.00    +0.020 C 
ATOM     29  C   UNL     1      30.441 -24.245 -15.284  0.00  0.00    +0.099 C 
ENDBRANCH  23  25
ENDBRANCH   4  23
TORSDOF 4
ENDMDL
MODEL 3
REMARK VINA RESULT:      -8.7     12.310     17.400
REMARK  Name = 25147644
REMARK  4 active torsions:
REMARK  status: ('A' for Active; 'I' for Inactive)
REMARK    1  A    between atoms: C_3  and  N_11
REMARK    2  A    between atoms: C_4  and  C_23
REMARK    3  A    between atoms: C_12  and  C_15
REMARK    4  A    between atoms: C_23  and  C_25
REMARK                            x       y       z     vdW  Elec       q    Type
REMARK                         _______ _______ _______ _____ _____    ______ ____
ROOT
ATOM      1  N   UNL     1      32.434  -5.699 -23.827  0.00  0.00    +0.390 N 
ATOM      2  C   UNL     1      32.214  -7.641 -22.107  0.00  0.00    +0.012 C 
ATOM      3  C   UNL     1      33.382  -7.894 -23.085  0.00  0.00    +0.053 C 
ATOM      4  C   UNL     1      33.335  -6.823 -24.206  0.00  0.00    -0.035 C 
ATOM      5  C   UNL     1      30.912  -7.452 -22.907  0.00  0.00    -0.021 C 
ATOM      6  C   UNL     1      32.512  -6.308 -21.400  0.00  0.00    -0.021 C 
ATOM      7  C   UNL     1      31.046  -6.220 -23.821  0.00  0.00    -0.077 C 
ATOM      8  C   UNL     1      32.741  -5.216 -22.460  0.00  0.00    -0.077 C 
ATOM      9  H   UNL     1      32.556  -4.932 -24.488  0.00  0.00    -0.080 HD
ENDROOT
BRANCH   3  11
ATOM     10  O   UNL     1      35.631  -9.365 -24.097  0.00  0.00    -0.267 OA
ATOM     11  N   UNL     1      33.363  -9.231 -23.626  0.00  0.00    -0.302 N 
ATOM     12  C   UNL     1      34.507  -9.861 -24.093  0.00  0.00    +0.280 C 
ATOM     13  H   UNL     1      32.506  -9.713 -23.666  0.00  0.00    +0.150 HD
BRANCH  12  15
ATOM     14  O   UNL     1      34.538 -12.282 -23.816  0.00  0.00    -0.449 OA
ATOM     15  C   UNL     1      34.316 -11.228 -24.645  0.00  0.00    +0.198 C 
ATOM     16  C   UNL     1      33.937 -11.661 -25.893  0.00  0.00    +0.045 C 
ATOM     17  C   UNL     1      33.924 -13.080 -25.839  0.00  0.00    +0.038 C 
ATOM     18  C   UNL     1      34.300 -13.411 -24.541  0.00  0.00    +0.146 C 
ATOM     19  C   UNL     1      33.636 -14.119 -26.740  0.00  0.00    +0.003 C 
ATOM     20  C   UNL     1      34.413 -14.717 -24.069  0.00  0.00    +0.037 C 
ATOM     21  C   UNL     1      33.741 -15.444 -26.294  0.00  0.00    +0.000 C 
ATOM     22  C   UNL     1      34.122 -15.735 -24.982  0.00  0.00    +0.003 C 
ENDBRANCH  12  15
ENDBRANCH   3  11
BRANCH   4  23
ATOM     23  C   UNL     1      34.736  -6.327 -24.573  0.00  0.00    +0.009 C 
BRANCH  23  25
ATOM     24  N   UNL     1      33.454  -4.438 -27.589  0.00  0.00    -0.243 NA
ATOM     25  C   UNL     1      34.726  -5.548 -25.859  0.00  0.00    -0.005 C 
ATOM     26  C   UNL     1      35.911  -5.220 -26.507  0.00  0.00    -0.001 C 
ATOM     27  C   UNL     1      33.534  -5.138 -26.435  0.00  0.00    +0.095 C 
ATOM     28  C   UNL     1      35.869  -4.500 -27.697  0.00  0.00    +0.020 C 
ATOM     29  C   UNL     1      34.627  -4.136 -28.192  0.00  0.00    +0.099 C 
ENDBRANCH  23  25
ENDBRANCH   4  23
TORSDOF 4
ENDMDL
