MODEL 1
REMARK VINA RESULT:     -11.6      0.000      0.000
REMARK  Name = 46937134
REMARK  9 active torsions:
REMARK  status: ('A' for Active; 'I' for Inactive)
REMARK    1  A    between atoms: N_2  and  C_15
REMARK    2  A    between atoms: N_6  and  C_29
REMARK    3  A    between atoms: C_16  and  O_19
REMARK    4  A    between atoms: C_18  and  C_21
REMARK    5  A    between atoms: C_21  and  O_22
REMARK    6  A    between atoms: O_22  and  P_23
REMARK    7  A    between atoms: P_23  and  O_25
REMARK    8  A    between atoms: P_23  and  O_27
REMARK    9  A    between atoms: C_29  and  C_30
REMARK                            x       y       z     vdW  Elec       q    Type
REMARK                         _______ _______ _______ _____ _____    ______ ____
ROOT
ATOM      1  O   UNL     1      37.829 -22.813 -14.588  0.00  0.00    -0.208 OA
ATOM      2  N   UNL     1      33.685 -24.580 -14.221  0.00  0.00    -0.209 NA
ATOM      3  N   UNL     1      34.236 -23.519 -16.340  0.00  0.00    -0.279 N 
ATOM      4  N   UNL     1      35.648 -24.222 -13.193  0.00  0.00    -0.241 NA
ATOM      5  N   UNL     1      36.454 -22.608 -16.443  0.00  0.00    -0.301 NA
ATOM      6  N   UNL     1      34.969 -22.474 -18.239  0.00  0.00    -0.292 N 
ATOM      7  C   UNL     1      34.485 -23.920 -15.090  0.00  0.00    +0.191 C 
ATOM      8  C   UNL     1      34.437 -24.741 -13.080  0.00  0.00    +0.205 C 
ATOM      9  C   UNL     1      35.675 -23.707 -14.459  0.00  0.00    +0.183 C 
ATOM     10  C   UNL     1      35.276 -22.854 -16.985  0.00  0.00    +0.248 C 
ATOM     11  C   UNL     1      36.752 -23.014 -15.136  0.00  0.00    +0.224 C 
ATOM     12  H   UNL     1      33.369 -23.683 -16.778  0.00  0.00    +0.152 HD
ATOM     13  H   UNL     1      34.073 -22.685 -18.588  0.00  0.00    +0.151 HD
ENDROOT
BRANCH   2  15
ATOM     14  O   UNL     1      31.778 -24.716 -15.746  0.00  0.00    -0.338 OA
ATOM     15  C   UNL     1      32.268 -25.049 -14.433  0.00  0.00    +0.182 C 
ATOM     16  C   UNL     1      29.979 -24.520 -14.202  0.00  0.00    +0.144 C 
ATOM     17  C   UNL     1      31.282 -24.441 -13.440  0.00  0.00    +0.079 C 
ATOM     18  C   UNL     1      30.410 -24.272 -15.643  0.00  0.00    +0.174 C 
BRANCH  16  19
ATOM     19  O   UNL     1      29.462 -25.842 -14.078  0.00  0.00    -0.382 OA
ATOM     20  H   UNL     1      30.165 -26.484 -14.269  0.00  0.00    +0.210 HD
ENDBRANCH  16  19
BRANCH  18  21
ATOM     21  C   UNL     1      30.365 -22.799 -16.025  0.00  0.00    +0.186 C 
BRANCH  21  22
ATOM     22  O   UNL     1      29.579 -22.659 -17.197  0.00  0.00    -0.271 OA
BRANCH  22  23
ATOM     23  P   UNL     1      27.995 -22.982 -17.108  0.00  0.00    +0.473 P 
ATOM     24  O   UNL     1      27.383 -22.782 -15.752  0.00  0.00    -0.227 OA
BRANCH  23  25
ATOM     25  O   UNL     1      27.372 -22.060 -18.281  0.00  0.00    -0.303 OA
ATOM     26  H   UNL     1      27.972 -22.058 -19.044  0.00  0.00    +0.222 HD
ENDBRANCH  23  25
BRANCH  23  27
ATOM     27  O   UNL     1      27.876 -24.479 -17.708  0.00  0.00    -0.303 OA
ATOM     28  H   UNL     1      28.756 -24.798 -17.958  0.00  0.00    +0.222 HD
ENDBRANCH  23  27
ENDBRANCH  22  23
ENDBRANCH  21  22
ENDBRANCH  18  21
ENDBRANCH   2  15
BRANCH   6  29
ATOM     29  C   UNL     1      35.894 -21.769 -19.096  0.00  0.00    +0.117 C 
BRANCH  29  30
ATOM     30  C   UNL     1      35.160 -20.998 -20.149  0.00  0.00    -0.003 C 
ATOM     31  C   UNL     1      35.817 -20.104 -21.011  0.00  0.00    -0.002 C 
ATOM     32  C   UNL     1      35.066 -19.404 -21.986  0.00  0.00    -0.000 C 
ATOM     33  C   UNL     1      33.784 -21.200 -20.249  0.00  0.00    -0.003 C 
ATOM     34  C   UNL     1      37.202 -19.888 -20.927  0.00  0.00    -0.000 C 
ATOM     35  C   UNL     1      33.681 -19.620 -22.070  0.00  0.00    -0.000 C 
ATOM     36  C   UNL     1      33.045 -20.513 -21.207  0.00  0.00    -0.000 C 
ATOM     37  C   UNL     1      35.722 -18.509 -22.847  0.00  0.00    -0.000 C 
ATOM     38  C   UNL     1      37.837 -18.995 -21.790  0.00  0.00    -0.000 C 
ATOM     39  C   UNL     1      37.099 -18.308 -22.748  0.00  0.00    -0.000 C 
ENDBRANCH  29  30
ENDBRANCH   6  29
TORSDOF 9
ENDMDL
MODEL 2
REMARK VINA RESULT:     -10.9      2.951      6.221
REMARK  Name = 46937134
REMARK  9 active torsions:
REMARK  status: ('A' for Active; 'I' for Inactive)
REMARK    1  A    between atoms: N_2  and  C_15
REMARK    2  A    between atoms: N_6  and  C_29
REMARK    3  A    between atoms: C_16  and  O_19
REMARK    4  A    between atoms: C_18  and  C_21
REMARK    5  A    between atoms: C_21  and  O_22
REMARK    6  A    between atoms: O_22  and  P_23
REMARK    7  A    between atoms: P_23  and  O_25
REMARK    8  A    between atoms: P_23  and  O_27
REMARK    9  A    between atoms: C_29  and  C_30
REMARK                            x       y       z     vdW  Elec       q    Type
REMARK                         _______ _______ _______ _____ _____    ______ ____
ROOT
ATOM      1  O   UNL     1      30.990 -23.258 -17.224  0.00  0.00    -0.208 OA
ATOM      2  N   UNL     1      34.238 -23.854 -14.138  0.00  0.00    -0.209 NA
ATOM      3  N   UNL     1      34.945 -23.069 -16.329  0.00  0.00    -0.279 N 
ATOM      4  N   UNL     1      32.039 -23.982 -14.566  0.00  0.00    -0.241 NA
ATOM      5  N   UNL     1      33.155 -22.783 -17.902  0.00  0.00    -0.301 NA
ATOM      6  N   UNL     1      35.379 -22.338 -18.453  0.00  0.00    -0.292 N 
ATOM      7  C   UNL     1      34.050 -23.467 -15.420  0.00  0.00    +0.191 C 
ATOM      8  C   UNL     1      32.984 -24.159 -13.658  0.00  0.00    +0.205 C 
ATOM      9  C   UNL     1      32.712 -23.547 -15.672  0.00  0.00    +0.183 C 
ATOM     10  C   UNL     1      34.434 -22.732 -17.580  0.00  0.00    +0.248 C 
ATOM     11  C   UNL     1      32.188 -23.194 -16.977  0.00  0.00    +0.224 C 
ATOM     12  H   UNL     1      35.908 -23.018 -16.126  0.00  0.00    +0.152 HD
ATOM     13  H   UNL     1      36.317 -22.322 -18.155  0.00  0.00    +0.151 HD
ENDROOT
BRANCH   2  15
ATOM     14  O   UNL     1      36.670 -24.081 -14.247  0.00  0.00    -0.338 OA
ATOM     15  C   UNL     1      35.534 -23.944 -13.373  0.00  0.00    +0.182 C 
ATOM     16  C   UNL     1      37.070 -25.372 -12.291  0.00  0.00    +0.144 C 
ATOM     17  C   UNL     1      35.584 -25.131 -12.416  0.00  0.00    +0.079 C 
ATOM     18  C   UNL     1      37.590 -25.038 -13.683  0.00  0.00    +0.174 C 
BRANCH  16  19
ATOM     19  O   UNL     1      37.601 -24.445 -11.347  0.00  0.00    -0.382 OA
ATOM     20  H   UNL     1      38.150 -24.920 -10.702  0.00  0.00    +0.210 HD
ENDBRANCH  16  19
BRANCH  18  21
ATOM     21  C   UNL     1      37.628 -26.250 -14.604  0.00  0.00    +0.186 C 
BRANCH  21  22
ATOM     22  O   UNL     1      38.979 -26.639 -14.786  0.00  0.00    -0.271 OA
BRANCH  22  23
ATOM     23  P   UNL     1      40.066 -25.501 -15.166  0.00  0.00    +0.473 P 
ATOM     24  O   UNL     1      40.948 -25.064 -14.034  0.00  0.00    -0.227 OA
BRANCH  23  25
ATOM     25  O   UNL     1      40.843 -26.151 -16.426  0.00  0.00    -0.303 OA
ATOM     26  H   UNL     1      41.730 -25.762 -16.494  0.00  0.00    +0.222 HD
ENDBRANCH  23  25
BRANCH  23  27
ATOM     27  O   UNL     1      39.175 -24.332 -15.841  0.00  0.00    -0.303 OA
ATOM     28  H   UNL     1      39.628 -23.996 -16.631  0.00  0.00    +0.222 HD
ENDBRANCH  23  27
ENDBRANCH  22  23
ENDBRANCH  21  22
ENDBRANCH  18  21
ENDBRANCH   2  15
BRANCH   6  29
ATOM     29  C   UNL     1      35.080 -21.941 -19.810  0.00  0.00    +0.117 C 
BRANCH  29  30
ATOM     30  C   UNL     1      35.942 -20.791 -20.229  0.00  0.00    -0.003 C 
ATOM     31  C   UNL     1      35.670 -20.036 -21.382  0.00  0.00    -0.002 C 
ATOM     32  C   UNL     1      36.524 -18.961 -21.724  0.00  0.00    -0.000 C 
ATOM     33  C   UNL     1      37.040 -20.487 -19.423  0.00  0.00    -0.003 C 
ATOM     34  C   UNL     1      34.570 -20.327 -22.204  0.00  0.00    -0.000 C 
ATOM     35  C   UNL     1      37.625 -18.671 -20.902  0.00  0.00    -0.000 C 
ATOM     36  C   UNL     1      37.880 -19.430 -19.759  0.00  0.00    -0.000 C 
ATOM     37  C   UNL     1      36.252 -18.207 -22.878  0.00  0.00    -0.000 C 
ATOM     38  C   UNL     1      34.314 -19.568 -23.347  0.00  0.00    -0.000 C 
ATOM     39  C   UNL     1      35.154 -18.510 -23.682  0.00  0.00    -0.000 C 
ENDBRANCH  29  30
ENDBRANCH   6  29
TORSDOF 9
ENDMDL
MODEL 3
REMARK VINA RESULT:     -10.8      2.876      6.013
REMARK  Name = 46937134
REMARK  9 active torsions:
REMARK  status: ('A' for Active; 'I' for Inactive)
REMARK    1  A    between atoms: N_2  and  C_15
REMARK    2  A    between atoms: N_6  and  C_29
REMARK    3  A    between atoms: C_16  and  O_19
REMARK    4  A    between atoms: C_18  and  C_21
REMARK    5  A    between atoms: C_21  and  O_22
REMARK    6  A    between atoms: O_22  and  P_23
REMARK    7  A    between atoms: P_23  and  O_25
REMARK    8  A    between atoms: P_23  and  O_27
REMARK    9  A    between atoms: C_29  and  C_30
REMARK                            x       y       z     vdW  Elec       q    Type
REMARK                         _______ _______ _______ _____ _____    ______ ____
ROOT
ATOM      1  O   UNL     1      31.255 -22.689 -17.279  0.00  0.00    -0.208 OA
ATOM      2  N   UNL     1      35.164 -24.365 -15.752  0.00  0.00    -0.209 NA
ATOM      3  N   UNL     1      35.260 -23.082 -17.816  0.00  0.00    -0.279 N 
ATOM      4  N   UNL     1      32.956 -24.187 -15.395  0.00  0.00    -0.241 NA
ATOM      5  N   UNL     1      33.138 -22.233 -18.552  0.00  0.00    -0.301 NA
ATOM      6  N   UNL     1      35.112 -21.847 -19.736  0.00  0.00    -0.292 N 
ATOM      7  C   UNL     1      34.647 -23.633 -16.764  0.00  0.00    +0.191 C 
ATOM      8  C   UNL     1      34.096 -24.681 -14.943  0.00  0.00    +0.205 C 
ATOM      9  C   UNL     1      33.305 -23.529 -16.540  0.00  0.00    +0.183 C 
ATOM     10  C   UNL     1      34.442 -22.379 -18.697  0.00  0.00    +0.248 C 
ATOM     11  C   UNL     1      32.461 -22.795 -17.462  0.00  0.00    +0.224 C 
ATOM     12  H   UNL     1      36.230 -23.169 -17.959  0.00  0.00    +0.152 HD
ATOM     13  H   UNL     1      36.085 -21.990 -19.791  0.00  0.00    +0.151 HD
ENDROOT
BRANCH   2  15
ATOM     14  O   UNL     1      36.712 -26.036 -14.861  0.00  0.00    -0.338 OA
ATOM     15  C   UNL     1      36.601 -24.767 -15.533  0.00  0.00    +0.182 C 
ATOM     16  C   UNL     1      38.472 -24.628 -14.101  0.00  0.00    +0.144 C 
ATOM     17  C   UNL     1      37.381 -23.764 -14.688  0.00  0.00    +0.079 C 
ATOM     18  C   UNL     1      37.773 -25.965 -13.886  0.00  0.00    +0.174 C 
BRANCH  16  19
ATOM     19  O   UNL     1      39.503 -24.778 -15.075  0.00  0.00    -0.382 OA
ATOM     20  H   UNL     1      39.475 -25.678 -15.438  0.00  0.00    +0.210 HD
ENDBRANCH  16  19
BRANCH  18  21
ATOM     21  C   UNL     1      37.148 -26.086 -12.503  0.00  0.00    +0.186 C 
BRANCH  21  22
ATOM     22  O   UNL     1      37.627 -25.024 -11.695  0.00  0.00    -0.271 OA
BRANCH  22  23
ATOM     23  P   UNL     1      36.562 -23.942 -11.131  0.00  0.00    +0.473 P 
ATOM     24  O   UNL     1      35.233 -23.939 -11.828  0.00  0.00    -0.227 OA
BRANCH  23  25
ATOM     25  O   UNL     1      36.505 -24.281  -9.551  0.00  0.00    -0.303 OA
ATOM     26  H   UNL     1      36.280 -25.217  -9.429  0.00  0.00    +0.222 HD
ENDBRANCH  23  25
BRANCH  23  27
ATOM     27  O   UNL     1      37.374 -22.544 -11.183  0.00  0.00    -0.303 OA
ATOM     28  H   UNL     1      36.789 -21.821 -10.910  0.00  0.00    +0.222 HD
ENDBRANCH  23  27
ENDBRANCH  22  23
ENDBRANCH  21  22
ENDBRANCH  18  21
ENDBRANCH   2  15
BRANCH   6  29
ATOM     29  C   UNL     1      34.469 -21.075 -20.775  0.00  0.00    +0.117 C 
BRANCH  29  30
ATOM     30  C   UNL     1      35.424 -20.088 -21.372  0.00  0.00    -0.003 C 
ATOM     31  C   UNL     1      35.178 -19.468 -22.607  0.00  0.00    -0.002 C 
ATOM     32  C   UNL     1      36.121 -18.544 -23.118  0.00  0.00    -0.000 C 
ATOM     33  C   UNL     1      36.582 -19.800 -20.649  0.00  0.00    -0.003 C 
ATOM     34  C   UNL     1      34.019 -19.745 -23.349  0.00  0.00    -0.000 C 
ATOM     35  C   UNL     1      37.282 -18.268 -22.377  0.00  0.00    -0.000 C 
ATOM     36  C   UNL     1      37.509 -18.892 -21.150  0.00  0.00    -0.000 C 
ATOM     37  C   UNL     1      35.876 -17.924 -24.355  0.00  0.00    -0.000 C 
ATOM     38  C   UNL     1      33.791 -19.120 -24.575  0.00  0.00    -0.000 C 
ATOM     39  C   UNL     1      34.718 -18.211 -25.076  0.00  0.00    -0.000 C 
ENDBRANCH  29  30
ENDBRANCH   6  29
TORSDOF 9
ENDMDL
MODEL 4
REMARK VINA RESULT:     -10.5      3.797      6.546
REMARK  Name = 46937134
REMARK  9 active torsions:
REMARK  status: ('A' for Active; 'I' for Inactive)
REMARK    1  A    between atoms: N_2  and  C_15
REMARK    2  A    between atoms: N_6  and  C_29
REMARK    3  A    between atoms: C_16  and  O_19
REMARK    4  A    between atoms: C_18  and  C_21
REMARK    5  A    between atoms: C_21  and  O_22
REMARK    6  A    between atoms: O_22  and  P_23
REMARK    7  A    between atoms: P_23  and  O_25
REMARK    8  A    between atoms: P_23  and  O_27
REMARK    9  A    between atoms: C_29  and  C_30
REMARK                            x       y       z     vdW  Elec       q    Type
REMARK                         _______ _______ _______ _____ _____    ______ ____
ROOT
ATOM      1  O   UNL     1      32.018 -20.528 -21.328  0.00  0.00    -0.208 OA
ATOM      2  N   UNL     1      34.996 -22.349 -18.457  0.00  0.00    -0.209 NA
ATOM      3  N   UNL     1      35.896 -20.894 -20.186  0.00  0.00    -0.279 N 
ATOM      4  N   UNL     1      32.833 -22.191 -19.034  0.00  0.00    -0.241 NA
ATOM      5  N   UNL     1      34.243 -19.975 -21.665  0.00  0.00    -0.301 NA
ATOM      6  N   UNL     1      36.518 -19.498 -21.889  0.00  0.00    -0.292 N 
ATOM      7  C   UNL     1      34.921 -21.530 -19.531  0.00  0.00    +0.191 C 
ATOM      8  C   UNL     1      33.699 -22.727 -18.191  0.00  0.00    +0.205 C 
ATOM      9  C   UNL     1      33.604 -21.439 -19.875  0.00  0.00    +0.183 C 
ATOM     10  C   UNL     1      35.495 -20.114 -21.268  0.00  0.00    +0.248 C 
ATOM     11  C   UNL     1      33.195 -20.625 -21.002  0.00  0.00    +0.224 C 
ATOM     12  H   UNL     1      36.842 -20.973 -19.921  0.00  0.00    +0.152 HD
ATOM     13  H   UNL     1      37.430 -19.641 -21.547  0.00  0.00    +0.151 HD
ENDROOT
BRANCH   2  15
ATOM     14  O   UNL     1      35.939 -23.820 -16.747  0.00  0.00    -0.338 OA
ATOM     15  C   UNL     1      36.225 -22.774 -17.694  0.00  0.00    +0.182 C 
ATOM     16  C   UNL     1      37.585 -22.385 -15.805  0.00  0.00    +0.144 C 
ATOM     17  C   UNL     1      36.860 -21.637 -16.900  0.00  0.00    +0.079 C 
ATOM     18  C   UNL     1      36.661 -23.563 -15.525  0.00  0.00    +0.174 C 
BRANCH  16  19
ATOM     19  O   UNL     1      38.823 -22.862 -16.327  0.00  0.00    -0.382 OA
ATOM     20  H   UNL     1      39.545 -22.288 -16.021  0.00  0.00    +0.210 HD
ENDBRANCH  16  19
BRANCH  18  21
ATOM     21  C   UNL     1      35.642 -23.265 -14.433  0.00  0.00    +0.186 C 
BRANCH  21  22
ATOM     22  O   UNL     1      36.254 -23.480 -13.172  0.00  0.00    -0.271 OA
BRANCH  22  23
ATOM     23  P   UNL     1      35.654 -24.635 -12.209  0.00  0.00    +0.473 P 
ATOM     24  O   UNL     1      35.733 -24.339 -10.740  0.00  0.00    -0.227 OA
BRANCH  23  25
ATOM     25  O   UNL     1      34.157 -24.842 -12.783  0.00  0.00    -0.303 OA
ATOM     26  H   UNL     1      33.675 -24.001 -12.742  0.00  0.00    +0.222 HD
ENDBRANCH  23  25
BRANCH  23  27
ATOM     27  O   UNL     1      36.426 -25.973 -12.688  0.00  0.00    -0.303 OA
ATOM     28  H   UNL     1      35.777 -26.649 -12.935  0.00  0.00    +0.222 HD
ENDBRANCH  23  27
ENDBRANCH  22  23
ENDBRANCH  21  22
ENDBRANCH  18  21
ENDBRANCH   2  15
BRANCH   6  29
ATOM     29  C   UNL     1      36.338 -18.638 -23.036  0.00  0.00    +0.117 C 
BRANCH  29  30
ATOM     30  C   UNL     1      35.682 -17.352 -22.637  0.00  0.00    -0.003 C 
ATOM     31  C   UNL     1      35.105 -16.487 -23.581  0.00  0.00    -0.002 C 
ATOM     32  C   UNL     1      34.500 -15.285 -23.140  0.00  0.00    -0.000 C 
ATOM     33  C   UNL     1      35.661 -17.039 -21.278  0.00  0.00    -0.003 C 
ATOM     34  C   UNL     1      35.116 -16.785 -24.953  0.00  0.00    -0.000 C 
ATOM     35  C   UNL     1      34.490 -14.986 -21.768  0.00  0.00    -0.000 C 
ATOM     36  C   UNL     1      35.066 -15.858 -20.844  0.00  0.00    -0.000 C 
ATOM     37  C   UNL     1      33.924 -14.419 -24.084  0.00  0.00    -0.000 C 
ATOM     38  C   UNL     1      34.540 -15.914 -25.877  0.00  0.00    -0.000 C 
ATOM     39  C   UNL     1      33.944 -14.733 -25.442  0.00  0.00    -0.000 C 
ENDBRANCH  29  30
ENDBRANCH   6  29
TORSDOF 9
ENDMDL
MODEL 5
REMARK VINA RESULT:     -10.3      0.831      2.098
REMARK  Name = 46937134
REMARK  9 active torsions:
REMARK  status: ('A' for Active; 'I' for Inactive)
REMARK    1  A    between atoms: N_2  and  C_15
REMARK    2  A    between atoms: N_6  and  C_29
REMARK    3  A    between atoms: C_16  and  O_19
REMARK    4  A    between atoms: C_18  and  C_21
REMARK    5  A    between atoms: C_21  and  O_22
REMARK    6  A    between atoms: O_22  and  P_23
REMARK    7  A    between atoms: P_23  and  O_25
REMARK    8  A    between atoms: P_23  and  O_27
REMARK    9  A    between atoms: C_29  and  C_30
REMARK                            x       y       z     vdW  Elec       q    Type
REMARK                         _______ _______ _______ _____ _____    ______ ____
ROOT
ATOM      1  O   UNL     1      37.936 -22.582 -13.507  0.00  0.00    -0.208 OA
ATOM      2  N   UNL     1      33.930 -24.585 -14.113  0.00  0.00    -0.209 NA
ATOM      3  N   UNL     1      34.939 -23.550 -16.069  0.00  0.00    -0.279 N 
ATOM      4  N   UNL     1      35.550 -24.083 -12.643  0.00  0.00    -0.241 NA
ATOM      5  N   UNL     1      37.063 -22.510 -15.652  0.00  0.00    -0.301 NA
ATOM      6  N   UNL     1      36.071 -22.513 -17.766  0.00  0.00    -0.292 N 
ATOM      7  C   UNL     1      34.887 -23.902 -14.781  0.00  0.00    +0.191 C 
ATOM      8  C   UNL     1      34.378 -24.670 -12.814  0.00  0.00    +0.205 C 
ATOM      9  C   UNL     1      35.868 -23.601 -13.882  0.00  0.00    +0.183 C 
ATOM     10  C   UNL     1      36.072 -22.841 -16.460  0.00  0.00    +0.248 C 
ATOM     11  C   UNL     1      37.043 -22.862 -14.297  0.00  0.00    +0.224 C 
ATOM     12  H   UNL     1      34.220 -23.778 -16.702  0.00  0.00    +0.152 HD
ATOM     13  H   UNL     1      35.303 -22.787 -18.318  0.00  0.00    +0.151 HD
ENDROOT
BRANCH   2  15
ATOM     14  O   UNL     1      32.248 -24.513 -15.886  0.00  0.00    -0.338 OA
ATOM     15  C   UNL     1      32.638 -25.145 -14.651  0.00  0.00    +0.182 C 
ATOM     16  C   UNL     1      30.283 -24.988 -14.633  0.00  0.00    +0.144 C 
ATOM     17  C   UNL     1      31.465 -24.971 -13.692  0.00  0.00    +0.079 C 
ATOM     18  C   UNL     1      30.823 -24.289 -15.874  0.00  0.00    +0.174 C 
BRANCH  16  19
ATOM     19  O   UNL     1      29.972 -26.344 -14.945  0.00  0.00    -0.382 OA
ATOM     20  H   UNL     1      30.572 -26.661 -15.640  0.00  0.00    +0.210 HD
ENDBRANCH  16  19
BRANCH  18  21
ATOM     21  C   UNL     1      30.586 -22.785 -15.852  0.00  0.00    +0.186 C 
BRANCH  21  22
ATOM     22  O   UNL     1      29.717 -22.447 -16.920  0.00  0.00    -0.271 OA
BRANCH  22  23
ATOM     23  P   UNL     1      28.145 -22.811 -16.781  0.00  0.00    +0.473 P 
ATOM     24  O   UNL     1      27.639 -22.902 -15.371  0.00  0.00    -0.227 OA
BRANCH  23  25
ATOM     25  O   UNL     1      27.431 -21.682 -17.691  0.00  0.00    -0.303 OA
ATOM     26  H   UNL     1      26.482 -21.657 -17.490  0.00  0.00    +0.222 HD
ENDBRANCH  23  25
BRANCH  23  27
ATOM     27  O   UNL     1      27.984 -24.157 -17.662  0.00  0.00    -0.303 OA
ATOM     28  H   UNL     1      27.374 -23.991 -18.397  0.00  0.00    +0.222 HD
ENDBRANCH  23  27
ENDBRANCH  22  23
ENDBRANCH  21  22
ENDBRANCH  18  21
ENDBRANCH   2  15
BRANCH   6  29
ATOM     29  C   UNL     1      37.144 -21.777 -18.393  0.00  0.00    +0.117 C 
BRANCH  29  30
ATOM     30  C   UNL     1      36.626 -20.941 -19.523  0.00  0.00    -0.003 C 
ATOM     31  C   UNL     1      35.276 -20.967 -19.910  0.00  0.00    -0.002 C 
ATOM     32  C   UNL     1      34.848 -20.154 -20.986  0.00  0.00    -0.000 C 
ATOM     33  C   UNL     1      37.540 -20.123 -20.186  0.00  0.00    -0.003 C 
ATOM     34  C   UNL     1      34.341 -21.784 -19.253  0.00  0.00    -0.000 C 
ATOM     35  C   UNL     1      35.783 -19.338 -21.643  0.00  0.00    -0.000 C 
ATOM     36  C   UNL     1      37.120 -19.323 -21.244  0.00  0.00    -0.000 C 
ATOM     37  C   UNL     1      33.498 -20.180 -21.374  0.00  0.00    -0.000 C 
ATOM     38  C   UNL     1      33.004 -21.798 -19.651  0.00  0.00    -0.000 C 
ATOM     39  C   UNL     1      32.584 -20.997 -20.709  0.00  0.00    -0.000 C 
ENDBRANCH  29  30
ENDBRANCH   6  29
TORSDOF 9
ENDMDL
MODEL 6
REMARK VINA RESULT:     -10.1     11.172     14.161
REMARK  Name = 46937134
REMARK  9 active torsions:
REMARK  status: ('A' for Active; 'I' for Inactive)
REMARK    1  A    between atoms: N_2  and  C_15
REMARK    2  A    between atoms: N_6  and  C_29
REMARK    3  A    between atoms: C_16  and  O_19
REMARK    4  A    between atoms: C_18  and  C_21
REMARK    5  A    between atoms: C_21  and  O_22
REMARK    6  A    between atoms: O_22  and  P_23
REMARK    7  A    between atoms: P_23  and  O_25
REMARK    8  A    between atoms: P_23  and  O_27
REMARK    9  A    between atoms: C_29  and  C_30
REMARK                            x       y       z     vdW  Elec       q    Type
REMARK                         _______ _______ _______ _____ _____    ______ ____
ROOT
ATOM      1  O   UNL     1      31.869 -10.949 -18.056  0.00  0.00    -0.208 OA
ATOM      2  N   UNL     1      32.633 -12.952 -22.035  0.00  0.00    -0.209 NA
ATOM      3  N   UNL     1      32.534 -10.522 -22.038  0.00  0.00    -0.279 N 
ATOM      4  N   UNL     1      32.270 -13.260 -19.842  0.00  0.00    -0.241 NA
ATOM      5  N   UNL     1      32.123  -9.546 -19.883  0.00  0.00    -0.301 NA
ATOM      6  N   UNL     1      32.400  -8.249 -21.805  0.00  0.00    -0.292 N 
ATOM      7  C   UNL     1      32.486 -11.731 -21.472  0.00  0.00    +0.191 C 
ATOM      8  C   UNL     1      32.493 -13.852 -21.003  0.00  0.00    +0.205 C 
ATOM      9  C   UNL     1      32.267 -11.926 -20.140  0.00  0.00    +0.183 C 
ATOM     10  C   UNL     1      32.342  -9.441 -21.181  0.00  0.00    +0.248 C 
ATOM     11  C   UNL     1      32.068 -10.796 -19.255  0.00  0.00    +0.224 C 
ATOM     12  H   UNL     1      32.694 -10.402 -23.003  0.00  0.00    +0.152 HD
ATOM     13  H   UNL     1      32.565  -8.234 -22.775  0.00  0.00    +0.151 HD
ENDROOT
BRANCH   2  15
ATOM     14  O   UNL     1      33.084 -14.697 -23.688  0.00  0.00    -0.338 OA
ATOM     15  C   UNL     1      32.894 -13.284 -23.483  0.00  0.00    +0.182 C 
ATOM     16  C   UNL     1      34.528 -13.523 -25.169  0.00  0.00    +0.144 C 
ATOM     17  C   UNL     1      34.138 -12.598 -24.039  0.00  0.00    +0.079 C 
ATOM     18  C   UNL     1      34.158 -14.899 -24.628  0.00  0.00    +0.174 C 
BRANCH  16  19
ATOM     19  O   UNL     1      33.717 -13.221 -26.302  0.00  0.00    -0.382 OA
ATOM     20  H   UNL     1      33.414 -12.300 -26.246  0.00  0.00    +0.210 HD
ENDBRANCH  16  19
BRANCH  18  21
ATOM     21  C   UNL     1      35.309 -15.569 -23.889  0.00  0.00    +0.186 C 
BRANCH  21  22
ATOM     22  O   UNL     1      35.118 -16.973 -23.931  0.00  0.00    -0.271 OA
BRANCH  22  23
ATOM     23  P   UNL     1      35.671 -17.865 -22.698  0.00  0.00    +0.473 P 
ATOM     24  O   UNL     1      35.522 -17.235 -21.345  0.00  0.00    -0.227 OA
BRANCH  23  25
ATOM     25  O   UNL     1      34.890 -19.268 -22.889  0.00  0.00    -0.303 OA
ATOM     26  H   UNL     1      34.977 -19.564 -23.809  0.00  0.00    +0.222 HD
ENDBRANCH  23  25
BRANCH  23  27
ATOM     27  O   UNL     1      37.188 -18.221 -23.133  0.00  0.00    -0.303 OA
ATOM     28  H   UNL     1      37.223 -19.130 -23.469  0.00  0.00    +0.222 HD
ENDBRANCH  23  27
ENDBRANCH  22  23
ENDBRANCH  21  22
ENDBRANCH  18  21
ENDBRANCH   2  15
BRANCH   6  29
ATOM     29  C   UNL     1      32.229  -6.991 -21.115  0.00  0.00    +0.117 C 
BRANCH  29  30
ATOM     30  C   UNL     1      31.920  -5.892 -22.084  0.00  0.00    -0.003 C 
ATOM     31  C   UNL     1      32.713  -5.655 -23.218  0.00  0.00    -0.002 C 
ATOM     32  C   UNL     1      32.367  -4.599 -24.096  0.00  0.00    -0.000 C 
ATOM     33  C   UNL     1      30.802  -5.101 -21.819  0.00  0.00    -0.003 C 
ATOM     34  C   UNL     1      33.841  -6.440 -23.501  0.00  0.00    -0.000 C 
ATOM     35  C   UNL     1      31.239  -3.812 -23.812  0.00  0.00    -0.000 C 
ATOM     36  C   UNL     1      30.462  -4.063 -22.681  0.00  0.00    -0.000 C 
ATOM     37  C   UNL     1      33.161  -4.360 -25.230  0.00  0.00    -0.000 C 
ATOM     38  C   UNL     1      34.619  -6.190 -24.633  0.00  0.00    -0.000 C 
ATOM     39  C   UNL     1      34.278  -5.152 -25.495  0.00  0.00    -0.000 C 
ENDBRANCH  29  30
ENDBRANCH   6  29
TORSDOF 9
ENDMDL
MODEL 7
REMARK VINA RESULT:     -10.1      2.466      5.478
REMARK  Name = 46937134
REMARK  9 active torsions:
REMARK  status: ('A' for Active; 'I' for Inactive)
REMARK    1  A    between atoms: N_2  and  C_15
REMARK    2  A    between atoms: N_6  and  C_29
REMARK    3  A    between atoms: C_16  and  O_19
REMARK    4  A    between atoms: C_18  and  C_21
REMARK    5  A    between atoms: C_21  and  O_22
REMARK    6  A    between atoms: O_22  and  P_23
REMARK    7  A    between atoms: P_23  and  O_25
REMARK    8  A    between atoms: P_23  and  O_27
REMARK    9  A    between atoms: C_29  and  C_30
REMARK                            x       y       z     vdW  Elec       q    Type
REMARK                         _______ _______ _______ _____ _____    ______ ____
ROOT
ATOM      1  O   UNL     1      29.900 -22.498 -17.252  0.00  0.00    -0.208 OA
ATOM      2  N   UNL     1      32.887 -24.397 -14.441  0.00  0.00    -0.209 NA
ATOM      3  N   UNL     1      33.763 -23.521 -16.534  0.00  0.00    -0.279 N 
ATOM      4  N   UNL     1      30.734 -23.860 -14.774  0.00  0.00    -0.241 NA
ATOM      5  N   UNL     1      32.106 -22.533 -17.964  0.00  0.00    -0.301 NA
ATOM      6  N   UNL     1      34.362 -22.633 -18.556  0.00  0.00    -0.292 N 
ATOM      7  C   UNL     1      32.801 -23.790 -15.647  0.00  0.00    +0.191 C 
ATOM      8  C   UNL     1      31.602 -24.416 -13.947  0.00  0.00    +0.205 C 
ATOM      9  C   UNL     1      31.490 -23.466 -15.841  0.00  0.00    +0.183 C 
ATOM     10  C   UNL     1      33.353 -22.878 -17.700  0.00  0.00    +0.248 C 
ATOM     11  C   UNL     1      31.072 -22.798 -17.057  0.00  0.00    +0.224 C 
ATOM     12  H   UNL     1      34.704 -23.763 -16.374  0.00  0.00    +0.152 HD
ATOM     13  H   UNL     1      35.271 -22.915 -18.304  0.00  0.00    +0.151 HD
ENDROOT
BRANCH   2  15
ATOM     14  O   UNL     1      34.770 -23.954 -12.945  0.00  0.00    -0.338 OA
ATOM     15  C   UNL     1      34.115 -24.945 -13.760  0.00  0.00    +0.182 C 
ATOM     16  C   UNL     1      36.437 -25.332 -13.934  0.00  0.00    +0.144 C 
ATOM     17  C   UNL     1      35.166 -25.456 -14.741  0.00  0.00    +0.079 C 
ATOM     18  C   UNL     1      36.198 -24.074 -13.108  0.00  0.00    +0.174 C 
BRANCH  16  19
ATOM     19  O   UNL     1      36.534 -26.461 -13.068  0.00  0.00    -0.382 OA
ATOM     20  H   UNL     1      37.399 -26.457 -12.627  0.00  0.00    +0.210 HD
ENDBRANCH  16  19
BRANCH  18  21
ATOM     21  C   UNL     1      36.699 -22.813 -13.798  0.00  0.00    +0.186 C 
BRANCH  21  22
ATOM     22  O   UNL     1      37.914 -23.113 -14.463  0.00  0.00    -0.271 OA
BRANCH  22  23
ATOM     23  P   UNL     1      38.044 -22.749 -16.036  0.00  0.00    +0.473 P 
ATOM     24  O   UNL     1      38.133 -21.283 -16.341  0.00  0.00    -0.227 OA
BRANCH  23  25
ATOM     25  O   UNL     1      39.321 -23.623 -16.505  0.00  0.00    -0.303 OA
ATOM     26  H   UNL     1      40.106 -23.341 -16.008  0.00  0.00    +0.222 HD
ENDBRANCH  23  25
BRANCH  23  27
ATOM     27  O   UNL     1      36.795 -23.522 -16.712  0.00  0.00    -0.303 OA
ATOM     28  H   UNL     1      36.083 -22.889 -16.893  0.00  0.00    +0.222 HD
ENDBRANCH  23  27
ENDBRANCH  22  23
ENDBRANCH  21  22
ENDBRANCH  18  21
ENDBRANCH   2  15
BRANCH   6  29
ATOM     29  C   UNL     1      34.171 -21.975 -19.829  0.00  0.00    +0.117 C 
BRANCH  29  30
ATOM     30  C   UNL     1      35.326 -21.074 -20.139  0.00  0.00    -0.003 C 
ATOM     31  C   UNL     1      35.326 -20.220 -21.254  0.00  0.00    -0.002 C 
ATOM     32  C   UNL     1      36.449 -19.392 -21.492  0.00  0.00    -0.000 C 
ATOM     33  C   UNL     1      36.416 -21.109 -19.270  0.00  0.00    -0.003 C 
ATOM     34  C   UNL     1      34.237 -20.170 -22.139  0.00  0.00    -0.000 C 
ATOM     35  C   UNL     1      37.538 -19.442 -20.607  0.00  0.00    -0.000 C 
ATOM     36  C   UNL     1      37.520 -20.295 -19.503  0.00  0.00    -0.000 C 
ATOM     37  C   UNL     1      36.449 -18.539 -22.608  0.00  0.00    -0.000 C 
ATOM     38  C   UNL     1      34.254 -19.317 -23.243  0.00  0.00    -0.000 C 
ATOM     39  C   UNL     1      35.358 -18.503 -23.476  0.00  0.00    -0.000 C 
ENDBRANCH  29  30
ENDBRANCH   6  29
TORSDOF 9
ENDMDL
MODEL 8
REMARK VINA RESULT:     -10.1     12.076     15.170
REMARK  Name = 46937134
REMARK  9 active torsions:
REMARK  status: ('A' for Active; 'I' for Inactive)
REMARK    1  A    between atoms: N_2  and  C_15
REMARK    2  A    between atoms: N_6  and  C_29
REMARK    3  A    between atoms: C_16  and  O_19
REMARK    4  A    between atoms: C_18  and  C_21
REMARK    5  A    between atoms: C_21  and  O_22
REMARK    6  A    between atoms: O_22  and  P_23
REMARK    7  A    between atoms: P_23  and  O_25
REMARK    8  A    between atoms: P_23  and  O_27
REMARK    9  A    between atoms: C_29  and  C_30
REMARK                            x       y       z     vdW  Elec       q    Type
REMARK                         _______ _______ _______ _____ _____    ______ ____
ROOT
ATOM      1  O   UNL     1      31.944  -8.670 -19.125  0.00  0.00    -0.208 OA
ATOM      2  N   UNL     1      32.503 -11.991 -22.139  0.00  0.00    -0.209 NA
ATOM      3  N   UNL     1      32.758  -9.717 -22.962  0.00  0.00    -0.279 N 
ATOM      4  N   UNL     1      32.047 -11.483 -20.002  0.00  0.00    -0.241 NA
ATOM      5  N   UNL     1      32.442  -8.020 -21.293  0.00  0.00    -0.301 NA
ATOM      6  N   UNL     1      32.951  -7.504 -23.513  0.00  0.00    -0.292 N 
ATOM      7  C   UNL     1      32.522 -10.644 -22.029  0.00  0.00    +0.191 C 
ATOM      8  C   UNL     1      32.209 -12.459 -20.879  0.00  0.00    +0.205 C 
ATOM      9  C   UNL     1      32.245 -10.343 -20.728  0.00  0.00    +0.183 C 
ATOM     10  C   UNL     1      32.705  -8.393 -22.532  0.00  0.00    +0.248 C 
ATOM     11  C   UNL     1      32.191  -8.963 -20.289  0.00  0.00    +0.224 C 
ATOM     12  H   UNL     1      32.957  -9.955 -23.897  0.00  0.00    +0.152 HD
ATOM     13  H   UNL     1      33.139  -7.843 -24.417  0.00  0.00    +0.151 HD
ENDROOT
BRANCH   2  15
ATOM     14  O   UNL     1      32.867 -14.229 -23.056  0.00  0.00    -0.338 OA
ATOM     15  C   UNL     1      32.748 -12.829 -23.370  0.00  0.00    +0.182 C 
ATOM     16  C   UNL     1      34.369 -13.728 -24.831  0.00  0.00    +0.144 C 
ATOM     17  C   UNL     1      34.025 -12.444 -24.111  0.00  0.00    +0.079 C 
ATOM     18  C   UNL     1      33.930 -14.803 -23.844  0.00  0.00    +0.174 C 
BRANCH  16  19
ATOM     19  O   UNL     1      33.574 -13.810 -26.012  0.00  0.00    -0.382 OA
ATOM     20  H   UNL     1      32.676 -13.496 -25.820  0.00  0.00    +0.210 HD
ENDBRANCH  16  19
BRANCH  18  21
ATOM     21  C   UNL     1      35.045 -15.220 -22.895  0.00  0.00    +0.186 C 
BRANCH  21  22
ATOM     22  O   UNL     1      35.767 -16.287 -23.484  0.00  0.00    -0.271 OA
BRANCH  22  23
ATOM     23  P   UNL     1      35.785 -17.719 -22.727  0.00  0.00    +0.473 P 
ATOM     24  O   UNL     1      35.389 -17.675 -21.281  0.00  0.00    -0.227 OA
BRANCH  23  25
ATOM     25  O   UNL     1      34.842 -18.636 -23.666  0.00  0.00    -0.303 OA
ATOM     26  H   UNL     1      34.191 -18.075 -24.118  0.00  0.00    +0.222 HD
ENDBRANCH  23  25
BRANCH  23  27
ATOM     27  O   UNL     1      37.270 -18.288 -23.021  0.00  0.00    -0.303 OA
ATOM     28  H   UNL     1      37.717 -17.711 -23.660  0.00  0.00    +0.222 HD
ENDBRANCH  23  27
ENDBRANCH  22  23
ENDBRANCH  21  22
ENDBRANCH  18  21
ENDBRANCH   2  15
BRANCH   6  29
ATOM     29  C   UNL     1      32.949  -6.075 -23.298  0.00  0.00    +0.117 C 
BRANCH  29  30
ATOM     30  C   UNL     1      33.472  -5.356 -24.502  0.00  0.00    -0.003 C 
ATOM     31  C   UNL     1      32.840  -4.214 -25.021  0.00  0.00    -0.002 C 
ATOM     32  C   UNL     1      33.384  -3.580 -26.163  0.00  0.00    -0.000 C 
ATOM     33  C   UNL     1      34.624  -5.865 -25.101  0.00  0.00    -0.003 C 
ATOM     34  C   UNL     1      31.679  -3.687 -24.431  0.00  0.00    -0.000 C 
ATOM     35  C   UNL     1      34.543  -4.107 -26.754  0.00  0.00    -0.000 C 
ATOM     36  C   UNL     1      35.159  -5.242 -26.225  0.00  0.00    -0.000 C 
ATOM     37  C   UNL     1      32.751  -2.438 -26.683  0.00  0.00    -0.000 C 
ATOM     38  C   UNL     1      31.064  -2.552 -24.959  0.00  0.00    -0.000 C 
ATOM     39  C   UNL     1      31.600  -1.929 -26.083  0.00  0.00    -0.000 C 
ENDBRANCH  29  30
ENDBRANCH   6  29
TORSDOF 9
ENDMDL
MODEL 9
REMARK VINA RESULT:      -9.5      7.836     11.284
REMARK  Name = 46937134
REMARK  9 active torsions:
REMARK  status: ('A' for Active; 'I' for Inactive)
REMARK    1  A    between atoms: N_2  and  C_15
REMARK    2  A    between atoms: N_6  and  C_29
REMARK    3  A    between atoms: C_16  and  O_19
REMARK    4  A    between atoms: C_18  and  C_21
REMARK    5  A    between atoms: C_21  and  O_22
REMARK    6  A    between atoms: O_22  and  P_23
REMARK    7  A    between atoms: P_23  and  O_25
REMARK    8  A    between atoms: P_23  and  O_27
REMARK    9  A    between atoms: C_29  and  C_30
REMARK                            x       y       z     vdW  Elec       q    Type
REMARK                         _______ _______ _______ _____ _____    ______ ____
ROOT
ATOM      1  O   UNL     1      32.700 -14.731 -27.251  0.00  0.00    -0.208 OA
ATOM      2  N   UNL     1      35.043 -17.347 -24.405  0.00  0.00    -0.209 NA
ATOM      3  N   UNL     1      35.035 -14.960 -23.938  0.00  0.00    -0.279 N 
ATOM      4  N   UNL     1      33.757 -17.292 -26.244  0.00  0.00    -0.241 NA
ATOM      5  N   UNL     1      33.768 -13.650 -25.501  0.00  0.00    -0.301 NA
ATOM      6  N   UNL     1      34.890 -12.689 -23.693  0.00  0.00    -0.292 N 
ATOM      7  C   UNL     1      34.708 -16.055 -24.628  0.00  0.00    +0.191 C 
ATOM      8  C   UNL     1      34.441 -18.063 -25.415  0.00  0.00    +0.205 C 
ATOM      9  C   UNL     1      33.927 -16.030 -25.746  0.00  0.00    +0.183 C 
ATOM     10  C   UNL     1      34.529 -13.758 -24.427  0.00  0.00    +0.248 C 
ATOM     11  C   UNL     1      33.404 -14.776 -26.249  0.00  0.00    +0.224 C 
ATOM     12  H   UNL     1      35.601 -15.000 -23.132  0.00  0.00    +0.152 HD
ATOM     13  H   UNL     1      35.459 -12.833 -22.903  0.00  0.00    +0.151 HD
ENDROOT
BRANCH   2  15
ATOM     14  O   UNL     1      35.674 -19.320 -23.106  0.00  0.00    -0.338 OA
ATOM     15  C   UNL     1      35.894 -17.909 -23.295  0.00  0.00    +0.182 C 
ATOM     16  C   UNL     1      36.055 -18.329 -20.978  0.00  0.00    +0.144 C 
ATOM     17  C   UNL     1      35.629 -17.249 -21.945  0.00  0.00    +0.079 C 
ATOM     18  C   UNL     1      35.647 -19.611 -21.694  0.00  0.00    +0.174 C 
BRANCH  16  19
ATOM     19  O   UNL     1      37.474 -18.285 -20.847  0.00  0.00    -0.382 OA
ATOM     20  H   UNL     1      37.813 -17.483 -21.277  0.00  0.00    +0.210 HD
ENDBRANCH  16  19
BRANCH  18  21
ATOM     21  C   UNL     1      34.238 -20.062 -21.335  0.00  0.00    +0.186 C 
BRANCH  21  22
ATOM     22  O   UNL     1      34.250 -21.465 -21.129  0.00  0.00    -0.271 OA
BRANCH  22  23
ATOM     23  P   UNL     1      33.976 -22.029 -19.637  0.00  0.00    +0.473 P 
ATOM     24  O   UNL     1      32.706 -21.547 -19.000  0.00  0.00    -0.227 OA
BRANCH  23  25
ATOM     25  O   UNL     1      34.077 -23.631 -19.833  0.00  0.00    -0.303 OA
ATOM     26  H   UNL     1      34.516 -24.024 -19.061  0.00  0.00    +0.222 HD
ENDBRANCH  23  25
BRANCH  23  27
ATOM     27  O   UNL     1      35.334 -21.666 -18.836  0.00  0.00    -0.303 OA
ATOM     28  H   UNL     1      36.090 -21.717 -19.441  0.00  0.00    +0.222 HD
ENDBRANCH  23  27
ENDBRANCH  22  23
ENDBRANCH  21  22
ENDBRANCH  18  21
ENDBRANCH   2  15
BRANCH   6  29
ATOM     29  C   UNL     1      34.481 -11.341 -24.012  0.00  0.00    +0.117 C 
BRANCH  29  30
ATOM     30  C   UNL     1      33.397 -10.882 -23.087  0.00  0.00    -0.003 C 
ATOM     31  C   UNL     1      33.170  -9.521 -22.821  0.00  0.00    -0.002 C 
ATOM     32  C   UNL     1      32.129  -9.152 -21.936  0.00  0.00    -0.000 C 
ATOM     33  C   UNL     1      32.607 -11.864 -22.489  0.00  0.00    -0.003 C 
ATOM     34  C   UNL     1      33.954  -8.519 -23.414  0.00  0.00    -0.000 C 
ATOM     35  C   UNL     1      31.345 -10.155 -21.342  0.00  0.00    -0.000 C 
ATOM     36  C   UNL     1      31.584 -11.502 -21.619  0.00  0.00    -0.000 C 
ATOM     37  C   UNL     1      31.903  -7.792 -21.670  0.00  0.00    -0.000 C 
ATOM     38  C   UNL     1      33.716  -7.172 -23.139  0.00  0.00    -0.000 C 
ATOM     39  C   UNL     1      32.692  -6.810 -22.269  0.00  0.00    -0.000 C 
ENDBRANCH  29  30
ENDBRANCH   6  29
TORSDOF 9
ENDMDL
