MODEL 1
REMARK VINA RESULT:     -12.0      0.000      0.000
REMARK  Name = 11538455
REMARK  6 active torsions:
REMARK  status: ('A' for Active; 'I' for Inactive)
REMARK    1  A    between atoms: C_4  and  C_19
REMARK    2  A    between atoms: C_12  and  C_15
REMARK    3  A    between atoms: N_14  and  O_17
REMARK    4  A    between atoms: C_19  and  N_20
REMARK    5  A    between atoms: N_20  and  C_23
REMARK    6  A    between atoms: C_23  and  C_25
REMARK                            x       y       z     vdW  Elec       q    Type
REMARK                         _______ _______ _______ _____ _____    ______ ____
ROOT
ATOM      1  N   UNL     1      35.286 -22.201 -18.234  0.00  0.00    -0.253 N 
ATOM      2  N   UNL     1      36.623 -23.148 -16.536  0.00  0.00    -0.203 NA
ATOM      3  N   UNL     1      34.220 -23.155 -16.357  0.00  0.00    -0.180 NA
ATOM      4  C   UNL     1      35.070 -20.973 -20.848  0.00  0.00    -0.018 C 
ATOM      5  C   UNL     1      36.259 -20.694 -19.923  0.00  0.00    +0.020 C 
ATOM      6  C   UNL     1      33.832 -21.296 -20.005  0.00  0.00    +0.020 C 
ATOM      7  C   UNL     1      36.512 -21.858 -18.964  0.00  0.00    +0.101 C 
ATOM      8  C   UNL     1      34.093 -22.461 -19.051  0.00  0.00    +0.101 C 
ATOM      9  C   UNL     1      35.379 -22.857 -17.001  0.00  0.00    +0.090 C 
ATOM     10  C   UNL     1      36.677 -23.778 -15.344  0.00  0.00    +0.170 C 
ATOM     11  C   UNL     1      34.347 -23.785 -15.171  0.00  0.00    +0.113 C 
ATOM     12  C   UNL     1      35.561 -24.125 -14.610  0.00  0.00    +0.078 C 
ENDROOT
BRANCH  12  15
ATOM     13  O   UNL     1      34.879 -24.524 -12.398  0.00  0.00    -0.268 OA
ATOM     14  N   UNL     1      36.654 -25.760 -13.192  0.00  0.00    -0.194 N 
ATOM     15  C   UNL     1      35.657 -24.803 -13.332  0.00  0.00    +0.267 C 
ATOM     16  H   UNL     1      37.266 -25.979 -13.932  0.00  0.00    +0.183 HD
BRANCH  14  17
ATOM     17  O   UNL     1      36.749 -26.403 -11.949  0.00  0.00    -0.295 OA
ATOM     18  H   UNL     1      37.669 -26.667 -11.790  0.00  0.00    +0.241 HD
ENDBRANCH  14  17
ENDBRANCH  12  15
BRANCH   4  19
ATOM     19  C   UNL     1      34.806 -19.784 -21.768  0.00  0.00    -0.081 C 
BRANCH  19  20
ATOM     20  N   UNL     1      35.587 -18.627 -21.358  0.00  0.00    +0.386 N 
ATOM     21  H   UNL     1      36.230 -18.905 -20.616  0.00  0.00    -0.084 HD
ATOM     22  H   UNL     1      34.948 -17.905 -21.025  0.00  0.00    -0.084 HD
BRANCH  20  23
ATOM     23  C   UNL     1      36.353 -18.091 -22.476  0.00  0.00    -0.053 C 
BRANCH  23  25
ATOM     24  N   UNL     1      34.562 -15.923 -24.806  0.00  0.00    -0.284 N 
ATOM     25  C   UNL     1      35.561 -17.039 -23.202  0.00  0.00    -0.028 C 
ATOM     26  C   UNL     1      34.969 -15.906 -22.613  0.00  0.00    +0.009 C 
ATOM     27  C   UNL     1      35.306 -17.040 -24.539  0.00  0.00    +0.059 C 
ATOM     28  C   UNL     1      34.340 -15.212 -23.648  0.00  0.00    +0.051 C 
ATOM     29  C   UNL     1      34.896 -15.387 -21.306  0.00  0.00    +0.001 C 
ATOM     30  C   UNL     1      33.639 -14.018 -23.441  0.00  0.00    +0.015 C 
ATOM     31  C   UNL     1      34.082 -15.559 -26.122  0.00  0.00    +0.117 C 
ATOM     32  C   UNL     1      34.197 -14.193 -21.082  0.00  0.00    +0.000 C 
ATOM     33  C   UNL     1      33.579 -13.522 -22.136  0.00  0.00    +0.001 C 
ENDBRANCH  23  25
ENDBRANCH  20  23
ENDBRANCH  19  20
ENDBRANCH   4  19
TORSDOF 6
ENDMDL
MODEL 2
REMARK VINA RESULT:     -11.9      0.715      1.915
REMARK  Name = 11538455
REMARK  6 active torsions:
REMARK  status: ('A' for Active; 'I' for Inactive)
REMARK    1  A    between atoms: C_4  and  C_19
REMARK    2  A    between atoms: C_12  and  C_15
REMARK    3  A    between atoms: N_14  and  O_17
REMARK    4  A    between atoms: C_19  and  N_20
REMARK    5  A    between atoms: N_20  and  C_23
REMARK    6  A    between atoms: C_23  and  C_25
REMARK                            x       y       z     vdW  Elec       q    Type
REMARK                         _______ _______ _______ _____ _____    ______ ____
ROOT
ATOM      1  N   UNL     1      35.398 -22.209 -18.187  0.00  0.00    -0.253 N 
ATOM      2  N   UNL     1      36.713 -23.176 -16.481  0.00  0.00    -0.203 NA
ATOM      3  N   UNL     1      34.308 -23.171 -16.328  0.00  0.00    -0.180 NA
ATOM      4  C   UNL     1      35.216 -20.962 -20.793  0.00  0.00    -0.018 C 
ATOM      5  C   UNL     1      36.396 -20.695 -19.854  0.00  0.00    +0.020 C 
ATOM      6  C   UNL     1      33.967 -21.285 -19.966  0.00  0.00    +0.020 C 
ATOM      7  C   UNL     1      36.633 -21.867 -18.901  0.00  0.00    +0.101 C 
ATOM      8  C   UNL     1      34.212 -22.457 -19.018  0.00  0.00    +0.101 C 
ATOM      9  C   UNL     1      35.475 -22.875 -16.957  0.00  0.00    +0.090 C 
ATOM     10  C   UNL     1      36.750 -23.814 -15.293  0.00  0.00    +0.170 C 
ATOM     11  C   UNL     1      34.418 -23.810 -15.145  0.00  0.00    +0.113 C 
ATOM     12  C   UNL     1      35.625 -24.161 -14.574  0.00  0.00    +0.078 C 
ENDROOT
BRANCH  12  15
ATOM     13  O   UNL     1      34.896 -24.596 -12.384  0.00  0.00    -0.268 OA
ATOM     14  N   UNL     1      36.719 -25.784 -13.143  0.00  0.00    -0.194 N 
ATOM     15  C   UNL     1      35.704 -24.849 -13.300  0.00  0.00    +0.267 C 
ATOM     16  H   UNL     1      37.354 -25.982 -13.870  0.00  0.00    +0.183 HD
BRANCH  14  17
ATOM     17  O   UNL     1      36.798 -26.436 -11.904  0.00  0.00    -0.295 OA
ATOM     18  H   UNL     1      37.267 -27.278 -12.010  0.00  0.00    +0.241 HD
ENDBRANCH  14  17
ENDBRANCH  12  15
BRANCH   4  19
ATOM     19  C   UNL     1      34.967 -19.765 -21.708  0.00  0.00    -0.081 C 
BRANCH  19  20
ATOM     20  N   UNL     1      36.026 -18.777 -21.569  0.00  0.00    +0.386 N 
ATOM     21  H   UNL     1      36.891 -19.250 -21.304  0.00  0.00    -0.084 HD
ATOM     22  H   UNL     1      35.752 -18.105 -20.851  0.00  0.00    -0.084 HD
BRANCH  20  23
ATOM     23  C   UNL     1      36.239 -18.059 -22.819  0.00  0.00    -0.053 C 
BRANCH  23  25
ATOM     24  N   UNL     1      34.482 -14.929 -22.147  0.00  0.00    -0.284 N 
ATOM     25  C   UNL     1      35.467 -16.769 -22.826  0.00  0.00    -0.028 C 
ATOM     26  C   UNL     1      34.906 -16.156 -23.961  0.00  0.00    +0.009 C 
ATOM     27  C   UNL     1      35.203 -16.014 -21.725  0.00  0.00    +0.059 C 
ATOM     28  C   UNL     1      34.286 -14.990 -23.508  0.00  0.00    +0.051 C 
ATOM     29  C   UNL     1      34.855 -16.461 -25.336  0.00  0.00    +0.001 C 
ATOM     30  C   UNL     1      33.614 -14.110 -24.365  0.00  0.00    +0.015 C 
ATOM     31  C   UNL     1      34.004 -13.878 -21.275  0.00  0.00    +0.117 C 
ATOM     32  C   UNL     1      34.186 -15.591 -26.205  0.00  0.00    +0.000 C 
ATOM     33  C   UNL     1      33.576 -14.433 -25.724  0.00  0.00    +0.001 C 
ENDBRANCH  23  25
ENDBRANCH  20  23
ENDBRANCH  19  20
ENDBRANCH   4  19
TORSDOF 6
ENDMDL
MODEL 3
REMARK VINA RESULT:     -11.8      2.294      2.634
REMARK  Name = 11538455
REMARK  6 active torsions:
REMARK  status: ('A' for Active; 'I' for Inactive)
REMARK    1  A    between atoms: C_4  and  C_19
REMARK    2  A    between atoms: C_12  and  C_15
REMARK    3  A    between atoms: N_14  and  O_17
REMARK    4  A    between atoms: C_19  and  N_20
REMARK    5  A    between atoms: N_20  and  C_23
REMARK    6  A    between atoms: C_23  and  C_25
REMARK                            x       y       z     vdW  Elec       q    Type
REMARK                         _______ _______ _______ _____ _____    ______ ____
ROOT
ATOM      1  N   UNL     1      34.001 -21.968 -18.919  0.00  0.00    -0.253 N 
ATOM      2  N   UNL     1      33.986 -23.572 -17.187  0.00  0.00    -0.203 NA
ATOM      3  N   UNL     1      31.975 -22.383 -17.781  0.00  0.00    -0.180 NA
ATOM      4  C   UNL     1      35.408 -20.623 -21.063  0.00  0.00    -0.018 C 
ATOM      5  C   UNL     1      36.118 -21.042 -19.772  0.00  0.00    +0.020 C 
ATOM      6  C   UNL     1      33.933 -20.338 -20.765  0.00  0.00    +0.020 C 
ATOM      7  C   UNL     1      35.430 -22.238 -19.113  0.00  0.00    +0.101 C 
ATOM      8  C   UNL     1      33.252 -21.538 -20.108  0.00  0.00    +0.101 C 
ATOM      9  C   UNL     1      33.296 -22.664 -17.930  0.00  0.00    +0.090 C 
ATOM     10  C   UNL     1      33.277 -24.222 -16.241  0.00  0.00    +0.170 C 
ATOM     11  C   UNL     1      31.328 -23.070 -16.818  0.00  0.00    +0.113 C 
ATOM     12  C   UNL     1      31.933 -24.011 -16.010  0.00  0.00    +0.078 C 
ENDROOT
BRANCH  12  15
ATOM     13  O   UNL     1      30.485 -25.708 -15.276  0.00  0.00    -0.268 OA
ATOM     14  N   UNL     1      31.330 -24.280 -13.676  0.00  0.00    -0.194 N 
ATOM     15  C   UNL     1      31.204 -24.731 -14.985  0.00  0.00    +0.267 C 
ATOM     16  H   UNL     1      31.900 -23.509 -13.451  0.00  0.00    +0.183 HD
BRANCH  14  17
ATOM     17  O   UNL     1      30.612 -24.973 -12.692  0.00  0.00    -0.295 OA
ATOM     18  H   UNL     1      29.685 -24.688 -12.706  0.00  0.00    +0.241 HD
ENDBRANCH  14  17
ENDBRANCH  12  15
BRANCH   4  19
ATOM     19  C   UNL     1      36.083 -19.403 -21.684  0.00  0.00    -0.081 C 
BRANCH  19  20
ATOM     20  N   UNL     1      35.306 -18.893 -22.803  0.00  0.00    +0.386 N 
ATOM     21  H   UNL     1      34.502 -18.377 -22.443  0.00  0.00    -0.084 HD
ATOM     22  H   UNL     1      34.998 -19.681 -23.372  0.00  0.00    -0.084 HD
BRANCH  20  23
ATOM     23  C   UNL     1      36.107 -18.004 -23.635  0.00  0.00    -0.053 C 
BRANCH  23  25
ATOM     24  N   UNL     1      34.221 -15.330 -25.255  0.00  0.00    -0.284 N 
ATOM     25  C   UNL     1      35.310 -16.794 -24.036  0.00  0.00    -0.028 C 
ATOM     26  C   UNL     1      34.849 -15.790 -23.165  0.00  0.00    +0.009 C 
ATOM     27  C   UNL     1      34.921 -16.506 -25.308  0.00  0.00    +0.059 C 
ATOM     28  C   UNL     1      34.161 -14.871 -23.960  0.00  0.00    +0.051 C 
ATOM     29  C   UNL     1      34.939 -15.555 -21.779  0.00  0.00    +0.001 C 
ATOM     30  C   UNL     1      33.556 -13.723 -23.435  0.00  0.00    +0.015 C 
ATOM     31  C   UNL     1      33.632 -14.680 -26.407  0.00  0.00    +0.117 C 
ATOM     32  C   UNL     1      34.339 -14.411 -21.239  0.00  0.00    +0.000 C 
ATOM     33  C   UNL     1      33.658 -13.510 -22.057  0.00  0.00    +0.001 C 
ENDBRANCH  23  25
ENDBRANCH  20  23
ENDBRANCH  19  20
ENDBRANCH   4  19
TORSDOF 6
ENDMDL
MODEL 4
REMARK VINA RESULT:     -11.4      2.304      3.171
REMARK  Name = 11538455
REMARK  6 active torsions:
REMARK  status: ('A' for Active; 'I' for Inactive)
REMARK    1  A    between atoms: C_4  and  C_19
REMARK    2  A    between atoms: C_12  and  C_15
REMARK    3  A    between atoms: N_14  and  O_17
REMARK    4  A    between atoms: C_19  and  N_20
REMARK    5  A    between atoms: N_20  and  C_23
REMARK    6  A    between atoms: C_23  and  C_25
REMARK                            x       y       z     vdW  Elec       q    Type
REMARK                         _______ _______ _______ _____ _____    ______ ____
ROOT
ATOM      1  N   UNL     1      34.107 -22.055 -18.771  0.00  0.00    -0.253 N 
ATOM      2  N   UNL     1      34.111 -23.588 -16.976  0.00  0.00    -0.203 NA
ATOM      3  N   UNL     1      32.072 -22.500 -17.660  0.00  0.00    -0.180 NA
ATOM      4  C   UNL     1      35.512 -20.746 -20.937  0.00  0.00    -0.018 C 
ATOM      5  C   UNL     1      36.207 -21.086 -19.616  0.00  0.00    +0.020 C 
ATOM      6  C   UNL     1      34.021 -20.504 -20.682  0.00  0.00    +0.020 C 
ATOM      7  C   UNL     1      35.549 -22.279 -18.923  0.00  0.00    +0.101 C 
ATOM      8  C   UNL     1      33.370 -21.701 -19.991  0.00  0.00    +0.101 C 
ATOM      9  C   UNL     1      33.406 -22.738 -17.769  0.00  0.00    +0.090 C 
ATOM     10  C   UNL     1      33.405 -24.227 -16.019  0.00  0.00    +0.170 C 
ATOM     11  C   UNL     1      31.429 -23.172 -16.683  0.00  0.00    +0.113 C 
ATOM     12  C   UNL     1      32.049 -24.057 -15.825  0.00  0.00    +0.078 C 
ENDROOT
BRANCH  12  15
ATOM     13  O   UNL     1      30.789 -25.866 -15.015  0.00  0.00    -0.268 OA
ATOM     14  N   UNL     1      31.239 -24.152 -13.541  0.00  0.00    -0.194 N 
ATOM     15  C   UNL     1      31.323 -24.762 -14.787  0.00  0.00    +0.267 C 
ATOM     16  H   UNL     1      31.664 -23.280 -13.365  0.00  0.00    +0.183 HD
BRANCH  14  17
ATOM     17  O   UNL     1      30.525 -24.834 -12.546  0.00  0.00    -0.295 OA
ATOM     18  H   UNL     1      31.079 -24.925 -11.754  0.00  0.00    +0.241 HD
ENDBRANCH  14  17
ENDBRANCH  12  15
BRANCH   4  19
ATOM     19  C   UNL     1      36.156 -19.527 -21.593  0.00  0.00    -0.081 C 
BRANCH  19  20
ATOM     20  N   UNL     1      35.425 -19.133 -22.787  0.00  0.00    +0.386 N 
ATOM     21  H   UNL     1      34.497 -18.805 -22.517  0.00  0.00    -0.084 HD
ATOM     22  H   UNL     1      35.351 -19.941 -23.406  0.00  0.00    -0.084 HD
BRANCH  20  23
ATOM     23  C   UNL     1      36.120 -18.066 -23.498  0.00  0.00    -0.053 C 
BRANCH  23  25
ATOM     24  N   UNL     1      34.598 -14.959 -22.331  0.00  0.00    -0.284 N 
ATOM     25  C   UNL     1      35.419 -16.752 -23.293  0.00  0.00    -0.028 C 
ATOM     26  C   UNL     1      34.793 -15.992 -24.298  0.00  0.00    +0.009 C 
ATOM     27  C   UNL     1      35.295 -16.114 -22.097  0.00  0.00    +0.059 C 
ATOM     28  C   UNL     1      34.278 -14.858 -23.665  0.00  0.00    +0.051 C 
ATOM     29  C   UNL     1      34.603 -16.139 -25.686  0.00  0.00    +0.001 C 
ATOM     30  C   UNL     1      33.579 -13.860 -24.355  0.00  0.00    +0.015 C 
ATOM     31  C   UNL     1      34.256 -13.992 -21.309  0.00  0.00    +0.117 C 
ATOM     32  C   UNL     1      33.906 -15.149 -26.390  0.00  0.00    +0.000 C 
ATOM     33  C   UNL     1      33.403 -14.027 -25.731  0.00  0.00    +0.001 C 
ENDBRANCH  23  25
ENDBRANCH  20  23
ENDBRANCH  19  20
ENDBRANCH   4  19
TORSDOF 6
ENDMDL
MODEL 5
REMARK VINA RESULT:     -10.9      1.282      2.022
REMARK  Name = 11538455
REMARK  6 active torsions:
REMARK  status: ('A' for Active; 'I' for Inactive)
REMARK    1  A    between atoms: C_4  and  C_19
REMARK    2  A    between atoms: C_12  and  C_15
REMARK    3  A    between atoms: N_14  and  O_17
REMARK    4  A    between atoms: C_19  and  N_20
REMARK    5  A    between atoms: N_20  and  C_23
REMARK    6  A    between atoms: C_23  and  C_25
REMARK                            x       y       z     vdW  Elec       q    Type
REMARK                         _______ _______ _______ _____ _____    ______ ____
ROOT
ATOM      1  N   UNL     1      35.981 -22.629 -17.020  0.00  0.00    -0.253 N 
ATOM      2  N   UNL     1      34.885 -23.739 -15.248  0.00  0.00    -0.203 NA
ATOM      3  N   UNL     1      37.244 -23.260 -15.128  0.00  0.00    -0.180 NA
ATOM      4  C   UNL     1      35.851 -21.257 -19.566  0.00  0.00    -0.018 C 
ATOM      5  C   UNL     1      34.932 -22.439 -19.240  0.00  0.00    +0.020 C 
ATOM      6  C   UNL     1      37.168 -21.408 -18.799  0.00  0.00    +0.020 C 
ATOM      7  C   UNL     1      34.701 -22.574 -17.735  0.00  0.00    +0.101 C 
ATOM      8  C   UNL     1      36.928 -21.541 -17.296  0.00  0.00    +0.101 C 
ATOM      9  C   UNL     1      36.039 -23.229 -15.756  0.00  0.00    +0.090 C 
ATOM     10  C   UNL     1      34.977 -24.312 -14.030  0.00  0.00    +0.170 C 
ATOM     11  C   UNL     1      37.264 -23.848 -13.914  0.00  0.00    +0.113 C 
ATOM     12  C   UNL     1      36.151 -24.396 -13.310  0.00  0.00    +0.078 C 
ENDROOT
BRANCH  12  15
ATOM     13  O   UNL     1      36.806 -26.102 -11.835  0.00  0.00    -0.268 OA
ATOM     14  N   UNL     1      35.573 -24.366 -10.955  0.00  0.00    -0.194 N 
ATOM     15  C   UNL     1      36.211 -25.019 -12.002  0.00  0.00    +0.267 C 
ATOM     16  H   UNL     1      35.105 -23.509 -11.091  0.00  0.00    +0.183 HD
BRANCH  14  17
ATOM     17  O   UNL     1      35.625 -24.981  -9.695  0.00  0.00    -0.295 OA
ATOM     18  H   UNL     1      35.406 -25.921  -9.785  0.00  0.00    +0.241 HD
ENDBRANCH  14  17
ENDBRANCH  12  15
BRANCH   4  19
ATOM     19  C   UNL     1      36.104 -21.164 -21.069  0.00  0.00    -0.081 C 
BRANCH  19  20
ATOM     20  N   UNL     1      35.317 -20.094 -21.662  0.00  0.00    +0.386 N 
ATOM     21  H   UNL     1      34.353 -20.167 -21.334  0.00  0.00    -0.084 HD
ATOM     22  H   UNL     1      35.356 -20.186 -22.678  0.00  0.00    -0.084 HD
BRANCH  20  23
ATOM     23  C   UNL     1      35.848 -18.788 -21.294  0.00  0.00    -0.053 C 
BRANCH  23  25
ATOM     24  N   UNL     1      35.196 -16.831 -24.307  0.00  0.00    -0.284 N 
ATOM     25  C   UNL     1      35.524 -17.769 -22.350  0.00  0.00    -0.028 C 
ATOM     26  C   UNL     1      35.145 -16.434 -22.113  0.00  0.00    +0.009 C 
ATOM     27  C   UNL     1      35.551 -18.001 -23.691  0.00  0.00    +0.059 C 
ATOM     28  C   UNL     1      34.942 -15.857 -23.368  0.00  0.00    +0.051 C 
ATOM     29  C   UNL     1      34.949 -15.644 -20.964  0.00  0.00    +0.001 C 
ATOM     30  C   UNL     1      34.553 -14.523 -23.533  0.00  0.00    +0.015 C 
ATOM     31  C   UNL     1      35.104 -16.661 -25.742  0.00  0.00    +0.117 C 
ATOM     32  C   UNL     1      34.560 -14.307 -21.112  0.00  0.00    +0.000 C 
ATOM     33  C   UNL     1      34.364 -13.757 -22.378  0.00  0.00    +0.001 C 
ENDBRANCH  23  25
ENDBRANCH  20  23
ENDBRANCH  19  20
ENDBRANCH   4  19
TORSDOF 6
ENDMDL
MODEL 6
REMARK VINA RESULT:     -10.6      8.863     13.810
REMARK  Name = 11538455
REMARK  6 active torsions:
REMARK  status: ('A' for Active; 'I' for Inactive)
REMARK    1  A    between atoms: C_4  and  C_19
REMARK    2  A    between atoms: C_12  and  C_15
REMARK    3  A    between atoms: N_14  and  O_17
REMARK    4  A    between atoms: C_19  and  N_20
REMARK    5  A    between atoms: N_20  and  C_23
REMARK    6  A    between atoms: C_23  and  C_25
REMARK                            x       y       z     vdW  Elec       q    Type
REMARK                         _______ _______ _______ _____ _____    ______ ____
ROOT
ATOM      1  N   UNL     1      31.976  -9.411 -21.409  0.00  0.00    -0.253 N 
ATOM      2  N   UNL     1      32.033  -7.061 -21.184  0.00  0.00    -0.203 NA
ATOM      3  N   UNL     1      32.063  -8.090 -23.363  0.00  0.00    -0.180 NA
ATOM      4  C   UNL     1      31.729 -12.029 -20.198  0.00  0.00    -0.018 C 
ATOM      5  C   UNL     1      32.459 -10.881 -19.493  0.00  0.00    +0.020 C 
ATOM      6  C   UNL     1      31.843 -11.851 -21.715  0.00  0.00    +0.020 C 
ATOM      7  C   UNL     1      31.936  -9.518 -19.947  0.00  0.00    +0.101 C 
ATOM      8  C   UNL     1      31.316 -10.488 -22.160  0.00  0.00    +0.101 C 
ATOM      9  C   UNL     1      32.025  -8.145 -22.006  0.00  0.00    +0.090 C 
ATOM     10  C   UNL     1      32.084  -5.858 -21.792  0.00  0.00    +0.170 C 
ATOM     11  C   UNL     1      32.113  -6.855 -23.905  0.00  0.00    +0.113 C 
ATOM     12  C   UNL     1      32.125  -5.693 -23.162  0.00  0.00    +0.078 C 
ENDROOT
BRANCH  12  15
ATOM     13  O   UNL     1      32.664  -4.231 -24.919  0.00  0.00    -0.268 OA
ATOM     14  N   UNL     1      31.680  -3.311 -23.048  0.00  0.00    -0.194 N 
ATOM     15  C   UNL     1      32.178  -4.382 -23.780  0.00  0.00    +0.267 C 
ATOM     16  H   UNL     1      31.296  -3.437 -22.149  0.00  0.00    +0.183 HD
BRANCH  14  17
ATOM     17  O   UNL     1      31.746  -2.045 -23.647  0.00  0.00    -0.295 OA
ATOM     18  H   UNL     1      32.667  -1.839 -23.868  0.00  0.00    +0.241 HD
ENDBRANCH  14  17
ENDBRANCH  12  15
BRANCH   4  19
ATOM     19  C   UNL     1      32.294 -13.379 -19.764  0.00  0.00    -0.081 C 
BRANCH  19  20
ATOM     20  N   UNL     1      32.744 -14.147 -20.915  0.00  0.00    +0.386 N 
ATOM     21  H   UNL     1      32.427 -13.686 -21.768  0.00  0.00    -0.084 HD
ATOM     22  H   UNL     1      32.354 -15.087 -20.851  0.00  0.00    -0.084 HD
BRANCH  20  23
ATOM     23  C   UNL     1      34.198 -14.248 -20.939  0.00  0.00    -0.053 C 
BRANCH  23  25
ATOM     24  N   UNL     1      35.555 -16.990 -22.933  0.00  0.00    -0.284 N 
ATOM     25  C   UNL     1      34.641 -15.236 -21.982  0.00  0.00    -0.028 C 
ATOM     26  C   UNL     1      34.387 -15.139 -23.363  0.00  0.00    +0.009 C 
ATOM     27  C   UNL     1      35.353 -16.368 -21.730  0.00  0.00    +0.059 C 
ATOM     28  C   UNL     1      34.975 -16.263 -23.947  0.00  0.00    +0.051 C 
ATOM     29  C   UNL     1      33.717 -14.217 -24.191  0.00  0.00    +0.001 C 
ATOM     30  C   UNL     1      34.928 -16.510 -25.324  0.00  0.00    +0.015 C 
ATOM     31  C   UNL     1      36.274 -18.235 -23.095  0.00  0.00    +0.117 C 
ATOM     32  C   UNL     1      33.661 -14.451 -25.570  0.00  0.00    +0.000 C 
ATOM     33  C   UNL     1      34.259 -15.581 -26.126  0.00  0.00    +0.001 C 
ENDBRANCH  23  25
ENDBRANCH  20  23
ENDBRANCH  19  20
ENDBRANCH   4  19
TORSDOF 6
ENDMDL
MODEL 7
REMARK VINA RESULT:     -10.6      6.620     10.762
REMARK  Name = 11538455
REMARK  6 active torsions:
REMARK  status: ('A' for Active; 'I' for Inactive)
REMARK    1  A    between atoms: C_4  and  C_19
REMARK    2  A    between atoms: C_12  and  C_15
REMARK    3  A    between atoms: N_14  and  O_17
REMARK    4  A    between atoms: C_19  and  N_20
REMARK    5  A    between atoms: N_20  and  C_23
REMARK    6  A    between atoms: C_23  and  C_25
REMARK                            x       y       z     vdW  Elec       q    Type
REMARK                         _______ _______ _______ _____ _____    ______ ____
ROOT
ATOM      1  N   UNL     1      34.032 -13.171 -23.098  0.00  0.00    -0.253 N 
ATOM      2  N   UNL     1      35.188 -15.083 -23.859  0.00  0.00    -0.203 NA
ATOM      3  N   UNL     1      34.435 -14.929 -21.575  0.00  0.00    -0.180 NA
ATOM      4  C   UNL     1      32.791 -10.616 -23.660  0.00  0.00    -0.018 C 
ATOM      5  C   UNL     1      34.057 -11.075 -24.391  0.00  0.00    +0.020 C 
ATOM      6  C   UNL     1      32.756 -11.238 -22.260  0.00  0.00    +0.020 C 
ATOM      7  C   UNL     1      34.156 -12.600 -24.444  0.00  0.00    +0.101 C 
ATOM      8  C   UNL     1      32.854 -12.761 -22.322  0.00  0.00    +0.101 C 
ATOM      9  C   UNL     1      34.569 -14.437 -22.835  0.00  0.00    +0.090 C 
ATOM     10  C   UNL     1      35.697 -16.299 -23.571  0.00  0.00    +0.170 C 
ATOM     11  C   UNL     1      34.966 -16.150 -21.356  0.00  0.00    +0.113 C 
ATOM     12  C   UNL     1      35.614 -16.888 -22.326  0.00  0.00    +0.078 C 
ENDROOT
BRANCH  12  15
ATOM     13  O   UNL     1      37.113 -18.649 -22.736  0.00  0.00    -0.268 OA
ATOM     14  N   UNL     1      35.606 -18.928 -21.013  0.00  0.00    -0.194 N 
ATOM     15  C   UNL     1      36.171 -18.198 -22.053  0.00  0.00    +0.267 C 
ATOM     16  H   UNL     1      34.864 -18.567 -20.476  0.00  0.00    +0.183 HD
BRANCH  14  17
ATOM     17  O   UNL     1      36.142 -20.199 -20.763  0.00  0.00    -0.295 OA
ATOM     18  H   UNL     1      36.515 -20.560 -21.583  0.00  0.00    +0.241 HD
ENDBRANCH  14  17
ENDBRANCH  12  15
BRANCH   4  19
ATOM     19  C   UNL     1      32.731  -9.093 -23.581  0.00  0.00    -0.081 C 
BRANCH  19  20
ATOM     20  N   UNL     1      32.783  -8.643 -22.199  0.00  0.00    +0.386 N 
ATOM     21  H   UNL     1      33.111  -9.409 -21.610  0.00  0.00    -0.084 HD
ATOM     22  H   UNL     1      31.847  -8.352 -21.916  0.00  0.00    -0.084 HD
BRANCH  20  23
ATOM     23  C   UNL     1      33.686  -7.509 -22.052  0.00  0.00    -0.053 C 
BRANCH  23  25
ATOM     24  N   UNL     1      31.999  -4.585 -23.445  0.00  0.00    -0.284 N 
ATOM     25  C   UNL     1      33.184  -6.329 -22.837  0.00  0.00    -0.028 C 
ATOM     26  C   UNL     1      33.719  -5.867 -24.054  0.00  0.00    +0.009 C 
ATOM     27  C   UNL     1      32.136  -5.540 -22.474  0.00  0.00    +0.059 C 
ATOM     28  C   UNL     1      32.952  -4.760 -24.422  0.00  0.00    +0.051 C 
ATOM     29  C   UNL     1      34.778  -6.267 -24.893  0.00  0.00    +0.001 C 
ATOM     30  C   UNL     1      33.191  -4.030 -25.592  0.00  0.00    +0.015 C 
ATOM     31  C   UNL     1      30.991  -3.546 -23.428  0.00  0.00    +0.117 C 
ATOM     32  C   UNL     1      35.029  -5.547 -26.068  0.00  0.00    +0.000 C 
ATOM     33  C   UNL     1      34.246  -4.445 -26.409  0.00  0.00    +0.001 C 
ENDBRANCH  23  25
ENDBRANCH  20  23
ENDBRANCH  19  20
ENDBRANCH   4  19
TORSDOF 6
ENDMDL
MODEL 8
REMARK VINA RESULT:     -10.4      9.047     14.041
REMARK  Name = 11538455
REMARK  6 active torsions:
REMARK  status: ('A' for Active; 'I' for Inactive)
REMARK    1  A    between atoms: C_4  and  C_19
REMARK    2  A    between atoms: C_12  and  C_15
REMARK    3  A    between atoms: N_14  and  O_17
REMARK    4  A    between atoms: C_19  and  N_20
REMARK    5  A    between atoms: N_20  and  C_23
REMARK    6  A    between atoms: C_23  and  C_25
REMARK                            x       y       z     vdW  Elec       q    Type
REMARK                         _______ _______ _______ _____ _____    ______ ____
ROOT
ATOM      1  N   UNL     1      31.922  -9.158 -21.638  0.00  0.00    -0.253 N 
ATOM      2  N   UNL     1      31.626  -7.690 -23.463  0.00  0.00    -0.203 NA
ATOM      3  N   UNL     1      31.739  -6.844 -21.210  0.00  0.00    -0.180 NA
ATOM      4  C   UNL     1      32.407 -11.831 -20.639  0.00  0.00    -0.018 C 
ATOM      5  C   UNL     1      31.553 -11.580 -21.886  0.00  0.00    +0.020 C 
ATOM      6  C   UNL     1      32.304 -10.627 -19.698  0.00  0.00    +0.020 C 
ATOM      7  C   UNL     1      31.946 -10.279 -22.584  0.00  0.00    +0.101 C 
ATOM      8  C   UNL     1      32.700  -9.331 -20.404  0.00  0.00    +0.101 C 
ATOM      9  C   UNL     1      31.757  -7.853 -22.119  0.00  0.00    +0.090 C 
ATOM     10  C   UNL     1      31.466  -6.421 -23.892  0.00  0.00    +0.170 C 
ATOM     11  C   UNL     1      31.576  -5.601 -21.708  0.00  0.00    +0.113 C 
ATOM     12  C   UNL     1      31.433  -5.327 -23.053  0.00  0.00    +0.078 C 
ENDROOT
BRANCH  12  15
ATOM     13  O   UNL     1      31.773  -3.621 -24.631  0.00  0.00    -0.268 OA
ATOM     14  N   UNL     1      30.518  -3.099 -22.770  0.00  0.00    -0.194 N 
ATOM     15  C   UNL     1      31.261  -3.976 -23.551  0.00  0.00    +0.267 C 
ATOM     16  H   UNL     1      30.114  -3.384 -21.918  0.00  0.00    +0.183 HD
BRANCH  14  17
ATOM     17  O   UNL     1      30.366  -1.791 -23.252  0.00  0.00    -0.295 OA
ATOM     18  H   UNL     1      31.071  -1.597 -23.889  0.00  0.00    +0.241 HD
ENDBRANCH  14  17
ENDBRANCH  12  15
BRANCH   4  19
ATOM     19  C   UNL     1      31.973 -13.113 -19.931  0.00  0.00    -0.081 C 
BRANCH  19  20
ATOM     20  N   UNL     1      32.728 -14.256 -20.419  0.00  0.00    +0.386 N 
ATOM     21  H   UNL     1      32.166 -14.757 -21.109  0.00  0.00    -0.084 HD
ATOM     22  H   UNL     1      32.947 -14.863 -19.629  0.00  0.00    -0.084 HD
BRANCH  20  23
ATOM     23  C   UNL     1      33.977 -13.833 -21.039  0.00  0.00    -0.053 C 
BRANCH  23  25
ATOM     24  N   UNL     1      34.141 -14.976 -24.503  0.00  0.00    -0.284 N 
ATOM     25  C   UNL     1      34.178 -14.533 -22.354  0.00  0.00    -0.028 C 
ATOM     26  C   UNL     1      34.808 -15.779 -22.531  0.00  0.00    +0.009 C 
ATOM     27  C   UNL     1      33.776 -14.051 -23.561  0.00  0.00    +0.059 C 
ATOM     28  C   UNL     1      34.773 -16.041 -23.902  0.00  0.00    +0.051 C 
ATOM     29  C   UNL     1      35.409 -16.722 -21.675  0.00  0.00    +0.001 C 
ATOM     30  C   UNL     1      35.312 -17.206 -24.463  0.00  0.00    +0.015 C 
ATOM     31  C   UNL     1      33.893 -14.837 -25.922  0.00  0.00    +0.117 C 
ATOM     32  C   UNL     1      35.952 -17.892 -22.221  0.00  0.00    +0.000 C 
ATOM     33  C   UNL     1      35.903 -18.127 -23.594  0.00  0.00    +0.001 C 
ENDBRANCH  23  25
ENDBRANCH  20  23
ENDBRANCH  19  20
ENDBRANCH   4  19
TORSDOF 6
ENDMDL
MODEL 9
REMARK VINA RESULT:     -10.3      5.528     11.409
REMARK  Name = 11538455
REMARK  6 active torsions:
REMARK  status: ('A' for Active; 'I' for Inactive)
REMARK    1  A    between atoms: C_4  and  C_19
REMARK    2  A    between atoms: C_12  and  C_15
REMARK    3  A    between atoms: N_14  and  O_17
REMARK    4  A    between atoms: C_19  and  N_20
REMARK    5  A    between atoms: N_20  and  C_23
REMARK    6  A    between atoms: C_23  and  C_25
REMARK                            x       y       z     vdW  Elec       q    Type
REMARK                         _______ _______ _______ _____ _____    ______ ____
ROOT
ATOM      1  N   UNL     1      34.580 -15.121 -22.718  0.00  0.00    -0.253 N 
ATOM      2  N   UNL     1      34.234 -13.131 -23.940  0.00  0.00    -0.203 NA
ATOM      3  N   UNL     1      33.271 -13.412 -21.749  0.00  0.00    -0.180 NA
ATOM      4  C   UNL     1      35.870 -17.700 -22.462  0.00  0.00    -0.018 C 
ATOM      5  C   UNL     1      35.416 -17.158 -23.821  0.00  0.00    +0.020 C 
ATOM      6  C   UNL     1      34.964 -17.140 -21.360  0.00  0.00    +0.020 C 
ATOM      7  C   UNL     1      35.383 -15.629 -23.835  0.00  0.00    +0.101 C 
ATOM      8  C   UNL     1      34.938 -15.613 -21.381  0.00  0.00    +0.101 C 
ATOM      9  C   UNL     1      34.009 -13.845 -22.804  0.00  0.00    +0.090 C 
ATOM     10  C   UNL     1      33.667 -11.908 -23.991  0.00  0.00    +0.170 C 
ATOM     11  C   UNL     1      32.734 -12.180 -21.866  0.00  0.00    +0.113 C 
ATOM     12  C   UNL     1      32.900 -11.375 -22.975  0.00  0.00    +0.078 C 
ENDROOT
BRANCH  12  15
ATOM     13  O   UNL     1      31.176  -9.827 -22.593  0.00  0.00    -0.268 OA
ATOM     14  N   UNL     1      33.046  -9.067 -23.706  0.00  0.00    -0.194 N 
ATOM     15  C   UNL     1      32.308 -10.055 -23.065  0.00  0.00    +0.267 C 
ATOM     16  H   UNL     1      33.940  -9.252 -24.077  0.00  0.00    +0.183 HD
BRANCH  14  17
ATOM     17  O   UNL     1      32.461  -7.796 -23.801  0.00  0.00    -0.295 OA
ATOM     18  H   UNL     1      32.499  -7.357 -22.937  0.00  0.00    +0.241 HD
ENDBRANCH  14  17
ENDBRANCH  12  15
BRANCH   4  19
ATOM     19  C   UNL     1      35.856 -19.227 -22.453  0.00  0.00    -0.081 C 
BRANCH  19  20
ATOM     20  N   UNL     1      36.112 -19.741 -21.117  0.00  0.00    +0.386 N 
ATOM     21  H   UNL     1      35.900 -19.013 -20.433  0.00  0.00    -0.084 HD
ATOM     22  H   UNL     1      37.094 -20.012 -21.055  0.00  0.00    -0.084 HD
BRANCH  20  23
ATOM     23  C   UNL     1      35.288 -20.910 -20.839  0.00  0.00    -0.053 C 
BRANCH  23  25
ATOM     24  N   UNL     1      36.764 -22.081 -17.711  0.00  0.00    -0.284 N 
ATOM     25  C   UNL     1      35.632 -21.491 -19.496  0.00  0.00    -0.028 C 
ATOM     26  C   UNL     1      34.738 -22.160 -18.639  0.00  0.00    +0.009 C 
ATOM     27  C   UNL     1      36.864 -21.448 -18.921  0.00  0.00    +0.059 C 
ATOM     28  C   UNL     1      35.477 -22.526 -17.513  0.00  0.00    +0.051 C 
ATOM     29  C   UNL     1      33.372 -22.499 -18.694  0.00  0.00    +0.001 C 
ATOM     30  C   UNL     1      34.916 -23.219 -16.433  0.00  0.00    +0.015 C 
ATOM     31  C   UNL     1      37.864 -22.248 -16.785  0.00  0.00    +0.117 C 
ATOM     32  C   UNL     1      32.796 -23.192 -17.621  0.00  0.00    +0.000 C 
ATOM     33  C   UNL     1      33.559 -23.545 -16.509  0.00  0.00    +0.001 C 
ENDBRANCH  23  25
ENDBRANCH  20  23
ENDBRANCH  19  20
ENDBRANCH   4  19
TORSDOF 6
ENDMDL
