MODEL 1
REMARK VINA RESULT:     -11.3      0.000      0.000
REMARK  Name = 9924495
REMARK  4 active torsions:
REMARK  status: ('A' for Active; 'I' for Inactive)
REMARK    1  A    between atoms: N_2  and  C_22
REMARK    2  A    between atoms: C_3  and  C_14
REMARK    3  A    between atoms: C_4  and  C_9
REMARK    4  A    between atoms: C_15  and  C_21
REMARK                            x       y       z     vdW  Elec       q    Type
REMARK                         _______ _______ _______ _____ _____    ______ ____
ROOT
ATOM      1  O   UNL     1      33.603 -24.679 -13.623  0.00  0.00    -0.269 OA
ATOM      2  N   UNL     1      32.985 -23.857 -15.744  0.00  0.00    -0.233 N 
ATOM      3  C   UNL     1      35.357 -23.930 -14.998  0.00  0.00    +0.055 C 
ATOM      4  C   UNL     1      34.721 -22.892 -17.109  0.00  0.00    +0.033 C 
ATOM      5  C   UNL     1      33.901 -24.213 -14.724  0.00  0.00    +0.257 C 
ATOM      6  C   UNL     1      35.702 -23.298 -16.130  0.00  0.00    +0.007 C 
ATOM      7  C   UNL     1      33.431 -23.195 -16.887  0.00  0.00    +0.074 C 
ENDROOT
BRANCH   4   9
ATOM      8  N   UNL     1      36.390 -21.894 -18.511  0.00  0.00    -0.244 NA
ATOM      9  C   UNL     1      35.083 -22.203 -18.363  0.00  0.00    +0.083 C 
ATOM     10  C   UNL     1      34.104 -21.911 -19.298  0.00  0.00    +0.019 C 
ATOM     11  C   UNL     1      34.493 -21.260 -20.464  0.00  0.00    +0.003 C 
ATOM     12  C   UNL     1      36.730 -21.261 -19.657  0.00  0.00    +0.099 C 
ATOM     13  C   UNL     1      35.828 -20.925 -20.654  0.00  0.00    +0.021 C 
ENDBRANCH   4   9
BRANCH   3  14
ATOM     14  C   UNL     1      36.402 -24.342 -14.044  0.00  0.00    +0.014 C 
ATOM     15  C   UNL     1      37.109 -25.534 -14.192  0.00  0.00    +0.069 C 
ATOM     16  C   UNL     1      36.675 -23.498 -12.967  0.00  0.00    +0.001 C 
ATOM     17  C   UNL     1      38.090 -25.884 -13.264  0.00  0.00    +0.010 C 
ATOM     18  C   UNL     1      37.656 -23.847 -12.038  0.00  0.00    +0.000 C 
ATOM     19  C   UNL     1      38.364 -25.040 -12.187  0.00  0.00    +0.001 C 
BRANCH  15  21
ATOM     20  N   UNL     1      36.653 -27.147 -16.167  0.00  0.00    -0.191 NA
ATOM     21  C   UNL     1      36.856 -26.425 -15.285  0.00  0.00    +0.100 C 
ENDBRANCH  15  21
ENDBRANCH   3  14
BRANCH   2  22
ATOM     22  C   UNL     1      31.576 -24.159 -15.577  0.00  0.00    +0.058 C 
ATOM     23  C   UNL     1      31.190 -25.414 -15.121  0.00  0.00    +0.015 C 
ATOM     24  C   UNL     1      30.625 -23.189 -15.875  0.00  0.00    +0.015 C 
ATOM     25  C   UNL     1      29.835 -25.703 -14.960  0.00  0.00    +0.001 C 
ATOM     26  C   UNL     1      29.270 -23.479 -15.714  0.00  0.00    +0.001 C 
ATOM     27  C   UNL     1      28.875 -24.736 -15.257  0.00  0.00    +0.000 C 
ENDBRANCH   2  22
TORSDOF 4
ENDMDL
MODEL 2
REMARK VINA RESULT:      -9.3      1.465      5.600
REMARK  Name = 9924495
REMARK  4 active torsions:
REMARK  status: ('A' for Active; 'I' for Inactive)
REMARK    1  A    between atoms: N_2  and  C_22
REMARK    2  A    between atoms: C_3  and  C_14
REMARK    3  A    between atoms: C_4  and  C_9
REMARK    4  A    between atoms: C_15  and  C_21
REMARK                            x       y       z     vdW  Elec       q    Type
REMARK                         _______ _______ _______ _____ _____    ______ ____
ROOT
ATOM      1  O   UNL     1      32.240 -22.416 -18.298  0.00  0.00    -0.269 OA
ATOM      2  N   UNL     1      32.574 -23.667 -16.329  0.00  0.00    -0.233 N 
ATOM      3  C   UNL     1      34.475 -22.805 -17.682  0.00  0.00    +0.055 C 
ATOM      4  C   UNL     1      34.840 -24.264 -15.764  0.00  0.00    +0.033 C 
ATOM      5  C   UNL     1      32.988 -22.923 -17.461  0.00  0.00    +0.257 C 
ATOM      6  C   UNL     1      35.315 -23.460 -16.866  0.00  0.00    +0.007 C 
ATOM      7  C   UNL     1      33.517 -24.322 -15.537  0.00  0.00    +0.074 C 
ENDROOT
BRANCH   4   9
ATOM      8  N   UNL     1      36.492 -25.965 -15.410  0.00  0.00    -0.244 NA
ATOM      9  C   UNL     1      35.749 -24.984 -14.851  0.00  0.00    +0.083 C 
ATOM     10  C   UNL     1      35.798 -24.639 -13.511  0.00  0.00    +0.019 C 
ATOM     11  C   UNL     1      36.670 -25.347 -12.690  0.00  0.00    +0.003 C 
ATOM     12  C   UNL     1      37.327 -26.631 -14.581  0.00  0.00    +0.099 C 
ATOM     13  C   UNL     1      37.451 -26.362 -13.227  0.00  0.00    +0.021 C 
ENDBRANCH   4   9
BRANCH   3  14
ATOM     14  C   UNL     1      35.015 -21.980 -18.777  0.00  0.00    +0.014 C 
ATOM     15  C   UNL     1      36.338 -21.540 -18.786  0.00  0.00    +0.069 C 
ATOM     16  C   UNL     1      34.160 -21.640 -19.826  0.00  0.00    +0.001 C 
ATOM     17  C   UNL     1      36.807 -20.760 -19.843  0.00  0.00    +0.010 C 
ATOM     18  C   UNL     1      34.629 -20.861 -20.884  0.00  0.00    +0.000 C 
ATOM     19  C   UNL     1      35.953 -20.421 -20.892  0.00  0.00    +0.001 C 
BRANCH  15  21
ATOM     20  N   UNL     1      37.979 -22.132 -16.870  0.00  0.00    -0.191 NA
ATOM     21  C   UNL     1      37.245 -21.868 -17.726  0.00  0.00    +0.100 C 
ENDBRANCH  15  21
ENDBRANCH   3  14
BRANCH   2  22
ATOM     22  C   UNL     1      31.161 -23.768 -16.016  0.00  0.00    +0.058 C 
ATOM     23  C   UNL     1      30.361 -22.633 -16.071  0.00  0.00    +0.015 C 
ATOM     24  C   UNL     1      30.621 -25.000 -15.666  0.00  0.00    +0.015 C 
ATOM     25  C   UNL     1      29.002 -22.731 -15.771  0.00  0.00    +0.001 C 
ATOM     26  C   UNL     1      29.262 -25.098 -15.366  0.00  0.00    +0.001 C 
ATOM     27  C   UNL     1      28.453 -23.963 -15.419  0.00  0.00    +0.000 C 
ENDBRANCH   2  22
TORSDOF 4
ENDMDL
MODEL 3
REMARK VINA RESULT:      -9.3      1.717      2.317
REMARK  Name = 9924495
REMARK  4 active torsions:
REMARK  status: ('A' for Active; 'I' for Inactive)
REMARK    1  A    between atoms: N_2  and  C_22
REMARK    2  A    between atoms: C_3  and  C_14
REMARK    3  A    between atoms: C_4  and  C_9
REMARK    4  A    between atoms: C_15  and  C_21
REMARK                            x       y       z     vdW  Elec       q    Type
REMARK                         _______ _______ _______ _____ _____    ______ ____
ROOT
ATOM      1  O   UNL     1      33.491 -24.669 -14.750  0.00  0.00    -0.269 OA
ATOM      2  N   UNL     1      32.541 -23.518 -16.573  0.00  0.00    -0.233 N 
ATOM      3  C   UNL     1      34.996 -23.851 -16.360  0.00  0.00    +0.055 C 
ATOM      4  C   UNL     1      34.051 -22.486 -18.144  0.00  0.00    +0.033 C 
ATOM      5  C   UNL     1      33.605 -24.073 -15.822  0.00  0.00    +0.257 C 
ATOM      6  C   UNL     1      35.165 -23.089 -17.451  0.00  0.00    +0.007 C 
ATOM      7  C   UNL     1      32.809 -22.732 -17.694  0.00  0.00    +0.074 C 
ENDROOT
BRANCH   4   9
ATOM      8  N   UNL     1      33.077 -21.198 -19.915  0.00  0.00    -0.244 NA
ATOM      9  C   UNL     1      34.217 -21.653 -19.351  0.00  0.00    +0.083 C 
ATOM     10  C   UNL     1      35.485 -21.385 -19.835  0.00  0.00    +0.019 C 
ATOM     11  C   UNL     1      35.592 -20.596 -20.976  0.00  0.00    +0.003 C 
ATOM     12  C   UNL     1      33.219 -20.435 -21.023  0.00  0.00    +0.099 C 
ATOM     13  C   UNL     1      34.442 -20.108 -21.586  0.00  0.00    +0.021 C 
ENDBRANCH   4   9
BRANCH   3  14
ATOM     14  C   UNL     1      36.168 -24.460 -15.705  0.00  0.00    +0.014 C 
ATOM     15  C   UNL     1      37.388 -23.792 -15.604  0.00  0.00    +0.069 C 
ATOM     16  C   UNL     1      36.032 -25.745 -15.179  0.00  0.00    +0.001 C 
ATOM     17  C   UNL     1      38.472 -24.407 -14.978  0.00  0.00    +0.010 C 
ATOM     18  C   UNL     1      37.115 -26.360 -14.551  0.00  0.00    +0.000 C 
ATOM     19  C   UNL     1      38.334 -25.691 -14.450  0.00  0.00    +0.001 C 
BRANCH  15  21
ATOM     20  N   UNL     1      37.711 -21.406 -16.563  0.00  0.00    -0.191 NA
ATOM     21  C   UNL     1      37.566 -22.472 -16.134  0.00  0.00    +0.100 C 
ENDBRANCH  15  21
ENDBRANCH   3  14
BRANCH   2  22
ATOM     22  C   UNL     1      31.171 -23.747 -16.152  0.00  0.00    +0.058 C 
ATOM     23  C   UNL     1      30.819 -24.970 -15.595  0.00  0.00    +0.015 C 
ATOM     24  C   UNL     1      30.226 -22.740 -16.309  0.00  0.00    +0.015 C 
ATOM     25  C   UNL     1      29.502 -25.190 -15.190  0.00  0.00    +0.001 C 
ATOM     26  C   UNL     1      28.910 -22.960 -15.904  0.00  0.00    +0.001 C 
ATOM     27  C   UNL     1      28.548 -24.185 -15.344  0.00  0.00    +0.000 C 
ENDBRANCH   2  22
TORSDOF 4
ENDMDL
MODEL 4
REMARK VINA RESULT:      -8.6      1.368      2.255
REMARK  Name = 9924495
REMARK  4 active torsions:
REMARK  status: ('A' for Active; 'I' for Inactive)
REMARK    1  A    between atoms: N_2  and  C_22
REMARK    2  A    between atoms: C_3  and  C_14
REMARK    3  A    between atoms: C_4  and  C_9
REMARK    4  A    between atoms: C_15  and  C_21
REMARK                            x       y       z     vdW  Elec       q    Type
REMARK                         _______ _______ _______ _____ _____    ______ ____
ROOT
ATOM      1  O   UNL     1      33.284 -25.190 -14.147  0.00  0.00    -0.269 OA
ATOM      2  N   UNL     1      32.715 -23.914 -16.045  0.00  0.00    -0.233 N 
ATOM      3  C   UNL     1      35.072 -24.495 -15.505  0.00  0.00    +0.055 C 
ATOM      4  C   UNL     1      34.523 -23.009 -17.357  0.00  0.00    +0.033 C 
ATOM      5  C   UNL     1      33.605 -24.587 -15.173  0.00  0.00    +0.257 C 
ATOM      6  C   UNL     1      35.466 -23.734 -16.537  0.00  0.00    +0.007 C 
ATOM      7  C   UNL     1      33.213 -23.137 -17.091  0.00  0.00    +0.074 C 
ENDROOT
BRANCH   4   9
ATOM      8  N   UNL     1      33.941 -21.731 -19.300  0.00  0.00    -0.244 NA
ATOM      9  C   UNL     1      34.937 -22.173 -18.501  0.00  0.00    +0.083 C 
ATOM     10  C   UNL     1      36.278 -21.890 -18.700  0.00  0.00    +0.019 C 
ATOM     11  C   UNL     1      36.619 -21.099 -19.793  0.00  0.00    +0.003 C 
ATOM     12  C   UNL     1      34.311 -20.966 -20.352  0.00  0.00    +0.099 C 
ATOM     13  C   UNL     1      35.624 -20.625 -20.638  0.00  0.00    +0.021 C 
ENDBRANCH   4   9
BRANCH   3  14
ATOM     14  C   UNL     1      36.076 -25.231 -14.716  0.00  0.00    +0.014 C 
ATOM     15  C   UNL     1      36.206 -25.056 -13.339  0.00  0.00    +0.069 C 
ATOM     16  C   UNL     1      36.911 -26.125 -15.387  0.00  0.00    +0.001 C 
ATOM     17  C   UNL     1      37.172 -25.773 -12.632  0.00  0.00    +0.010 C 
ATOM     18  C   UNL     1      37.876 -26.843 -14.681  0.00  0.00    +0.000 C 
ATOM     19  C   UNL     1      38.006 -26.667 -13.303  0.00  0.00    +0.001 C 
BRANCH  15  21
ATOM     20  N   UNL     1      34.690 -23.411 -12.032  0.00  0.00    -0.191 NA
ATOM     21  C   UNL     1      35.367 -24.147 -12.616  0.00  0.00    +0.100 C 
ENDBRANCH  15  21
ENDBRANCH   3  14
BRANCH   2  22
ATOM     22  C   UNL     1      31.284 -24.013 -15.825  0.00  0.00    +0.058 C 
ATOM     23  C   UNL     1      30.462 -22.941 -16.149  0.00  0.00    +0.015 C 
ATOM     24  C   UNL     1      30.750 -25.181 -15.293  0.00  0.00    +0.015 C 
ATOM     25  C   UNL     1      29.087 -23.037 -15.938  0.00  0.00    +0.001 C 
ATOM     26  C   UNL     1      29.375 -25.278 -15.082  0.00  0.00    +0.001 C 
ATOM     27  C   UNL     1      28.543 -24.205 -15.405  0.00  0.00    +0.000 C 
ENDBRANCH   2  22
TORSDOF 4
ENDMDL
MODEL 5
REMARK VINA RESULT:      -8.6      1.646      6.584
REMARK  Name = 9924495
REMARK  4 active torsions:
REMARK  status: ('A' for Active; 'I' for Inactive)
REMARK    1  A    between atoms: N_2  and  C_22
REMARK    2  A    between atoms: C_3  and  C_14
REMARK    3  A    between atoms: C_4  and  C_9
REMARK    4  A    between atoms: C_15  and  C_21
REMARK                            x       y       z     vdW  Elec       q    Type
REMARK                         _______ _______ _______ _____ _____    ______ ____
ROOT
ATOM      1  O   UNL     1      32.010 -22.266 -18.039  0.00  0.00    -0.269 OA
ATOM      2  N   UNL     1      34.339 -22.594 -17.897  0.00  0.00    -0.233 N 
ATOM      3  C   UNL     1      32.754 -23.704 -16.335  0.00  0.00    +0.055 C 
ATOM      4  C   UNL     1      35.166 -23.896 -16.045  0.00  0.00    +0.033 C 
ATOM      5  C   UNL     1      32.990 -22.801 -17.518  0.00  0.00    +0.257 C 
ATOM      6  C   UNL     1      33.806 -24.193 -15.661  0.00  0.00    +0.007 C 
ATOM      7  C   UNL     1      35.372 -23.136 -17.133  0.00  0.00    +0.074 C 
ENDROOT
BRANCH   4   9
ATOM      8  N   UNL     1      36.706 -25.690 -15.648  0.00  0.00    -0.244 NA
ATOM      9  C   UNL     1      36.335 -24.432 -15.321  0.00  0.00    +0.083 C 
ATOM     10  C   UNL     1      36.976 -23.655 -14.372  0.00  0.00    +0.019 C 
ATOM     11  C   UNL     1      38.073 -24.203 -13.715  0.00  0.00    +0.003 C 
ATOM     12  C   UNL     1      37.776 -26.190 -14.989  0.00  0.00    +0.099 C 
ATOM     13  C   UNL     1      38.486 -25.494 -14.024  0.00  0.00    +0.021 C 
ENDBRANCH   4   9
BRANCH   3  14
ATOM     14  C   UNL     1      31.387 -24.058 -15.912  0.00  0.00    +0.014 C 
ATOM     15  C   UNL     1      30.976 -23.960 -14.583  0.00  0.00    +0.069 C 
ATOM     16  C   UNL     1      30.493 -24.503 -16.887  0.00  0.00    +0.001 C 
ATOM     17  C   UNL     1      29.673 -24.307 -14.228  0.00  0.00    +0.010 C 
ATOM     18  C   UNL     1      29.189 -24.850 -16.532  0.00  0.00    +0.000 C 
ATOM     19  C   UNL     1      28.779 -24.751 -15.202  0.00  0.00    +0.001 C 
BRANCH  15  21
ATOM     20  N   UNL     1      32.586 -23.141 -12.725  0.00  0.00    -0.191 NA
ATOM     21  C   UNL     1      31.866 -23.508 -13.555  0.00  0.00    +0.100 C 
ENDBRANCH  15  21
ENDBRANCH   3  14
BRANCH   2  22
ATOM     22  C   UNL     1      34.639 -21.789 -19.066  0.00  0.00    +0.058 C 
ATOM     23  C   UNL     1      33.601 -21.266 -19.826  0.00  0.00    +0.015 C 
ATOM     24  C   UNL     1      35.964 -21.549 -19.414  0.00  0.00    +0.015 C 
ATOM     25  C   UNL     1      33.890 -20.492 -20.950  0.00  0.00    +0.001 C 
ATOM     26  C   UNL     1      36.253 -20.775 -20.537  0.00  0.00    +0.001 C 
ATOM     27  C   UNL     1      35.216 -20.246 -21.306  0.00  0.00    +0.000 C 
ENDBRANCH   2  22
TORSDOF 4
ENDMDL
