MODEL 1
REMARK VINA RESULT:     -10.7      0.000      0.000
REMARK  Name = 5289179
REMARK  4 active torsions:
REMARK  status: ('A' for Active; 'I' for Inactive)
REMARK    1  A    between atoms: C_3  and  C_14
REMARK    2  A    between atoms: C_6  and  C_22
REMARK    3  A    between atoms: C_14  and  C_15
REMARK    4  A    between atoms: C_22  and  C_25
REMARK                            x       y       z     vdW  Elec       q    Type
REMARK                         _______ _______ _______ _____ _____    ______ ____
ROOT
ATOM      1  N   UNL     1      34.983 -17.181 -23.662  0.00  0.00    -0.249 N 
ATOM      2  N   UNL     1      34.504 -18.224 -25.582  0.00  0.00    -0.375 NA
ATOM      3  C   UNL     1      35.406 -18.477 -23.515  0.00  0.00    +0.208 C 
ATOM      4  C   UNL     1      34.439 -17.075 -24.939  0.00  0.00    +0.189 C 
ATOM      5  C   UNL     1      35.048 -16.121 -22.760  0.00  0.00    +0.071 C 
ATOM      6  C   UNL     1      34.561 -14.925 -23.134  0.00  0.00    +0.054 C 
ATOM      7  C   UNL     1      35.100 -19.094 -24.705  0.00  0.00    +0.182 C 
ATOM      8  C   UNL     1      33.926 -15.801 -25.324  0.00  0.00    +0.048 C 
ATOM      9  C   UNL     1      33.983 -14.768 -24.460  0.00  0.00    +0.008 C 
ATOM     10  N   UNL     1      35.339 -20.387 -25.018  0.00  0.00    -0.335 N 
ATOM     11  H   UNL     1      35.081 -20.735 -25.902  0.00  0.00    +0.144 HD
ATOM     12  H   UNL     1      35.772 -20.981 -24.362  0.00  0.00    +0.144 HD
ENDROOT
BRANCH   3  14
ATOM     13  O   UNL     1      37.206 -18.801 -21.999  0.00  0.00    -0.289 OA
ATOM     14  C   UNL     1      36.028 -19.025 -22.350  0.00  0.00    +0.200 C 
BRANCH  14  15
ATOM     15  C   UNL     1      35.277 -19.930 -21.420  0.00  0.00    +0.037 C 
ATOM     16  C   UNL     1      33.906 -19.879 -21.424  0.00  0.00    +0.003 C 
ATOM     17  C   UNL     1      35.997 -20.768 -20.604  0.00  0.00    +0.003 C 
ATOM     18  C   UNL     1      33.208 -20.721 -20.557  0.00  0.00    +0.000 C 
ATOM     19  C   UNL     1      35.299 -21.610 -19.738  0.00  0.00    +0.000 C 
ATOM     20  C   UNL     1      33.904 -21.586 -19.715  0.00  0.00    +0.000 C 
ENDBRANCH  14  15
ENDBRANCH   3  14
BRANCH   6  22
ATOM     21  O   UNL     1      35.689 -13.498 -21.655  0.00  0.00    -0.286 OA
ATOM     22  C   UNL     1      34.624 -13.809 -22.191  0.00  0.00    +0.201 C 
BRANCH  22  25
ATOM     23  F   UNL     1      33.828 -11.632 -23.770  0.00  0.00    -0.204 F 
ATOM     24  F   UNL     1      32.946 -14.425 -20.029  0.00  0.00    -0.204 F 
ATOM     25  C   UNL     1      33.390 -13.030 -21.900  0.00  0.00    +0.094 C 
ATOM     26  C   UNL     1      33.064 -11.972 -22.721  0.00  0.00    +0.145 C 
ATOM     27  C   UNL     1      32.616 -13.393 -20.819  0.00  0.00    +0.145 C 
ATOM     28  C   UNL     1      31.907 -11.242 -22.448  0.00  0.00    +0.030 C 
ATOM     29  C   UNL     1      31.459 -12.662 -20.546  0.00  0.00    +0.030 C 
ATOM     30  C   UNL     1      31.105 -11.587 -21.361  0.00  0.00    +0.005 C 
ENDBRANCH  22  25
ENDBRANCH   6  22
TORSDOF 4
ENDMDL
MODEL 2
REMARK VINA RESULT:     -10.1      6.531     10.000
REMARK  Name = 5289179
REMARK  4 active torsions:
REMARK  status: ('A' for Active; 'I' for Inactive)
REMARK    1  A    between atoms: C_3  and  C_14
REMARK    2  A    between atoms: C_6  and  C_22
REMARK    3  A    between atoms: C_14  and  C_15
REMARK    4  A    between atoms: C_22  and  C_25
REMARK                            x       y       z     vdW  Elec       q    Type
REMARK                         _______ _______ _______ _____ _____    ______ ____
ROOT
ATOM      1  N   UNL     1      33.908 -23.893 -16.107  0.00  0.00    -0.249 N 
ATOM      2  N   UNL     1      32.420 -23.606 -14.462  0.00  0.00    -0.375 NA
ATOM      3  C   UNL     1      34.438 -24.496 -14.995  0.00  0.00    +0.208 C 
ATOM      4  C   UNL     1      32.676 -23.365 -15.732  0.00  0.00    +0.189 C 
ATOM      5  C   UNL     1      34.435 -23.787 -17.393  0.00  0.00    +0.071 C 
ATOM      6  C   UNL     1      33.721 -23.141 -18.331  0.00  0.00    +0.054 C 
ATOM      7  C   UNL     1      33.508 -24.305 -14.001  0.00  0.00    +0.182 C 
ATOM      8  C   UNL     1      31.929 -22.682 -16.736  0.00  0.00    +0.048 C 
ATOM      9  C   UNL     1      32.427 -22.573 -17.983  0.00  0.00    +0.008 C 
ATOM     10  N   UNL     1      33.605 -24.733 -12.723  0.00  0.00    -0.335 N 
ATOM     11  H   UNL     1      32.880 -24.546 -12.085  0.00  0.00    +0.144 HD
ATOM     12  H   UNL     1      34.402 -25.234 -12.431  0.00  0.00    +0.144 HD
ENDROOT
BRANCH   3  14
ATOM     13  O   UNL     1      36.071 -26.062 -15.719  0.00  0.00    -0.289 OA
ATOM     14  C   UNL     1      35.700 -25.166 -14.930  0.00  0.00    +0.200 C 
BRANCH  14  15
ATOM     15  C   UNL     1      36.714 -24.819 -13.882  0.00  0.00    +0.037 C 
ATOM     16  C   UNL     1      37.438 -25.836 -13.312  0.00  0.00    +0.003 C 
ATOM     17  C   UNL     1      36.871 -23.499 -13.539  0.00  0.00    +0.003 C 
ATOM     18  C   UNL     1      38.381 -25.512 -12.336  0.00  0.00    +0.000 C 
ATOM     19  C   UNL     1      37.814 -23.175 -12.563  0.00  0.00    +0.000 C 
ATOM     20  C   UNL     1      38.569 -24.183 -11.962  0.00  0.00    +0.000 C 
ENDBRANCH  14  15
ENDBRANCH   3  14
BRANCH   6  22
ATOM     21  O   UNL     1      34.261 -23.989 -20.449  0.00  0.00    -0.286 OA
ATOM     22  C   UNL     1      34.269 -23.025 -19.682  0.00  0.00    +0.201 C 
BRANCH  22  25
ATOM     23  F   UNL     1      32.701 -21.141 -21.045  0.00  0.00    -0.204 F 
ATOM     24  F   UNL     1      36.938 -22.288 -19.227  0.00  0.00    -0.204 F 
ATOM     25  C   UNL     1      34.818 -21.719 -20.135  0.00  0.00    +0.094 C 
ATOM     26  C   UNL     1      33.986 -20.843 -20.800  0.00  0.00    +0.145 C 
ATOM     27  C   UNL     1      36.141 -21.427 -19.875  0.00  0.00    +0.145 C 
ATOM     28  C   UNL     1      34.500 -19.619 -21.225  0.00  0.00    +0.030 C 
ATOM     29  C   UNL     1      36.654 -20.203 -20.301  0.00  0.00    +0.030 C 
ATOM     30  C   UNL     1      35.834 -19.298 -20.976  0.00  0.00    +0.005 C 
ENDBRANCH  22  25
ENDBRANCH   6  22
TORSDOF 4
ENDMDL
MODEL 3
REMARK VINA RESULT:     -10.1      6.538     10.016
REMARK  Name = 5289179
REMARK  4 active torsions:
REMARK  status: ('A' for Active; 'I' for Inactive)
REMARK    1  A    between atoms: C_3  and  C_14
REMARK    2  A    between atoms: C_6  and  C_22
REMARK    3  A    between atoms: C_14  and  C_15
REMARK    4  A    between atoms: C_22  and  C_25
REMARK                            x       y       z     vdW  Elec       q    Type
REMARK                         _______ _______ _______ _____ _____    ______ ____
ROOT
ATOM      1  N   UNL     1      33.920 -23.885 -16.088  0.00  0.00    -0.249 N 
ATOM      2  N   UNL     1      32.445 -23.589 -14.432  0.00  0.00    -0.375 NA
ATOM      3  C   UNL     1      34.457 -24.485 -14.978  0.00  0.00    +0.208 C 
ATOM      4  C   UNL     1      32.692 -23.352 -15.705  0.00  0.00    +0.189 C 
ATOM      5  C   UNL     1      34.437 -23.784 -17.378  0.00  0.00    +0.071 C 
ATOM      6  C   UNL     1      33.719 -23.139 -18.312  0.00  0.00    +0.054 C 
ATOM      7  C   UNL     1      33.535 -24.289 -13.978  0.00  0.00    +0.182 C 
ATOM      8  C   UNL     1      31.940 -22.670 -16.705  0.00  0.00    +0.048 C 
ATOM      9  C   UNL     1      32.429 -22.566 -17.957  0.00  0.00    +0.008 C 
ATOM     10  N   UNL     1      33.640 -24.714 -12.699  0.00  0.00    -0.335 N 
ATOM     11  H   UNL     1      32.921 -24.523 -12.056  0.00  0.00    +0.144 HD
ATOM     12  H   UNL     1      34.438 -25.216 -12.412  0.00  0.00    +0.144 HD
ENDROOT
BRANCH   3  14
ATOM     13  O   UNL     1      36.081 -26.056 -15.710  0.00  0.00    -0.289 OA
ATOM     14  C   UNL     1      35.717 -25.159 -14.921  0.00  0.00    +0.200 C 
BRANCH  14  15
ATOM     15  C   UNL     1      36.739 -24.814 -13.879  0.00  0.00    +0.037 C 
ATOM     16  C   UNL     1      36.898 -23.495 -13.533  0.00  0.00    +0.003 C 
ATOM     17  C   UNL     1      37.472 -25.832 -13.322  0.00  0.00    +0.003 C 
ATOM     18  C   UNL     1      37.849 -23.174 -12.564  0.00  0.00    +0.000 C 
ATOM     19  C   UNL     1      38.424 -25.511 -12.353  0.00  0.00    +0.000 C 
ATOM     20  C   UNL     1      38.612 -24.181 -11.975  0.00  0.00    +0.000 C 
ENDBRANCH  14  15
ENDBRANCH   3  14
BRANCH   6  22
ATOM     21  O   UNL     1      34.242 -23.995 -20.431  0.00  0.00    -0.286 OA
ATOM     22  C   UNL     1      34.257 -23.028 -19.667  0.00  0.00    +0.201 C 
BRANCH  22  25
ATOM     23  F   UNL     1      36.928 -22.292 -19.230  0.00  0.00    -0.204 F 
ATOM     24  F   UNL     1      32.684 -21.149 -21.032  0.00  0.00    -0.204 F 
ATOM     25  C   UNL     1      34.804 -21.724 -20.129  0.00  0.00    +0.094 C 
ATOM     26  C   UNL     1      36.128 -21.432 -19.877  0.00  0.00    +0.145 C 
ATOM     27  C   UNL     1      33.969 -20.851 -20.794  0.00  0.00    +0.145 C 
ATOM     28  C   UNL     1      36.641 -20.209 -20.310  0.00  0.00    +0.030 C 
ATOM     29  C   UNL     1      34.482 -19.629 -21.226  0.00  0.00    +0.030 C 
ATOM     30  C   UNL     1      35.818 -19.307 -20.984  0.00  0.00    +0.005 C 
ENDBRANCH  22  25
ENDBRANCH   6  22
TORSDOF 4
ENDMDL
MODEL 4
REMARK VINA RESULT:     -10.0      6.672     10.652
REMARK  Name = 5289179
REMARK  4 active torsions:
REMARK  status: ('A' for Active; 'I' for Inactive)
REMARK    1  A    between atoms: C_3  and  C_14
REMARK    2  A    between atoms: C_6  and  C_22
REMARK    3  A    between atoms: C_14  and  C_15
REMARK    4  A    between atoms: C_22  and  C_25
REMARK                            x       y       z     vdW  Elec       q    Type
REMARK                         _______ _______ _______ _____ _____    ______ ____
ROOT
ATOM      1  N   UNL     1      34.652 -23.399 -16.086  0.00  0.00    -0.249 N 
ATOM      2  N   UNL     1      36.744 -22.724 -15.674  0.00  0.00    -0.375 NA
ATOM      3  C   UNL     1      35.194 -23.055 -17.298  0.00  0.00    +0.208 C 
ATOM      4  C   UNL     1      35.636 -23.180 -15.125  0.00  0.00    +0.189 C 
ATOM      5  C   UNL     1      33.378 -23.880 -15.791  0.00  0.00    +0.071 C 
ATOM      6  C   UNL     1      33.071 -24.151 -14.511  0.00  0.00    +0.054 C 
ATOM      7  C   UNL     1      36.476 -22.644 -17.017  0.00  0.00    +0.182 C 
ATOM      8  C   UNL     1      35.298 -23.472 -13.772  0.00  0.00    +0.048 C 
ATOM      9  C   UNL     1      34.069 -23.938 -13.474  0.00  0.00    +0.008 C 
ATOM     10  N   UNL     1      37.391 -22.212 -17.913  0.00  0.00    -0.335 N 
ATOM     11  H   UNL     1      38.286 -21.940 -17.610  0.00  0.00    +0.144 HD
ATOM     12  H   UNL     1      37.161 -22.171 -18.870  0.00  0.00    +0.144 HD
ENDROOT
BRANCH   3  14
ATOM     13  O   UNL     1      33.922 -24.127 -18.993  0.00  0.00    -0.289 OA
ATOM     14  C   UNL     1      34.528 -23.123 -18.561  0.00  0.00    +0.200 C 
BRANCH  14  15
ATOM     15  C   UNL     1      34.490 -21.944 -19.487  0.00  0.00    +0.037 C 
ATOM     16  C   UNL     1      33.277 -21.359 -19.751  0.00  0.00    +0.003 C 
ATOM     17  C   UNL     1      35.672 -21.505 -20.030  0.00  0.00    +0.003 C 
ATOM     18  C   UNL     1      33.244 -20.263 -20.613  0.00  0.00    +0.000 C 
ATOM     19  C   UNL     1      35.639 -20.409 -20.892  0.00  0.00    +0.000 C 
ATOM     20  C   UNL     1      34.423 -19.788 -21.184  0.00  0.00    +0.000 C 
ENDBRANCH  14  15
ENDBRANCH   3  14
BRANCH   6  22
ATOM     21  O   UNL     1      31.554 -25.394 -13.226  0.00  0.00    -0.286 OA
ATOM     22  C   UNL     1      31.735 -24.655 -14.195  0.00  0.00    +0.201 C 
BRANCH  22  25
ATOM     23  F   UNL     1      30.948 -21.974 -14.447  0.00  0.00    -0.204 F 
ATOM     24  F   UNL     1      30.212 -26.512 -15.644  0.00  0.00    -0.204 F 
ATOM     25  C   UNL     1      30.583 -24.245 -15.043  0.00  0.00    +0.094 C 
ATOM     26  C   UNL     1      30.256 -22.907 -15.117  0.00  0.00    +0.145 C 
ATOM     27  C   UNL     1      29.882 -25.216 -15.725  0.00  0.00    +0.145 C 
ATOM     28  C   UNL     1      29.175 -22.523 -15.911  0.00  0.00    +0.030 C 
ATOM     29  C   UNL     1      28.802 -24.831 -16.519  0.00  0.00    +0.030 C 
ATOM     30  C   UNL     1      28.448 -23.484 -16.612  0.00  0.00    +0.005 C 
ENDBRANCH  22  25
ENDBRANCH   6  22
TORSDOF 4
ENDMDL
MODEL 5
REMARK VINA RESULT:      -9.7      6.327      9.739
REMARK  Name = 5289179
REMARK  4 active torsions:
REMARK  status: ('A' for Active; 'I' for Inactive)
REMARK    1  A    between atoms: C_3  and  C_14
REMARK    2  A    between atoms: C_6  and  C_22
REMARK    3  A    between atoms: C_14  and  C_15
REMARK    4  A    between atoms: C_22  and  C_25
REMARK                            x       y       z     vdW  Elec       q    Type
REMARK                         _______ _______ _______ _____ _____    ______ ____
ROOT
ATOM      1  N   UNL     1      34.692 -23.485 -15.637  0.00  0.00    -0.249 N 
ATOM      2  N   UNL     1      36.104 -23.160 -13.933  0.00  0.00    -0.375 NA
ATOM      3  C   UNL     1      34.100 -24.040 -14.532  0.00  0.00    +0.208 C 
ATOM      4  C   UNL     1      35.913 -22.960 -15.222  0.00  0.00    +0.189 C 
ATOM      5  C   UNL     1      34.230 -23.418 -16.950  0.00  0.00    +0.071 C 
ATOM      6  C   UNL     1      34.997 -22.816 -17.874  0.00  0.00    +0.054 C 
ATOM      7  C   UNL     1      34.986 -23.828 -13.502  0.00  0.00    +0.182 C 
ATOM      8  C   UNL     1      36.718 -22.324 -16.212  0.00  0.00    +0.048 C 
ATOM      9  C   UNL     1      36.281 -22.253 -17.485  0.00  0.00    +0.008 C 
ATOM     10  N   UNL     1      34.819 -24.207 -12.215  0.00  0.00    -0.335 N 
ATOM     11  H   UNL     1      35.515 -24.006 -11.549  0.00  0.00    +0.144 HD
ATOM     12  H   UNL     1      34.001 -24.683 -11.944  0.00  0.00    +0.144 HD
ENDROOT
BRANCH   3  14
ATOM     13  O   UNL     1      32.620 -25.826 -14.020  0.00  0.00    -0.289 OA
ATOM     14  C   UNL     1      32.828 -24.693 -14.505  0.00  0.00    +0.200 C 
BRANCH  14  15
ATOM     15  C   UNL     1      31.602 -24.036 -15.065  0.00  0.00    +0.037 C 
ATOM     16  C   UNL     1      31.383 -22.712 -14.779  0.00  0.00    +0.003 C 
ATOM     17  C   UNL     1      30.753 -24.791 -15.836  0.00  0.00    +0.003 C 
ATOM     18  C   UNL     1      30.242 -22.102 -15.300  0.00  0.00    +0.000 C 
ATOM     19  C   UNL     1      29.612 -24.180 -16.357  0.00  0.00    +0.000 C 
ATOM     20  C   UNL     1      29.357 -22.835 -16.088  0.00  0.00    +0.000 C 
ENDBRANCH  14  15
ENDBRANCH   3  14
BRANCH   6  22
ATOM     21  O   UNL     1      33.901 -23.686 -19.755  0.00  0.00    -0.286 OA
ATOM     22  C   UNL     1      34.518 -22.745 -19.254  0.00  0.00    +0.201 C 
BRANCH  22  25
ATOM     23  F   UNL     1      32.455 -20.959 -19.901  0.00  0.00    -0.204 F 
ATOM     24  F   UNL     1      37.068 -22.052 -20.196  0.00  0.00    -0.204 F 
ATOM     25  C   UNL     1      34.761 -21.509 -20.046  0.00  0.00    +0.094 C 
ATOM     26  C   UNL     1      33.696 -20.679 -20.326  0.00  0.00    +0.145 C 
ATOM     27  C   UNL     1      36.043 -21.235 -20.475  0.00  0.00    +0.145 C 
ATOM     28  C   UNL     1      33.923 -19.521 -21.069  0.00  0.00    +0.030 C 
ATOM     29  C   UNL     1      36.269 -20.077 -21.218  0.00  0.00    +0.030 C 
ATOM     30  C   UNL     1      35.209 -19.220 -21.515  0.00  0.00    +0.005 C 
ENDBRANCH  22  25
ENDBRANCH   6  22
TORSDOF 4
ENDMDL
MODEL 6
REMARK VINA RESULT:      -9.7      4.320      8.315
REMARK  Name = 5289179
REMARK  4 active torsions:
REMARK  status: ('A' for Active; 'I' for Inactive)
REMARK    1  A    between atoms: C_3  and  C_14
REMARK    2  A    between atoms: C_6  and  C_22
REMARK    3  A    between atoms: C_14  and  C_15
REMARK    4  A    between atoms: C_22  and  C_25
REMARK                            x       y       z     vdW  Elec       q    Type
REMARK                         _______ _______ _______ _____ _____    ______ ____
ROOT
ATOM      1  N   UNL     1      32.603 -12.567 -21.380  0.00  0.00    -0.249 N 
ATOM      2  N   UNL     1      31.883 -12.713 -19.267  0.00  0.00    -0.375 NA
ATOM      3  C   UNL     1      31.849 -11.445 -21.149  0.00  0.00    +0.208 C 
ATOM      4  C   UNL     1      32.595 -13.310 -20.203  0.00  0.00    +0.189 C 
ATOM      5  C   UNL     1      33.276 -12.959 -22.535  0.00  0.00    +0.071 C 
ATOM      6  C   UNL     1      33.959 -14.117 -22.523  0.00  0.00    +0.054 C 
ATOM      7  C   UNL     1      31.419 -11.560 -19.848  0.00  0.00    +0.182 C 
ATOM      8  C   UNL     1      33.322 -14.536 -20.203  0.00  0.00    +0.048 C 
ATOM      9  C   UNL     1      33.978 -14.925 -21.314  0.00  0.00    +0.008 C 
ATOM     10  N   UNL     1      30.642 -10.676 -19.183  0.00  0.00    -0.335 N 
ATOM     11  H   UNL     1      30.389 -10.850 -18.248  0.00  0.00    +0.144 HD
ATOM     12  H   UNL     1      30.330  -9.858 -19.634  0.00  0.00    +0.144 HD
ENDROOT
BRANCH   3  14
ATOM     13  O   UNL     1      30.557 -10.320 -22.794  0.00  0.00    -0.289 OA
ATOM     14  C   UNL     1      31.589 -10.405 -22.094  0.00  0.00    +0.200 C 
BRANCH  14  15
ATOM     15  C   UNL     1      32.565  -9.287 -22.311  0.00  0.00    +0.037 C 
ATOM     16  C   UNL     1      32.672  -8.317 -21.346  0.00  0.00    +0.003 C 
ATOM     17  C   UNL     1      33.306  -9.284 -23.467  0.00  0.00    +0.003 C 
ATOM     18  C   UNL     1      33.580  -7.278 -21.549  0.00  0.00    +0.000 C 
ATOM     19  C   UNL     1      34.214  -8.245 -23.671  0.00  0.00    +0.000 C 
ATOM     20  C   UNL     1      34.351  -7.241 -22.711  0.00  0.00    +0.000 C 
ENDBRANCH  14  15
ENDBRANCH   3  14
BRANCH   6  22
ATOM     21  O   UNL     1      35.612 -15.320 -23.670  0.00  0.00    -0.286 OA
ATOM     22  C   UNL     1      34.665 -14.534 -23.734  0.00  0.00    +0.201 C 
BRANCH  22  25
ATOM     23  F   UNL     1      34.923 -11.834 -24.447  0.00  0.00    -0.204 F 
ATOM     24  F   UNL     1      33.505 -16.200 -25.669  0.00  0.00    -0.204 F 
ATOM     25  C   UNL     1      34.215 -14.019 -25.055  0.00  0.00    +0.094 C 
ATOM     26  C   UNL     1      34.374 -12.677 -25.334  0.00  0.00    +0.145 C 
ATOM     27  C   UNL     1      33.653 -14.899 -25.955  0.00  0.00    +0.145 C 
ATOM     28  C   UNL     1      33.951 -12.194 -26.572  0.00  0.00    +0.030 C 
ATOM     29  C   UNL     1      33.231 -14.415 -27.193  0.00  0.00    +0.030 C 
ATOM     30  C   UNL     1      33.380 -13.062 -27.501  0.00  0.00    +0.005 C 
ENDBRANCH  22  25
ENDBRANCH   6  22
TORSDOF 4
ENDMDL
MODEL 7
REMARK VINA RESULT:      -9.5      3.719      8.622
REMARK  Name = 5289179
REMARK  4 active torsions:
REMARK  status: ('A' for Active; 'I' for Inactive)
REMARK    1  A    between atoms: C_3  and  C_14
REMARK    2  A    between atoms: C_6  and  C_22
REMARK    3  A    between atoms: C_14  and  C_15
REMARK    4  A    between atoms: C_22  and  C_25
REMARK                            x       y       z     vdW  Elec       q    Type
REMARK                         _______ _______ _______ _____ _____    ______ ____
ROOT
ATOM      1  N   UNL     1      32.598 -12.490 -21.532  0.00  0.00    -0.249 N 
ATOM      2  N   UNL     1      31.877 -12.634 -19.420  0.00  0.00    -0.375 NA
ATOM      3  C   UNL     1      31.875 -11.349 -21.290  0.00  0.00    +0.208 C 
ATOM      4  C   UNL     1      32.570 -13.242 -20.361  0.00  0.00    +0.189 C 
ATOM      5  C   UNL     1      33.258 -12.889 -22.692  0.00  0.00    +0.071 C 
ATOM      6  C   UNL     1      33.909 -14.066 -22.691  0.00  0.00    +0.054 C 
ATOM      7  C   UNL     1      31.444 -11.463 -19.989  0.00  0.00    +0.182 C 
ATOM      8  C   UNL     1      33.264 -14.487 -20.373  0.00  0.00    +0.048 C 
ATOM      9  C   UNL     1      33.907 -14.885 -21.488  0.00  0.00    +0.008 C 
ATOM     10  N   UNL     1      30.693 -10.564 -19.316  0.00  0.00    -0.335 N 
ATOM     11  H   UNL     1      30.436 -10.739 -18.382  0.00  0.00    +0.144 HD
ATOM     12  H   UNL     1      30.403  -9.734 -19.759  0.00  0.00    +0.144 HD
ENDROOT
BRANCH   3  14
ATOM     13  O   UNL     1      30.607 -10.165 -22.912  0.00  0.00    -0.289 OA
ATOM     14  C   UNL     1      31.643 -10.293 -22.226  0.00  0.00    +0.200 C 
BRANCH  14  15
ATOM     15  C   UNL     1      32.658  -9.212 -22.449  0.00  0.00    +0.037 C 
ATOM     16  C   UNL     1      33.482  -9.305 -23.542  0.00  0.00    +0.003 C 
ATOM     17  C   UNL     1      32.718  -8.179 -21.546  0.00  0.00    +0.003 C 
ATOM     18  C   UNL     1      34.427  -8.299 -23.748  0.00  0.00    +0.000 C 
ATOM     19  C   UNL     1      33.662  -7.173 -21.752  0.00  0.00    +0.000 C 
ATOM     20  C   UNL     1      34.517  -7.234 -22.854  0.00  0.00    +0.000 C 
ENDBRANCH  14  15
ENDBRANCH   3  14
BRANCH   6  22
ATOM     21  O   UNL     1      35.194 -13.674 -24.612  0.00  0.00    -0.286 OA
ATOM     22  C   UNL     1      34.602 -14.492 -23.906  0.00  0.00    +0.201 C 
BRANCH  22  25
ATOM     23  F   UNL     1      36.066 -16.393 -22.453  0.00  0.00    -0.204 F 
ATOM     24  F   UNL     1      33.153 -15.483 -26.093  0.00  0.00    -0.204 F 
ATOM     25  C   UNL     1      34.609 -15.934 -24.272  0.00  0.00    +0.094 C 
ATOM     26  C   UNL     1      35.354 -16.809 -23.510  0.00  0.00    +0.145 C 
ATOM     27  C   UNL     1      33.872 -16.346 -25.362  0.00  0.00    +0.145 C 
ATOM     28  C   UNL     1      35.361 -18.161 -23.854  0.00  0.00    +0.030 C 
ATOM     29  C   UNL     1      33.880 -17.698 -25.705  0.00  0.00    +0.030 C 
ATOM     30  C   UNL     1      34.624 -18.605 -24.952  0.00  0.00    +0.005 C 
ENDBRANCH  22  25
ENDBRANCH   6  22
TORSDOF 4
ENDMDL
MODEL 8
REMARK VINA RESULT:      -9.4      4.827     10.052
REMARK  Name = 5289179
REMARK  4 active torsions:
REMARK  status: ('A' for Active; 'I' for Inactive)
REMARK    1  A    between atoms: C_3  and  C_14
REMARK    2  A    between atoms: C_6  and  C_22
REMARK    3  A    between atoms: C_14  and  C_15
REMARK    4  A    between atoms: C_22  and  C_25
REMARK                            x       y       z     vdW  Elec       q    Type
REMARK                         _______ _______ _______ _____ _____    ______ ____
ROOT
ATOM      1  N   UNL     1      33.041  -9.714 -22.589  0.00  0.00    -0.249 N 
ATOM      2  N   UNL     1      31.707  -9.442 -20.815  0.00  0.00    -0.375 NA
ATOM      3  C   UNL     1      33.211  -8.419 -22.171  0.00  0.00    +0.208 C 
ATOM      4  C   UNL     1      32.113 -10.298 -21.730  0.00  0.00    +0.189 C 
ATOM      5  C   UNL     1      33.639 -10.387 -23.652  0.00  0.00    +0.071 C 
ATOM      6  C   UNL     1      33.310 -11.672 -23.870  0.00  0.00    +0.054 C 
ATOM      7  C   UNL     1      32.382  -8.278 -21.083  0.00  0.00    +0.182 C 
ATOM      8  C   UNL     1      31.773 -11.661 -21.972  0.00  0.00    +0.048 C 
ATOM      9  C   UNL     1      32.345 -12.323 -22.997  0.00  0.00    +0.008 C 
ATOM     10  N   UNL     1      32.221  -7.160 -20.341  0.00  0.00    -0.335 N 
ATOM     11  H   UNL     1      31.601  -7.161 -19.578  0.00  0.00    +0.144 HD
ATOM     12  H   UNL     1      32.726  -6.344 -20.565  0.00  0.00    +0.144 HD
ENDROOT
BRANCH   3  14
ATOM     13  O   UNL     1      35.321  -7.437 -22.647  0.00  0.00    -0.289 OA
ATOM     14  C   UNL     1      34.078  -7.455 -22.773  0.00  0.00    +0.200 C 
BRANCH  14  15
ATOM     15  C   UNL     1      33.540  -6.362 -23.647  0.00  0.00    +0.037 C 
ATOM     16  C   UNL     1      34.265  -5.992 -24.752  0.00  0.00    +0.003 C 
ATOM     17  C   UNL     1      32.346  -5.778 -23.301  0.00  0.00    +0.003 C 
ATOM     18  C   UNL     1      33.764  -4.975 -25.565  0.00  0.00    +0.000 C 
ATOM     19  C   UNL     1      31.845  -4.761 -24.113  0.00  0.00    +0.000 C 
ATOM     20  C   UNL     1      32.555  -4.359 -25.246  0.00  0.00    +0.000 C 
ENDBRANCH  14  15
ENDBRANCH   3  14
BRANCH   6  22
ATOM     21  O   UNL     1      34.290 -11.777 -25.997  0.00  0.00    -0.286 OA
ATOM     22  C   UNL     1      33.934 -12.383 -24.985  0.00  0.00    +0.201 C 
BRANCH  22  25
ATOM     23  F   UNL     1      33.066 -14.171 -26.964  0.00  0.00    -0.204 F 
ATOM     24  F   UNL     1      35.253 -13.536 -22.795  0.00  0.00    -0.204 F 
ATOM     25  C   UNL     1      34.159 -13.850 -24.879  0.00  0.00    +0.094 C 
ATOM     26  C   UNL     1      33.703 -14.667 -25.893  0.00  0.00    +0.145 C 
ATOM     27  C   UNL     1      34.815 -14.343 -23.772  0.00  0.00    +0.145 C 
ATOM     28  C   UNL     1      33.914 -16.042 -25.793  0.00  0.00    +0.030 C 
ATOM     29  C   UNL     1      35.025 -15.718 -23.673  0.00  0.00    +0.030 C 
ATOM     30  C   UNL     1      34.575 -16.568 -24.683  0.00  0.00    +0.005 C 
ENDBRANCH  22  25
ENDBRANCH   6  22
TORSDOF 4
ENDMDL
MODEL 9
REMARK VINA RESULT:      -9.4      5.412     10.580
REMARK  Name = 5289179
REMARK  4 active torsions:
REMARK  status: ('A' for Active; 'I' for Inactive)
REMARK    1  A    between atoms: C_3  and  C_14
REMARK    2  A    between atoms: C_6  and  C_22
REMARK    3  A    between atoms: C_14  and  C_15
REMARK    4  A    between atoms: C_22  and  C_25
REMARK                            x       y       z     vdW  Elec       q    Type
REMARK                         _______ _______ _______ _____ _____    ______ ____
ROOT
ATOM      1  N   UNL     1      32.221  -8.592 -21.670  0.00  0.00    -0.249 N 
ATOM      2  N   UNL     1      32.638  -7.096 -20.060  0.00  0.00    -0.375 NA
ATOM      3  C   UNL     1      32.221  -7.361 -22.275  0.00  0.00    +0.208 C 
ATOM      4  C   UNL     1      32.481  -8.379 -20.319  0.00  0.00    +0.189 C 
ATOM      5  C   UNL     1      32.012  -9.852 -22.228  0.00  0.00    +0.071 C 
ATOM      6  C   UNL     1      32.061 -10.928 -21.425  0.00  0.00    +0.054 C 
ATOM      7  C   UNL     1      32.478  -6.462 -21.266  0.00  0.00    +0.182 C 
ATOM      8  C   UNL     1      32.530  -9.529 -19.478  0.00  0.00    +0.048 C 
ATOM      9  C   UNL     1      32.330 -10.753 -20.005  0.00  0.00    +0.008 C 
ATOM     10  N   UNL     1      32.572  -5.120 -21.397  0.00  0.00    -0.335 N 
ATOM     11  H   UNL     1      32.762  -4.561 -20.610  0.00  0.00    +0.144 HD
ATOM     12  H   UNL     1      32.453  -4.703 -22.281  0.00  0.00    +0.144 HD
ENDROOT
BRANCH   3  14
ATOM     13  O   UNL     1      30.970  -7.463 -24.291  0.00  0.00    -0.289 OA
ATOM     14  C   UNL     1      31.992  -7.113 -23.665  0.00  0.00    +0.200 C 
BRANCH  14  15
ATOM     15  C   UNL     1      32.994  -6.373 -24.499  0.00  0.00    +0.037 C 
ATOM     16  C   UNL     1      34.316  -6.729 -24.401  0.00  0.00    +0.003 C 
ATOM     17  C   UNL     1      32.544  -5.370 -25.321  0.00  0.00    +0.003 C 
ATOM     18  C   UNL     1      35.248  -6.039 -25.178  0.00  0.00    +0.000 C 
ATOM     19  C   UNL     1      33.475  -4.680 -26.098  0.00  0.00    +0.000 C 
ATOM     20  C   UNL     1      34.828  -5.016 -26.025  0.00  0.00    +0.000 C 
ENDBRANCH  14  15
ENDBRANCH   3  14
BRANCH   6  22
ATOM     21  O   UNL     1      30.770 -12.532 -22.545  0.00  0.00    -0.286 OA
ATOM     22  C   UNL     1      31.841 -12.253 -22.003  0.00  0.00    +0.201 C 
BRANCH  22  25
ATOM     23  F   UNL     1      32.261 -13.890 -19.765  0.00  0.00    -0.204 F 
ATOM     24  F   UNL     1      33.613 -12.638 -24.143  0.00  0.00    -0.204 F 
ATOM     25  C   UNL     1      32.934 -13.261 -21.954  0.00  0.00    +0.094 C 
ATOM     26  C   UNL     1      33.079 -14.029 -20.818  0.00  0.00    +0.145 C 
ATOM     27  C   UNL     1      33.766 -13.392 -23.046  0.00  0.00    +0.145 C 
ATOM     28  C   UNL     1      34.105 -14.973 -20.772  0.00  0.00    +0.030 C 
ATOM     29  C   UNL     1      34.791 -14.337 -22.998  0.00  0.00    +0.030 C 
ATOM     30  C   UNL     1      34.961 -15.127 -21.862  0.00  0.00    +0.005 C 
ENDBRANCH  22  25
ENDBRANCH   6  22
TORSDOF 4
ENDMDL
