MODEL 1
REMARK VINA RESULT:     -12.4      0.000      0.000
REMARK  Name = 59473233
REMARK  3 active torsions:
REMARK  status: ('A' for Active; 'I' for Inactive)
REMARK    1  A    between atoms: N_1  and  C_25
REMARK    2  A    between atoms: C_7  and  C_14
REMARK    3  A    between atoms: C_22  and  N_29
REMARK                            x       y       z     vdW  Elec       q    Type
REMARK                         _______ _______ _______ _____ _____    ______ ____
ROOT
ATOM      1  N   UNL     1      37.069 -23.008 -16.099  0.00  0.00    -0.286 N 
ATOM      2  N   UNL     1      35.532 -23.851 -12.839  0.00  0.00    -0.260 N 
ATOM      3  N   UNL     1      34.872 -23.542 -15.510  0.00  0.00    -0.387 NA
ATOM      4  N   UNL     1      37.676 -23.368 -13.220  0.00  0.00    -0.224 NA
ATOM      5  C   UNL     1      36.128 -23.352 -15.156  0.00  0.00    +0.216 C 
ATOM      6  C   UNL     1      36.488 -23.514 -13.761  0.00  0.00    +0.180 C 
ATOM      7  C   UNL     1      33.926 -23.893 -14.546  0.00  0.00    +0.131 C 
ATOM      8  C   UNL     1      34.225 -24.043 -13.236  0.00  0.00    +0.156 C 
ATOM      9  C   UNL     1      36.152 -23.927 -11.623  0.00  0.00    +0.088 C 
ATOM     10  C   UNL     1      37.472 -23.625 -11.885  0.00  0.00    +0.117 C 
ATOM     11  H   UNL     1      37.992 -23.307 -15.931  0.00  0.00    +0.155 HD
ENDROOT
BRANCH   7  14
ATOM     12  N   UNL     1      29.880 -22.770 -17.252  0.00  0.00    -0.236 N 
ATOM     13  N   UNL     1      28.646 -23.288 -17.368  0.00  0.00    -0.180 NA
ATOM     14  C   UNL     1      32.532 -24.079 -15.005  0.00  0.00    +0.028 C 
ATOM     15  C   UNL     1      30.683 -23.425 -16.357  0.00  0.00    +0.067 C 
ATOM     16  C   UNL     1      32.002 -23.204 -15.959  0.00  0.00    +0.018 C 
ATOM     17  C   UNL     1      29.901 -24.457 -15.851  0.00  0.00    +0.035 C 
ATOM     18  C   UNL     1      31.768 -25.123 -14.479  0.00  0.00    +0.002 C 
ATOM     19  C   UNL     1      30.446 -25.328 -14.893  0.00  0.00    +0.003 C 
ATOM     20  C   UNL     1      28.662 -24.314 -16.514  0.00  0.00    +0.119 C 
ATOM     21  H   UNL     1      30.180 -21.986 -17.766  0.00  0.00    +0.174 HD
ENDBRANCH   7  14
BRANCH   1  25
ATOM     22  C   UNL     1      36.415 -20.827 -19.606  0.00  0.00    +0.048 C 
ATOM     23  C   UNL     1      37.452 -20.468 -18.744  0.00  0.00    +0.016 C 
ATOM     24  C   UNL     1      35.596 -21.913 -19.297  0.00  0.00    +0.016 C 
ATOM     25  C   UNL     1      36.850 -22.281 -17.265  0.00  0.00    +0.050 C 
ATOM     26  C   UNL     1      37.669 -21.195 -17.573  0.00  0.00    +0.016 C 
ATOM     27  C   UNL     1      35.813 -22.640 -18.127  0.00  0.00    +0.016 C 
BRANCH  22  29
ATOM     28  O   UNL     1      35.713 -18.410 -22.974  0.00  0.00    -0.350 OA
ATOM     29  N   UNL     1      36.197 -20.098 -20.780  0.00  0.00    -0.303 N 
ATOM     30  C   UNL     1      37.147 -19.030 -21.118  0.00  0.00    +0.123 C 
ATOM     31  C   UNL     1      34.830 -19.898 -21.274  0.00  0.00    +0.123 C 
ATOM     32  C   UNL     1      37.059 -18.716 -22.607  0.00  0.00    +0.164 C 
ATOM     33  C   UNL     1      34.865 -19.536 -22.754  0.00  0.00    +0.164 C 
ENDBRANCH  22  29
ENDBRANCH   1  25
TORSDOF 3
ENDMDL
MODEL 2
REMARK VINA RESULT:     -11.9      6.236     11.575
REMARK  Name = 59473233
REMARK  3 active torsions:
REMARK  status: ('A' for Active; 'I' for Inactive)
REMARK    1  A    between atoms: N_1  and  C_25
REMARK    2  A    between atoms: C_7  and  C_14
REMARK    3  A    between atoms: C_22  and  N_29
REMARK                            x       y       z     vdW  Elec       q    Type
REMARK                         _______ _______ _______ _____ _____    ______ ____
ROOT
ATOM      1  N   UNL     1      35.334 -16.519 -24.462  0.00  0.00    -0.286 N 
ATOM      2  N   UNL     1      33.390 -13.650 -25.763  0.00  0.00    -0.260 N 
ATOM      3  N   UNL     1      34.112 -14.851 -23.375  0.00  0.00    -0.387 NA
ATOM      4  N   UNL     1      34.513 -15.157 -26.963  0.00  0.00    -0.224 NA
ATOM      5  C   UNL     1      34.548 -15.391 -24.496  0.00  0.00    +0.216 C 
ATOM      6  C   UNL     1      34.180 -14.770 -25.754  0.00  0.00    +0.180 C 
ATOM      7  C   UNL     1      33.316 -13.706 -23.420  0.00  0.00    +0.131 C 
ATOM      8  C   UNL     1      32.947 -13.107 -24.574  0.00  0.00    +0.156 C 
ATOM      9  C   UNL     1      33.206 -13.296 -27.070  0.00  0.00    +0.088 C 
ATOM     10  C   UNL     1      33.908 -14.240 -27.790  0.00  0.00    +0.117 C 
ATOM     11  H   UNL     1      35.984 -16.626 -25.194  0.00  0.00    +0.155 HD
ENDROOT
BRANCH   7  14
ATOM     12  N   UNL     1      31.560 -10.126 -20.411  0.00  0.00    -0.236 N 
ATOM     13  N   UNL     1      31.231 -10.062 -19.110  0.00  0.00    -0.180 NA
ATOM     14  C   UNL     1      32.849 -13.157 -22.128  0.00  0.00    +0.028 C 
ATOM     15  C   UNL     1      32.013 -11.353 -20.815  0.00  0.00    +0.067 C 
ATOM     16  C   UNL     1      32.445 -11.820 -22.058  0.00  0.00    +0.018 C 
ATOM     17  C   UNL     1      31.973 -12.151 -19.678  0.00  0.00    +0.035 C 
ATOM     18  C   UNL     1      32.820 -13.980 -21.001  0.00  0.00    +0.002 C 
ATOM     19  C   UNL     1      32.383 -13.493 -19.763  0.00  0.00    +0.003 C 
ATOM     20  C   UNL     1      31.484 -11.295 -18.667  0.00  0.00    +0.119 C 
ATOM     21  H   UNL     1      31.483  -9.357 -21.020  0.00  0.00    +0.174 HD
ENDBRANCH   7  14
BRANCH   1  25
ATOM     22  C   UNL     1      35.244 -19.538 -21.571  0.00  0.00    +0.048 C 
ATOM     23  C   UNL     1      35.683 -18.259 -21.230  0.00  0.00    +0.016 C 
ATOM     24  C   UNL     1      34.836 -19.810 -22.876  0.00  0.00    +0.016 C 
ATOM     25  C   UNL     1      35.306 -17.524 -23.500  0.00  0.00    +0.050 C 
ATOM     26  C   UNL     1      35.714 -17.251 -22.195  0.00  0.00    +0.016 C 
ATOM     27  C   UNL     1      34.867 -18.804 -23.841  0.00  0.00    +0.016 C 
BRANCH  22  29
ATOM     28  O   UNL     1      35.230 -22.753 -18.861  0.00  0.00    -0.350 OA
ATOM     29  N   UNL     1      35.214 -20.548 -20.603  0.00  0.00    -0.303 N 
ATOM     30  C   UNL     1      36.480 -21.196 -20.237  0.00  0.00    +0.123 C 
ATOM     31  C   UNL     1      34.018 -21.386 -20.458  0.00  0.00    +0.123 C 
ATOM     32  C   UNL     1      36.343 -21.860 -18.872  0.00  0.00    +0.164 C 
ATOM     33  C   UNL     1      34.013 -22.041 -19.081  0.00  0.00    +0.164 C 
ENDBRANCH  22  29
ENDBRANCH   1  25
TORSDOF 3
ENDMDL
MODEL 3
REMARK VINA RESULT:     -11.4      1.015      1.602
REMARK  Name = 59473233
REMARK  3 active torsions:
REMARK  status: ('A' for Active; 'I' for Inactive)
REMARK    1  A    between atoms: N_1  and  C_25
REMARK    2  A    between atoms: C_7  and  C_14
REMARK    3  A    between atoms: C_22  and  N_29
REMARK                            x       y       z     vdW  Elec       q    Type
REMARK                         _______ _______ _______ _____ _____    ______ ____
ROOT
ATOM      1  N   UNL     1      37.362 -22.880 -16.272  0.00  0.00    -0.286 N 
ATOM      2  N   UNL     1      35.946 -23.718 -12.957  0.00  0.00    -0.260 N 
ATOM      3  N   UNL     1      35.186 -23.401 -15.600  0.00  0.00    -0.387 NA
ATOM      4  N   UNL     1      38.076 -23.248 -13.419  0.00  0.00    -0.224 NA
ATOM      5  C   UNL     1      36.456 -23.220 -15.294  0.00  0.00    +0.216 C 
ATOM      6  C   UNL     1      36.868 -23.385 -13.914  0.00  0.00    +0.180 C 
ATOM      7  C   UNL     1      34.276 -23.747 -14.601  0.00  0.00    +0.131 C 
ATOM      8  C   UNL     1      34.623 -23.901 -13.304  0.00  0.00    +0.156 C 
ATOM      9  C   UNL     1      36.611 -23.799 -11.766  0.00  0.00    +0.088 C 
ATOM     10  C   UNL     1      37.922 -23.506 -12.077  0.00  0.00    +0.117 C 
ATOM     11  H   UNL     1      38.289 -23.185 -16.139  0.00  0.00    +0.155 HD
ENDROOT
BRANCH   7  14
ATOM     12  N   UNL     1      29.722 -25.782 -14.318  0.00  0.00    -0.236 N 
ATOM     13  N   UNL     1      28.569 -25.616 -14.987  0.00  0.00    -0.180 NA
ATOM     14  C   UNL     1      32.864 -23.924 -15.008  0.00  0.00    +0.028 C 
ATOM     15  C   UNL     1      30.745 -24.983 -14.755  0.00  0.00    +0.067 C 
ATOM     16  C   UNL     1      32.069 -24.856 -14.332  0.00  0.00    +0.018 C 
ATOM     17  C   UNL     1      30.206 -24.235 -15.796  0.00  0.00    +0.035 C 
ATOM     18  C   UNL     1      32.348 -23.161 -16.057  0.00  0.00    +0.002 C 
ATOM     19  C   UNL     1      31.017 -23.304 -16.466  0.00  0.00    +0.003 C 
ATOM     20  C   UNL     1      28.867 -24.675 -15.886  0.00  0.00    +0.119 C 
ATOM     21  H   UNL     1      29.823 -26.423 -13.578  0.00  0.00    +0.174 HD
ENDBRANCH   7  14
BRANCH   1  25
ATOM     22  C   UNL     1      36.584 -20.683 -19.744  0.00  0.00    +0.048 C 
ATOM     23  C   UNL     1      35.858 -21.844 -19.475  0.00  0.00    +0.016 C 
ATOM     24  C   UNL     1      37.569 -20.256 -18.854  0.00  0.00    +0.016 C 
ATOM     25  C   UNL     1      37.104 -22.150 -17.428  0.00  0.00    +0.050 C 
ATOM     26  C   UNL     1      36.118 -22.578 -18.317  0.00  0.00    +0.016 C 
ATOM     27  C   UNL     1      37.830 -20.989 -17.697  0.00  0.00    +0.016 C 
BRANCH  22  29
ATOM     28  O   UNL     1      35.748 -18.253 -23.071  0.00  0.00    -0.350 OA
ATOM     29  N   UNL     1      36.323 -19.948 -20.905  0.00  0.00    -0.303 N 
ATOM     30  C   UNL     1      37.231 -18.846 -21.247  0.00  0.00    +0.123 C 
ATOM     31  C   UNL     1      34.941 -19.788 -21.374  0.00  0.00    +0.123 C 
ATOM     32  C   UNL     1      37.108 -18.518 -22.730  0.00  0.00    +0.164 C 
ATOM     33  C   UNL     1      34.940 -19.408 -22.850  0.00  0.00    +0.164 C 
ENDBRANCH  22  29
ENDBRANCH   1  25
TORSDOF 3
ENDMDL
MODEL 4
REMARK VINA RESULT:     -10.1      2.544      7.121
REMARK  Name = 59473233
REMARK  3 active torsions:
REMARK  status: ('A' for Active; 'I' for Inactive)
REMARK    1  A    between atoms: N_1  and  C_25
REMARK    2  A    between atoms: C_7  and  C_14
REMARK    3  A    between atoms: C_22  and  N_29
REMARK                            x       y       z     vdW  Elec       q    Type
REMARK                         _______ _______ _______ _____ _____    ______ ____
ROOT
ATOM      1  N   UNL     1      34.081 -24.076 -13.486  0.00  0.00    -0.286 N 
ATOM      2  N   UNL     1      37.617 -24.813 -14.293  0.00  0.00    -0.260 N 
ATOM      3  N   UNL     1      35.507 -23.230 -15.132  0.00  0.00    -0.387 NA
ATOM      4  N   UNL     1      36.402 -25.724 -12.660  0.00  0.00    -0.224 NA
ATOM      5  C   UNL     1      35.308 -24.035 -14.106  0.00  0.00    +0.216 C 
ATOM      6  C   UNL     1      36.406 -24.867 -13.655  0.00  0.00    +0.180 C 
ATOM      7  C   UNL     1      36.755 -23.195 -15.754  0.00  0.00    +0.131 C 
ATOM      8  C   UNL     1      37.798 -23.963 -15.364  0.00  0.00    +0.156 C 
ATOM      9  C   UNL     1      38.446 -25.698 -13.662  0.00  0.00    +0.088 C 
ATOM     10  C   UNL     1      37.674 -26.246 -12.659  0.00  0.00    +0.117 C 
ATOM     11  H   UNL     1      34.079 -24.296 -12.526  0.00  0.00    +0.155 HD
ENDROOT
BRANCH   7  14
ATOM     12  N   UNL     1      35.602 -21.393 -20.268  0.00  0.00    -0.236 N 
ATOM     13  N   UNL     1      36.079 -20.403 -21.040  0.00  0.00    -0.180 NA
ATOM     14  C   UNL     1      36.910 -22.281 -16.907  0.00  0.00    +0.028 C 
ATOM     15  C   UNL     1      36.248 -21.530 -19.068  0.00  0.00    +0.067 C 
ATOM     16  C   UNL     1      36.059 -22.418 -18.008  0.00  0.00    +0.018 C 
ATOM     17  C   UNL     1      37.226 -20.541 -19.065  0.00  0.00    +0.035 C 
ATOM     18  C   UNL     1      37.902 -21.298 -16.877  0.00  0.00    +0.002 C 
ATOM     19  C   UNL     1      38.074 -20.416 -17.951  0.00  0.00    +0.003 C 
ATOM     20  C   UNL     1      37.066 -19.887 -20.306  0.00  0.00    +0.119 C 
ATOM     21  H   UNL     1      34.854 -21.971 -20.541  0.00  0.00    +0.174 HD
ENDBRANCH   7  14
BRANCH   1  25
ATOM     22  C   UNL     1      30.360 -23.356 -15.252  0.00  0.00    +0.048 C 
ATOM     23  C   UNL     1      30.454 -24.195 -14.141  0.00  0.00    +0.016 C 
ATOM     24  C   UNL     1      31.507 -22.759 -15.773  0.00  0.00    +0.016 C 
ATOM     25  C   UNL     1      32.843 -23.838 -14.074  0.00  0.00    +0.050 C 
ATOM     26  C   UNL     1      31.696 -24.436 -13.552  0.00  0.00    +0.016 C 
ATOM     27  C   UNL     1      32.748 -22.999 -15.186  0.00  0.00    +0.016 C 
BRANCH  22  29
ATOM     28  O   UNL     1      26.728 -22.406 -17.144  0.00  0.00    -0.350 OA
ATOM     29  N   UNL     1      29.115 -23.116 -15.841  0.00  0.00    -0.303 N 
ATOM     30  C   UNL     1      29.011 -23.207 -17.304  0.00  0.00    +0.123 C 
ATOM     31  C   UNL     1      28.170 -22.191 -15.205  0.00  0.00    +0.123 C 
ATOM     32  C   UNL     1      27.556 -23.424 -17.704  0.00  0.00    +0.164 C 
ATOM     33  C   UNL     1      26.760 -22.461 -15.718  0.00  0.00    +0.164 C 
ENDBRANCH  22  29
ENDBRANCH   1  25
TORSDOF 3
ENDMDL
MODEL 5
REMARK VINA RESULT:      -9.9     12.035     15.698
REMARK  Name = 59473233
REMARK  3 active torsions:
REMARK  status: ('A' for Active; 'I' for Inactive)
REMARK    1  A    between atoms: N_1  and  C_25
REMARK    2  A    between atoms: C_7  and  C_14
REMARK    3  A    between atoms: C_22  and  N_29
REMARK                            x       y       z     vdW  Elec       q    Type
REMARK                         _______ _______ _______ _____ _____    ______ ____
ROOT
ATOM      1  N   UNL     1      32.981  -8.187 -21.008  0.00  0.00    -0.286 N 
ATOM      2  N   UNL     1      32.134 -11.708 -20.248  0.00  0.00    -0.260 N 
ATOM      3  N   UNL     1      33.098 -10.126 -22.305  0.00  0.00    -0.387 NA
ATOM      4  N   UNL     1      31.962  -9.965 -18.868  0.00  0.00    -0.224 NA
ATOM      5  C   UNL     1      32.807  -9.543 -21.159  0.00  0.00    +0.216 C 
ATOM      6  C   UNL     1      32.304 -10.360 -20.072  0.00  0.00    +0.180 C 
ATOM      7  C   UNL     1      32.920 -11.502 -22.447  0.00  0.00    +0.131 C 
ATOM      8  C   UNL     1      32.446 -12.293 -21.459  0.00  0.00    +0.156 C 
ATOM      9  C   UNL     1      31.649 -12.211 -19.074  0.00  0.00    +0.088 C 
ATOM     10  C   UNL     1      31.551 -11.118 -18.239  0.00  0.00    +0.117 C 
ATOM     11  H   UNL     1      33.197  -7.867 -20.102  0.00  0.00    +0.155 HD
ENDROOT
BRANCH   7  14
ATOM     12  N   UNL     1      33.260 -15.223 -25.763  0.00  0.00    -0.236 N 
ATOM     13  N   UNL     1      33.687 -15.322 -27.033  0.00  0.00    -0.180 NA
ATOM     14  C   UNL     1      33.253 -12.094 -23.762  0.00  0.00    +0.028 C 
ATOM     15  C   UNL     1      33.356 -13.964 -25.235  0.00  0.00    +0.067 C 
ATOM     16  C   UNL     1      33.024 -13.457 -23.977  0.00  0.00    +0.018 C 
ATOM     17  C   UNL     1      33.891 -13.180 -26.251  0.00  0.00    +0.035 C 
ATOM     18  C   UNL     1      33.791 -11.285 -24.764  0.00  0.00    +0.002 C 
ATOM     19  C   UNL     1      34.117 -11.813 -26.020  0.00  0.00    +0.003 C 
ATOM     20  C   UNL     1      34.071 -14.078 -27.326  0.00  0.00    +0.119 C 
ATOM     21  H   UNL     1      32.909 -15.991 -25.257  0.00  0.00    +0.174 HD
ENDBRANCH   7  14
BRANCH   1  25
ATOM     22  C   UNL     1      32.689  -5.277 -23.998  0.00  0.00    +0.048 C 
ATOM     23  C   UNL     1      31.614  -5.504 -23.137  0.00  0.00    +0.016 C 
ATOM     24  C   UNL     1      33.860  -6.022 -23.861  0.00  0.00    +0.016 C 
ATOM     25  C   UNL     1      32.883  -7.219 -22.005  0.00  0.00    +0.050 C 
ATOM     26  C   UNL     1      31.711  -6.476 -22.140  0.00  0.00    +0.016 C 
ATOM     27  C   UNL     1      33.958  -6.993 -22.865  0.00  0.00    +0.016 C 
BRANCH  22  29
ATOM     28  O   UNL     1      32.631  -2.240 -26.904  0.00  0.00    -0.350 OA
ATOM     29  N   UNL     1      32.591  -4.304 -24.997  0.00  0.00    -0.303 N 
ATOM     30  C   UNL     1      33.615  -4.285 -26.050  0.00  0.00    +0.123 C 
ATOM     31  C   UNL     1      31.982  -3.003 -24.695  0.00  0.00    +0.123 C 
ATOM     32  C   UNL     1      33.085  -3.543 -27.271  0.00  0.00    +0.164 C 
ATOM     33  C   UNL     1      31.541  -2.328 -25.988  0.00  0.00    +0.164 C 
ENDBRANCH  22  29
ENDBRANCH   1  25
TORSDOF 3
ENDMDL
MODEL 6
REMARK VINA RESULT:      -9.5      2.580      7.162
REMARK  Name = 59473233
REMARK  3 active torsions:
REMARK  status: ('A' for Active; 'I' for Inactive)
REMARK    1  A    between atoms: N_1  and  C_25
REMARK    2  A    between atoms: C_7  and  C_14
REMARK    3  A    between atoms: C_22  and  N_29
REMARK                            x       y       z     vdW  Elec       q    Type
REMARK                         _______ _______ _______ _____ _____    ______ ____
ROOT
ATOM      1  N   UNL     1      34.647 -23.897 -14.054  0.00  0.00    -0.286 N 
ATOM      2  N   UNL     1      38.173 -24.368 -15.076  0.00  0.00    -0.260 N 
ATOM      3  N   UNL     1      35.931 -22.877 -15.718  0.00  0.00    -0.387 NA
ATOM      4  N   UNL     1      37.102 -25.440 -13.440  0.00  0.00    -0.224 NA
ATOM      5  C   UNL     1      35.835 -23.746 -14.731  0.00  0.00    +0.216 C 
ATOM      6  C   UNL     1      37.002 -24.532 -14.383  0.00  0.00    +0.180 C 
ATOM      7  C   UNL     1      37.140 -22.730 -16.398  0.00  0.00    +0.131 C 
ATOM      8  C   UNL     1      38.246 -23.452 -16.105  0.00  0.00    +0.156 C 
ATOM      9  C   UNL     1      39.085 -25.232 -14.539  0.00  0.00    +0.088 C 
ATOM     10  C   UNL     1      38.402 -25.881 -13.532  0.00  0.00    +0.117 C 
ATOM     11  H   UNL     1      34.709 -24.168 -13.109  0.00  0.00    +0.155 HD
ENDROOT
BRANCH   7  14
ATOM     12  N   UNL     1      35.783 -20.873 -20.832  0.00  0.00    -0.236 N 
ATOM     13  N   UNL     1      36.129 -19.791 -21.550  0.00  0.00    -0.180 NA
ATOM     14  C   UNL     1      37.179 -21.747 -17.503  0.00  0.00    +0.028 C 
ATOM     15  C   UNL     1      36.435 -20.983 -19.633  0.00  0.00    +0.067 C 
ATOM     16  C   UNL     1      36.360 -21.941 -18.620  0.00  0.00    +0.018 C 
ATOM     17  C   UNL     1      37.273 -19.876 -19.569  0.00  0.00    +0.035 C 
ATOM     18  C   UNL     1      38.031 -20.645 -17.414  0.00  0.00    +0.002 C 
ATOM     19  C   UNL     1      38.091 -19.695 -18.441  0.00  0.00    +0.003 C 
ATOM     20  C   UNL     1      37.035 -19.187 -20.779  0.00  0.00    +0.119 C 
ATOM     21  H   UNL     1      35.120 -21.531 -21.143  0.00  0.00    +0.174 HD
ENDBRANCH   7  14
BRANCH   1  25
ATOM     22  C   UNL     1      30.800 -23.327 -15.591  0.00  0.00    +0.048 C 
ATOM     23  C   UNL     1      31.879 -23.503 -16.458  0.00  0.00    +0.016 C 
ATOM     24  C   UNL     1      31.006 -23.340 -14.211  0.00  0.00    +0.016 C 
ATOM     25  C   UNL     1      33.367 -23.705 -14.566  0.00  0.00    +0.050 C 
ATOM     26  C   UNL     1      33.163 -23.692 -15.945  0.00  0.00    +0.016 C 
ATOM     27  C   UNL     1      32.288 -23.529 -13.698  0.00  0.00    +0.016 C 
BRANCH  22  29
ATOM     28  O   UNL     1      26.849 -22.971 -16.982  0.00  0.00    -0.350 OA
ATOM     29  N   UNL     1      29.514 -23.136 -16.105  0.00  0.00    -0.303 N 
ATOM     30  C   UNL     1      28.453 -22.714 -15.181  0.00  0.00    +0.123 C 
ATOM     31  C   UNL     1      29.061 -23.927 -17.256  0.00  0.00    +0.123 C 
ATOM     32  C   UNL     1      27.309 -22.081 -15.965  0.00  0.00    +0.164 C 
ATOM     33  C   UNL     1      27.884 -23.230 -17.928  0.00  0.00    +0.164 C 
ENDBRANCH  22  29
ENDBRANCH   1  25
TORSDOF 3
ENDMDL
