MODEL 1
REMARK VINA RESULT:     -11.5      0.000      0.000
REMARK  Name = 23650961
REMARK  5 active torsions:
REMARK  status: ('A' for Active; 'I' for Inactive)
REMARK    1  A    between atoms: N_1  and  C_23
REMARK    2  A    between atoms: C_5  and  C_12
REMARK    3  A    between atoms: C_23  and  C_24
REMARK    4  A    between atoms: C_24  and  C_25
REMARK    5  A    between atoms: C_25  and  C_27
REMARK                            x       y       z     vdW  Elec       q    Type
REMARK                         _______ _______ _______ _____ _____    ______ ____
ROOT
ATOM      1  N   UNL     1      34.902 -18.349 -25.317  0.00  0.00    -0.268 N 
ATOM      2  N   UNL     1      34.002 -16.277 -25.954  0.00  0.00    -0.342 NA
ATOM      3  N   UNL     1      35.128 -16.540 -23.840  0.00  0.00    -0.170 NA
ATOM      4  C   UNL     1      34.671 -17.013 -25.028  0.00  0.00    +0.144 C 
ATOM      5  C   UNL     1      34.215 -14.401 -24.461  0.00  0.00    +0.061 C 
ATOM      6  C   UNL     1      33.793 -14.982 -25.640  0.00  0.00    +0.123 C 
ATOM      7  C   UNL     1      34.884 -15.236 -23.590  0.00  0.00    +0.113 C 
ATOM      8  C   UNL     1      33.057 -14.184 -26.667  0.00  0.00    +0.067 C 
ATOM      9  H   UNL     1      34.575 -18.701 -26.176  0.00  0.00    +0.159 HD
ENDROOT
BRANCH   5  12
ATOM     10  N   UNL     1      34.783 -12.015 -24.618  0.00  0.00    -0.314 N 
ATOM     11  N   UNL     1      33.025 -12.550 -23.369  0.00  0.00    -0.315 N 
ATOM     12  C   UNL     1      33.986 -13.018 -24.136  0.00  0.00    +0.171 C 
ATOM     13  C   UNL     1      34.306 -10.826 -24.130  0.00  0.00    +0.059 C 
ATOM     14  C   UNL     1      33.208 -11.186 -23.354  0.00  0.00    +0.055 C 
ATOM     15  C   UNL     1      32.475 -10.183 -22.697  0.00  0.00    -0.008 C 
ATOM     16  C   UNL     1      34.727  -9.506 -24.297  0.00  0.00    +0.011 C 
ATOM     17  C   UNL     1      33.987  -8.520 -23.636  0.00  0.00    -0.021 C 
ATOM     18  C   UNL     1      32.881  -8.850 -22.850  0.00  0.00    -0.007 C 
ATOM     19  C   UNL     1      31.286 -10.485 -21.845  0.00  0.00    +0.032 C 
ATOM     20  C   UNL     1      34.387  -7.088 -23.776  0.00  0.00    +0.031 C 
ATOM     21  H   UNL     1      35.561 -12.128 -25.210  0.00  0.00    +0.149 HD
ATOM     22  H   UNL     1      32.324 -13.064 -22.905  0.00  0.00    +0.149 HD
ENDBRANCH   5  12
BRANCH   1  23
ATOM     23  C   UNL     1      35.597 -19.251 -24.431  0.00  0.00    +0.098 C 
BRANCH  23  24
ATOM     24  C   UNL     1      34.891 -19.336 -23.081  0.00  0.00    +0.022 C 
BRANCH  24  25
ATOM     25  C   UNL     1      35.874 -19.366 -21.909  0.00  0.00    +0.002 C 
BRANCH  25  27
ATOM     26  N   UNL     1      34.120 -22.460 -19.457  0.00  0.00    +0.385 N 
ATOM     27  C   UNL     1      35.263 -20.061 -20.694  0.00  0.00    -0.004 C 
ATOM     28  C   UNL     1      36.125 -21.246 -20.248  0.00  0.00    -0.023 C 
ATOM     29  C   UNL     1      33.839 -20.539 -20.991  0.00  0.00    -0.023 C 
ATOM     30  C   UNL     1      35.470 -22.008 -19.095  0.00  0.00    -0.077 C 
ATOM     31  C   UNL     1      33.259 -21.324 -19.813  0.00  0.00    -0.077 C 
ATOM     32  C   UNL     1      33.526 -23.230 -18.365  0.00  0.00    -0.101 C 
ATOM     33  H   UNL     1      34.200 -23.063 -20.277  0.00  0.00    -0.080 HD
ENDBRANCH  25  27
ENDBRANCH  24  25
ENDBRANCH  23  24
ENDBRANCH   1  23
TORSDOF 5
ENDMDL
MODEL 2
REMARK VINA RESULT:     -11.5      3.999     12.607
REMARK  Name = 23650961
REMARK  5 active torsions:
REMARK  status: ('A' for Active; 'I' for Inactive)
REMARK    1  A    between atoms: N_1  and  C_23
REMARK    2  A    between atoms: C_5  and  C_12
REMARK    3  A    between atoms: C_23  and  C_24
REMARK    4  A    between atoms: C_24  and  C_25
REMARK    5  A    between atoms: C_25  and  C_27
REMARK                            x       y       z     vdW  Elec       q    Type
REMARK                         _______ _______ _______ _____ _____    ______ ____
ROOT
ATOM      1  N   UNL     1      35.410 -20.560 -20.975  0.00  0.00    -0.268 N 
ATOM      2  N   UNL     1      34.666 -22.022 -19.297  0.00  0.00    -0.342 NA
ATOM      3  N   UNL     1      36.800 -20.917 -19.119  0.00  0.00    -0.170 NA
ATOM      4  C   UNL     1      35.632 -21.186 -19.758  0.00  0.00    +0.144 C 
ATOM      5  C   UNL     1      36.068 -22.412 -17.379  0.00  0.00    +0.061 C 
ATOM      6  C   UNL     1      34.915 -22.615 -18.111  0.00  0.00    +0.123 C 
ATOM      7  C   UNL     1      36.984 -21.544 -17.938  0.00  0.00    +0.113 C 
ATOM      8  C   UNL     1      33.845 -23.532 -17.614  0.00  0.00    +0.067 C 
ATOM      9  H   UNL     1      34.566 -20.749 -21.446  0.00  0.00    +0.159 HD
ENDROOT
BRANCH   5  12
ATOM     10  N   UNL     1      35.521 -22.852 -15.024  0.00  0.00    -0.314 N 
ATOM     11  N   UNL     1      37.316 -23.872 -15.847  0.00  0.00    -0.315 N 
ATOM     12  C   UNL     1      36.324 -23.049 -16.115  0.00  0.00    +0.171 C 
ATOM     13  C   UNL     1      36.029 -23.593 -13.988  0.00  0.00    +0.059 C 
ATOM     14  C   UNL     1      37.148 -24.221 -14.527  0.00  0.00    +0.055 C 
ATOM     15  C   UNL     1      37.915 -25.072 -13.713  0.00  0.00    -0.008 C 
ATOM     16  C   UNL     1      35.617 -23.763 -12.665  0.00  0.00    +0.011 C 
ATOM     17  C   UNL     1      36.391 -24.614 -11.869  0.00  0.00    -0.021 C 
ATOM     18  C   UNL     1      37.519 -25.257 -12.381  0.00  0.00    -0.007 C 
ATOM     19  C   UNL     1      39.130 -25.782 -14.213  0.00  0.00    +0.032 C 
ATOM     20  C   UNL     1      36.000 -24.838 -10.445  0.00  0.00    +0.031 C 
ATOM     21  H   UNL     1      34.722 -22.279 -14.989  0.00  0.00    +0.149 HD
ATOM     22  H   UNL     1      38.027 -24.173 -16.460  0.00  0.00    +0.149 HD
ENDBRANCH   5  12
BRANCH   1  23
ATOM     23  C   UNL     1      36.344 -19.648 -21.590  0.00  0.00    +0.098 C 
BRANCH  23  24
ATOM     24  C   UNL     1      35.635 -18.739 -22.589  0.00  0.00    +0.022 C 
BRANCH  24  25
ATOM     25  C   UNL     1      35.692 -17.266 -22.182  0.00  0.00    +0.002 C 
BRANCH  25  27
ATOM     26  N   UNL     1      33.776 -15.084 -25.380  0.00  0.00    +0.385 N 
ATOM     27  C   UNL     1      35.518 -16.351 -23.392  0.00  0.00    -0.004 C 
ATOM     28  C   UNL     1      34.617 -15.159 -23.055  0.00  0.00    -0.023 C 
ATOM     29  C   UNL     1      34.937 -17.118 -24.584  0.00  0.00    -0.023 C 
ATOM     30  C   UNL     1      34.357 -14.291 -24.287  0.00  0.00    -0.077 C 
ATOM     31  C   UNL     1      34.667 -16.186 -25.767  0.00  0.00    -0.077 C 
ATOM     32  C   UNL     1      33.486 -14.232 -26.533  0.00  0.00    -0.101 C 
ATOM     33  H   UNL     1      32.902 -15.489 -25.044  0.00  0.00    -0.080 HD
ENDBRANCH  25  27
ENDBRANCH  24  25
ENDBRANCH  23  24
ENDBRANCH   1  23
TORSDOF 5
ENDMDL
MODEL 3
REMARK VINA RESULT:     -11.4      1.592      2.341
REMARK  Name = 23650961
REMARK  5 active torsions:
REMARK  status: ('A' for Active; 'I' for Inactive)
REMARK    1  A    between atoms: N_1  and  C_23
REMARK    2  A    between atoms: C_5  and  C_12
REMARK    3  A    between atoms: C_23  and  C_24
REMARK    4  A    between atoms: C_24  and  C_25
REMARK    5  A    between atoms: C_25  and  C_27
REMARK                            x       y       z     vdW  Elec       q    Type
REMARK                         _______ _______ _______ _____ _____    ______ ____
ROOT
ATOM      1  N   UNL     1      36.265 -18.830 -22.572  0.00  0.00    -0.268 N 
ATOM      2  N   UNL     1      35.341 -17.095 -23.855  0.00  0.00    -0.342 NA
ATOM      3  N   UNL     1      35.498 -16.913 -21.458  0.00  0.00    -0.170 NA
ATOM      4  C   UNL     1      35.683 -17.573 -22.630  0.00  0.00    +0.144 C 
ATOM      5  C   UNL     1      34.543 -15.115 -22.743  0.00  0.00    +0.061 C 
ATOM      6  C   UNL     1      34.777 -15.870 -23.875  0.00  0.00    +0.123 C 
ATOM      7  C   UNL     1      34.928 -15.693 -21.550  0.00  0.00    +0.113 C 
ATOM      8  C   UNL     1      34.406 -15.356 -25.228  0.00  0.00    +0.067 C 
ATOM      9  H   UNL     1      36.404 -19.315 -23.417  0.00  0.00    +0.159 HD
ENDROOT
BRANCH   5  12
ATOM     10  N   UNL     1      34.407 -12.811 -23.587  0.00  0.00    -0.314 N 
ATOM     11  N   UNL     1      32.904 -13.415 -22.064  0.00  0.00    -0.315 N 
ATOM     12  C   UNL     1      33.940 -13.810 -22.775  0.00  0.00    +0.171 C 
ATOM     13  C   UNL     1      33.624 -11.704 -23.385  0.00  0.00    +0.059 C 
ATOM     14  C   UNL     1      32.693 -12.105 -22.432  0.00  0.00    +0.055 C 
ATOM     15  C   UNL     1      31.723 -11.189 -21.992  0.00  0.00    -0.008 C 
ATOM     16  C   UNL     1      33.649 -10.423 -23.940  0.00  0.00    +0.011 C 
ATOM     17  C   UNL     1      32.676  -9.523 -23.492  0.00  0.00    -0.021 C 
ATOM     18  C   UNL     1      31.729  -9.897 -22.536  0.00  0.00    -0.007 C 
ATOM     19  C   UNL     1      30.690 -11.541 -20.972  0.00  0.00    +0.032 C 
ATOM     20  C   UNL     1      32.650  -8.138 -24.048  0.00  0.00    +0.031 C 
ATOM     21  H   UNL     1      35.169 -12.877 -24.205  0.00  0.00    +0.149 HD
ATOM     22  H   UNL     1      32.391 -13.943 -21.410  0.00  0.00    +0.149 HD
ENDBRANCH   5  12
BRANCH   1  23
ATOM     23  C   UNL     1      36.680 -19.465 -21.345  0.00  0.00    +0.098 C 
BRANCH  23  24
ATOM     24  C   UNL     1      35.608 -20.430 -20.846  0.00  0.00    +0.022 C 
BRANCH  24  25
ATOM     25  C   UNL     1      36.195 -21.590 -20.041  0.00  0.00    +0.002 C 
BRANCH  25  27
ATOM     26  N   UNL     1      34.475 -23.653 -16.659  0.00  0.00    +0.385 N 
ATOM     27  C   UNL     1      35.402 -21.831 -18.759  0.00  0.00    -0.004 C 
ATOM     28  C   UNL     1      36.316 -22.317 -17.630  0.00  0.00    -0.023 C 
ATOM     29  C   UNL     1      34.278 -22.846 -18.989  0.00  0.00    -0.023 C 
ATOM     30  C   UNL     1      35.515 -22.656 -16.372  0.00  0.00    -0.077 C 
ATOM     31  C   UNL     1      33.544 -23.167 -17.686  0.00  0.00    -0.077 C 
ATOM     32  C   UNL     1      33.751 -24.005 -15.437  0.00  0.00    -0.101 C 
ATOM     33  H   UNL     1      34.932 -24.491 -17.020  0.00  0.00    -0.080 HD
ENDBRANCH  25  27
ENDBRANCH  24  25
ENDBRANCH  23  24
ENDBRANCH   1  23
TORSDOF 5
ENDMDL
MODEL 4
REMARK VINA RESULT:     -11.1      2.227     11.382
REMARK  Name = 23650961
REMARK  5 active torsions:
REMARK  status: ('A' for Active; 'I' for Inactive)
REMARK    1  A    between atoms: N_1  and  C_23
REMARK    2  A    between atoms: C_5  and  C_12
REMARK    3  A    between atoms: C_23  and  C_24
REMARK    4  A    between atoms: C_24  and  C_25
REMARK    5  A    between atoms: C_25  and  C_27
REMARK                            x       y       z     vdW  Elec       q    Type
REMARK                         _______ _______ _______ _____ _____    ______ ____
ROOT
ATOM      1  N   UNL     1      35.629 -19.272 -22.877  0.00  0.00    -0.268 N 
ATOM      2  N   UNL     1      36.103 -20.474 -20.918  0.00  0.00    -0.342 NA
ATOM      3  N   UNL     1      33.833 -20.181 -21.671  0.00  0.00    -0.170 NA
ATOM      4  C   UNL     1      35.173 -19.999 -21.787  0.00  0.00    +0.144 C 
ATOM      5  C   UNL     1      34.283 -21.419 -19.656  0.00  0.00    +0.061 C 
ATOM      6  C   UNL     1      35.625 -21.176 -19.869  0.00  0.00    +0.123 C 
ATOM      7  C   UNL     1      33.424 -20.891 -20.598  0.00  0.00    +0.113 C 
ATOM      8  C   UNL     1      36.657 -21.694 -18.920  0.00  0.00    +0.067 C 
ATOM      9  H   UNL     1      36.599 -19.136 -22.970  0.00  0.00    +0.159 HD
ENDROOT
BRANCH   5  12
ATOM     10  N   UNL     1      32.445 -22.333 -18.306  0.00  0.00    -0.314 N 
ATOM     11  N   UNL     1      34.512 -22.771 -17.617  0.00  0.00    -0.315 N 
ATOM     12  C   UNL     1      33.785 -22.168 -18.533  0.00  0.00    +0.171 C 
ATOM     13  C   UNL     1      32.300 -23.088 -17.171  0.00  0.00    +0.059 C 
ATOM     14  C   UNL     1      33.603 -23.349 -16.759  0.00  0.00    +0.055 C 
ATOM     15  C   UNL     1      33.816 -24.116 -15.601  0.00  0.00    -0.008 C 
ATOM     16  C   UNL     1      31.173 -23.552 -16.489  0.00  0.00    +0.011 C 
ATOM     17  C   UNL     1      31.403 -24.313 -15.338  0.00  0.00    -0.021 C 
ATOM     18  C   UNL     1      32.699 -24.592 -14.901  0.00  0.00    -0.007 C 
ATOM     19  C   UNL     1      35.182 -24.441 -15.093  0.00  0.00    +0.032 C 
ATOM     20  C   UNL     1      30.238 -24.839 -14.565  0.00  0.00    +0.031 C 
ATOM     21  H   UNL     1      31.715 -21.973 -18.859  0.00  0.00    +0.149 HD
ATOM     22  H   UNL     1      35.494 -22.801 -17.556  0.00  0.00    +0.149 HD
ENDBRANCH   5  12
BRANCH   1  23
ATOM     23  C   UNL     1      34.761 -18.706 -23.881  0.00  0.00    +0.098 C 
BRANCH  23  24
ATOM     24  C   UNL     1      35.331 -17.394 -24.412  0.00  0.00    +0.022 C 
BRANCH  24  25
ATOM     25  C   UNL     1      34.440 -16.760 -25.481  0.00  0.00    +0.002 C 
BRANCH  25  27
ATOM     26  N   UNL     1      34.504 -12.515 -24.685  0.00  0.00    +0.385 N 
ATOM     27  C   UNL     1      33.966 -15.373 -25.054  0.00  0.00    -0.004 C 
ATOM     28  C   UNL     1      34.020 -14.388 -26.226  0.00  0.00    -0.023 C 
ATOM     29  C   UNL     1      34.806 -14.838 -23.890  0.00  0.00    -0.023 C 
ATOM     30  C   UNL     1      33.643 -12.973 -25.784  0.00  0.00    -0.077 C 
ATOM     31  C   UNL     1      34.403 -13.408 -23.524  0.00  0.00    -0.077 C 
ATOM     32  C   UNL     1      34.167 -11.143 -24.307  0.00  0.00    -0.101 C 
ATOM     33  H   UNL     1      35.471 -12.535 -25.014  0.00  0.00    -0.080 HD
ENDBRANCH  25  27
ENDBRANCH  24  25
ENDBRANCH  23  24
ENDBRANCH   1  23
TORSDOF 5
ENDMDL
MODEL 5
REMARK VINA RESULT:     -10.9      1.801      3.257
REMARK  Name = 23650961
REMARK  5 active torsions:
REMARK  status: ('A' for Active; 'I' for Inactive)
REMARK    1  A    between atoms: N_1  and  C_23
REMARK    2  A    between atoms: C_5  and  C_12
REMARK    3  A    between atoms: C_23  and  C_24
REMARK    4  A    between atoms: C_24  and  C_25
REMARK    5  A    between atoms: C_25  and  C_27
REMARK                            x       y       z     vdW  Elec       q    Type
REMARK                         _______ _______ _______ _____ _____    ______ ____
ROOT
ATOM      1  N   UNL     1      36.263 -19.497 -21.977  0.00  0.00    -0.268 N 
ATOM      2  N   UNL     1      35.587 -17.861 -23.517  0.00  0.00    -0.342 NA
ATOM      3  N   UNL     1      35.601 -17.403 -21.152  0.00  0.00    -0.170 NA
ATOM      4  C   UNL     1      35.803 -18.213 -22.223  0.00  0.00    +0.144 C 
ATOM      5  C   UNL     1      34.900 -15.702 -22.705  0.00  0.00    +0.061 C 
ATOM      6  C   UNL     1      35.139 -16.605 -23.721  0.00  0.00    +0.123 C 
ATOM      7  C   UNL     1      35.151 -16.161 -21.427  0.00  0.00    +0.113 C 
ATOM      8  C   UNL     1      34.906 -16.230 -25.148  0.00  0.00    +0.067 C 
ATOM      9  H   UNL     1      36.413 -20.091 -22.747  0.00  0.00    +0.159 HD
ENDROOT
BRANCH   5  12
ATOM     10  N   UNL     1      33.429 -13.808 -22.170  0.00  0.00    -0.314 N 
ATOM     11  N   UNL     1      34.850 -13.533 -23.857  0.00  0.00    -0.315 N 
ATOM     12  C   UNL     1      34.421 -14.365 -22.932  0.00  0.00    +0.171 C 
ATOM     13  C   UNL     1      33.205 -12.537 -22.635  0.00  0.00    +0.059 C 
ATOM     14  C   UNL     1      34.103 -12.389 -23.687  0.00  0.00    +0.055 C 
ATOM     15  C   UNL     1      34.135 -11.176 -24.396  0.00  0.00    -0.008 C 
ATOM     16  C   UNL     1      32.319 -11.534 -22.236  0.00  0.00    +0.011 C 
ATOM     17  C   UNL     1      32.363 -10.334 -22.952  0.00  0.00    -0.021 C 
ATOM     18  C   UNL     1      33.254 -10.155 -24.013  0.00  0.00    -0.007 C 
ATOM     19  C   UNL     1      35.068 -10.937 -25.537  0.00  0.00    +0.032 C 
ATOM     20  C   UNL     1      31.441  -9.222 -22.573  0.00  0.00    +0.031 C 
ATOM     21  H   UNL     1      32.961 -14.242 -21.422  0.00  0.00    +0.149 HD
ATOM     22  H   UNL     1      35.553 -13.693 -24.528  0.00  0.00    +0.149 HD
ENDBRANCH   5  12
BRANCH   1  23
ATOM     23  C   UNL     1      36.536 -20.011 -20.656  0.00  0.00    +0.098 C 
BRANCH  23  24
ATOM     24  C   UNL     1      35.998 -21.431 -20.506  0.00  0.00    +0.022 C 
BRANCH  24  25
ATOM     25  C   UNL     1      34.558 -21.458 -19.991  0.00  0.00    +0.002 C 
BRANCH  25  27
ATOM     26  N   UNL     1      33.842 -23.166 -16.089  0.00  0.00    +0.385 N 
ATOM     27  C   UNL     1      34.383 -22.504 -18.893  0.00  0.00    -0.004 C 
ATOM     28  C   UNL     1      32.976 -22.436 -18.289  0.00  0.00    -0.023 C 
ATOM     29  C   UNL     1      35.430 -22.325 -17.789  0.00  0.00    -0.023 C 
ATOM     30  C   UNL     1      32.825 -23.412 -17.121  0.00  0.00    -0.077 C 
ATOM     31  C   UNL     1      35.197 -23.305 -16.638  0.00  0.00    -0.077 C 
ATOM     32  C   UNL     1      33.653 -24.072 -14.957  0.00  0.00    -0.101 C 
ATOM     33  H   UNL     1      33.732 -22.206 -15.762  0.00  0.00    -0.080 HD
ENDBRANCH  25  27
ENDBRANCH  24  25
ENDBRANCH  23  24
ENDBRANCH   1  23
TORSDOF 5
ENDMDL
MODEL 6
REMARK VINA RESULT:     -10.9      3.476     12.168
REMARK  Name = 23650961
REMARK  5 active torsions:
REMARK  status: ('A' for Active; 'I' for Inactive)
REMARK    1  A    between atoms: N_1  and  C_23
REMARK    2  A    between atoms: C_5  and  C_12
REMARK    3  A    between atoms: C_23  and  C_24
REMARK    4  A    between atoms: C_24  and  C_25
REMARK    5  A    between atoms: C_25  and  C_27
REMARK                            x       y       z     vdW  Elec       q    Type
REMARK                         _______ _______ _______ _____ _____    ______ ____
ROOT
ATOM      1  N   UNL     1      35.267 -20.004 -21.637  0.00  0.00    -0.268 N 
ATOM      2  N   UNL     1      34.426 -21.495 -20.032  0.00  0.00    -0.342 NA
ATOM      3  N   UNL     1      36.633 -20.554 -19.811  0.00  0.00    -0.170 NA
ATOM      4  C   UNL     1      35.448 -20.706 -20.456  0.00  0.00    +0.144 C 
ATOM      5  C   UNL     1      35.803 -22.082 -18.146  0.00  0.00    +0.061 C 
ATOM      6  C   UNL     1      34.636 -22.165 -18.880  0.00  0.00    +0.123 C 
ATOM      7  C   UNL     1      36.777 -21.253 -18.665  0.00  0.00    +0.113 C 
ATOM      8  C   UNL     1      33.505 -23.029 -18.424  0.00  0.00    +0.067 C 
ATOM      9  H   UNL     1      34.411 -20.107 -22.112  0.00  0.00    +0.159 HD
ENDROOT
BRANCH   5  12
ATOM     10  N   UNL     1      37.260 -23.223 -16.530  0.00  0.00    -0.314 N 
ATOM     11  N   UNL     1      35.093 -23.135 -16.043  0.00  0.00    -0.315 N 
ATOM     12  C   UNL     1      36.017 -22.801 -16.919  0.00  0.00    +0.171 C 
ATOM     13  C   UNL     1      37.128 -23.870 -15.328  0.00  0.00    +0.059 C 
ATOM     14  C   UNL     1      35.767 -23.802 -15.045  0.00  0.00    +0.055 C 
ATOM     15  C   UNL     1      35.284 -24.381 -13.860  0.00  0.00    -0.008 C 
ATOM     16  C   UNL     1      38.056 -24.490 -14.489  0.00  0.00    +0.011 C 
ATOM     17  C   UNL     1      37.558 -25.062 -13.314  0.00  0.00    -0.021 C 
ATOM     18  C   UNL     1      36.198 -25.010 -13.003  0.00  0.00    -0.007 C 
ATOM     19  C   UNL     1      33.839 -24.352 -13.483  0.00  0.00    +0.032 C 
ATOM     20  C   UNL     1      38.501 -25.739 -12.375  0.00  0.00    +0.031 C 
ATOM     21  H   UNL     1      38.099 -23.086 -17.025  0.00  0.00    +0.149 HD
ATOM     22  H   UNL     1      34.127 -22.949 -16.091  0.00  0.00    +0.149 HD
ENDBRANCH   5  12
BRANCH   1  23
ATOM     23  C   UNL     1      36.262 -19.129 -22.210  0.00  0.00    +0.098 C 
BRANCH  23  24
ATOM     24  C   UNL     1      35.641 -18.224 -23.270  0.00  0.00    +0.022 C 
BRANCH  24  25
ATOM     25  C   UNL     1      35.503 -16.777 -22.796  0.00  0.00    +0.002 C 
BRANCH  25  27
ATOM     26  N   UNL     1      33.369 -14.507 -25.787  0.00  0.00    +0.385 N 
ATOM     27  C   UNL     1      35.246 -15.833 -23.968  0.00  0.00    -0.004 C 
ATOM     28  C   UNL     1      34.386 -14.641 -23.536  0.00  0.00    -0.023 C 
ATOM     29  C   UNL     1      34.567 -16.568 -25.128  0.00  0.00    -0.023 C 
ATOM     30  C   UNL     1      34.040 -13.744 -24.725  0.00  0.00    -0.077 C 
ATOM     31  C   UNL     1      34.216 -15.607 -26.266  0.00  0.00    -0.077 C 
ATOM     32  C   UNL     1      32.999 -13.626 -26.895  0.00  0.00    -0.101 C 
ATOM     33  H   UNL     1      32.519 -14.912 -25.394  0.00  0.00    -0.080 HD
ENDBRANCH  25  27
ENDBRANCH  24  25
ENDBRANCH  23  24
ENDBRANCH   1  23
TORSDOF 5
ENDMDL
MODEL 7
REMARK VINA RESULT:     -10.8      2.177      4.337
REMARK  Name = 23650961
REMARK  5 active torsions:
REMARK  status: ('A' for Active; 'I' for Inactive)
REMARK    1  A    between atoms: N_1  and  C_23
REMARK    2  A    between atoms: C_5  and  C_12
REMARK    3  A    between atoms: C_23  and  C_24
REMARK    4  A    between atoms: C_24  and  C_25
REMARK    5  A    between atoms: C_25  and  C_27
REMARK                            x       y       z     vdW  Elec       q    Type
REMARK                         _______ _______ _______ _____ _____    ______ ____
ROOT
ATOM      1  N   UNL     1      33.836 -14.677 -23.220  0.00  0.00    -0.268 N 
ATOM      2  N   UNL     1      32.633 -12.826 -22.425  0.00  0.00    -0.342 NA
ATOM      3  N   UNL     1      34.326 -12.566 -24.120  0.00  0.00    -0.170 NA
ATOM      4  C   UNL     1      33.591 -13.313 -23.257  0.00  0.00    +0.144 C 
ATOM      5  C   UNL     1      33.112 -10.645 -23.326  0.00  0.00    +0.061 C 
ATOM      6  C   UNL     1      32.421 -11.495 -22.486  0.00  0.00    +0.123 C 
ATOM      7  C   UNL     1      34.063 -11.243 -24.128  0.00  0.00    +0.113 C 
ATOM      8  C   UNL     1      31.365 -10.971 -21.567  0.00  0.00    +0.067 C 
ATOM      9  H   UNL     1      33.308 -15.227 -22.598  0.00  0.00    +0.159 HD
ENDROOT
BRANCH   5  12
ATOM     10  N   UNL     1      31.818  -8.638 -22.746  0.00  0.00    -0.314 N 
ATOM     11  N   UNL     1      33.616  -8.342 -24.019  0.00  0.00    -0.315 N 
ATOM     12  C   UNL     1      32.878  -9.227 -23.382  0.00  0.00    +0.171 C 
ATOM     13  C   UNL     1      31.876  -7.290 -22.991  0.00  0.00    +0.059 C 
ATOM     14  C   UNL     1      33.007  -7.130 -23.786  0.00  0.00    +0.055 C 
ATOM     15  C   UNL     1      33.361  -5.843 -24.223  0.00  0.00    -0.008 C 
ATOM     16  C   UNL     1      31.061  -6.228 -22.595  0.00  0.00    +0.011 C 
ATOM     17  C   UNL     1      31.428  -4.954 -23.038  0.00  0.00    -0.021 C 
ATOM     18  C   UNL     1      32.556  -4.762 -23.838  0.00  0.00    -0.007 C 
ATOM     19  C   UNL     1      34.558  -5.586 -25.079  0.00  0.00    +0.032 C 
ATOM     20  C   UNL     1      30.596  -3.776 -22.647  0.00  0.00    +0.031 C 
ATOM     21  H   UNL     1      31.135  -9.101 -22.210  0.00  0.00    +0.149 HD
ATOM     22  H   UNL     1      34.429  -8.511 -24.549  0.00  0.00    +0.149 HD
ENDBRANCH   5  12
BRANCH   1  23
ATOM     23  C   UNL     1      34.822 -15.336 -24.043  0.00  0.00    +0.098 C 
BRANCH  23  24
ATOM     24  C   UNL     1      35.500 -16.467 -23.276  0.00  0.00    +0.022 C 
BRANCH  24  25
ATOM     25  C   UNL     1      35.384 -17.812 -23.993  0.00  0.00    +0.002 C 
BRANCH  25  27
ATOM     26  N   UNL     1      36.115 -20.114 -20.412  0.00  0.00    +0.385 N 
ATOM     27  C   UNL     1      35.833 -18.960 -23.092  0.00  0.00    -0.004 C 
ATOM     28  C   UNL     1      34.647 -19.551 -22.322  0.00  0.00    -0.023 C 
ATOM     29  C   UNL     1      36.911 -18.497 -22.106  0.00  0.00    -0.023 C 
ATOM     30  C   UNL     1      35.103 -20.633 -21.342  0.00  0.00    -0.077 C 
ATOM     31  C   UNL     1      37.292 -19.615 -21.134  0.00  0.00    -0.077 C 
ATOM     32  C   UNL     1      36.504 -21.145 -19.450  0.00  0.00    -0.101 C 
ATOM     33  H   UNL     1      35.702 -19.332 -19.904  0.00  0.00    -0.080 HD
ENDBRANCH  25  27
ENDBRANCH  24  25
ENDBRANCH  23  24
ENDBRANCH   1  23
TORSDOF 5
ENDMDL
MODEL 8
REMARK VINA RESULT:     -10.6      3.026     11.576
REMARK  Name = 23650961
REMARK  5 active torsions:
REMARK  status: ('A' for Active; 'I' for Inactive)
REMARK    1  A    between atoms: N_1  and  C_23
REMARK    2  A    between atoms: C_5  and  C_12
REMARK    3  A    between atoms: C_23  and  C_24
REMARK    4  A    between atoms: C_24  and  C_25
REMARK    5  A    between atoms: C_25  and  C_27
REMARK                            x       y       z     vdW  Elec       q    Type
REMARK                         _______ _______ _______ _____ _____    ______ ____
ROOT
ATOM      1  N   UNL     1      31.571  -8.392 -22.677  0.00  0.00    -0.268 N 
ATOM      2  N   UNL     1      31.772 -10.548 -21.771  0.00  0.00    -0.342 NA
ATOM      3  N   UNL     1      32.979  -9.925 -23.761  0.00  0.00    -0.170 NA
ATOM      4  C   UNL     1      32.125  -9.661 -22.739  0.00  0.00    +0.144 C 
ATOM      5  C   UNL     1      33.207 -12.145 -22.859  0.00  0.00    +0.061 C 
ATOM      6  C   UNL     1      32.328 -11.773 -21.861  0.00  0.00    +0.123 C 
ATOM      7  C   UNL     1      33.499 -11.170 -23.791  0.00  0.00    +0.113 C 
ATOM      8  C   UNL     1      31.932 -12.738 -20.791  0.00  0.00    +0.067 C 
ATOM      9  H   UNL     1      30.951  -8.192 -21.940  0.00  0.00    +0.159 HD
ENDROOT
BRANCH   5  12
ATOM     10  N   UNL     1      34.246 -14.125 -21.841  0.00  0.00    -0.314 N 
ATOM     11  N   UNL     1      33.969 -14.156 -24.046  0.00  0.00    -0.315 N 
ATOM     12  C   UNL     1      33.795 -13.455 -22.946  0.00  0.00    +0.171 C 
ATOM     13  C   UNL     1      34.743 -15.334 -22.256  0.00  0.00    +0.059 C 
ATOM     14  C   UNL     1      34.559 -15.330 -23.635  0.00  0.00    +0.055 C 
ATOM     15  C   UNL     1      34.968 -16.446 -24.385  0.00  0.00    -0.008 C 
ATOM     16  C   UNL     1      35.321 -16.400 -21.563  0.00  0.00    +0.011 C 
ATOM     17  C   UNL     1      35.724 -17.501 -22.325  0.00  0.00    -0.021 C 
ATOM     18  C   UNL     1      35.552 -17.527 -23.710  0.00  0.00    -0.007 C 
ATOM     19  C   UNL     1      34.807 -16.520 -25.868  0.00  0.00    +0.032 C 
ATOM     20  C   UNL     1      36.348 -18.673 -21.641  0.00  0.00    +0.031 C 
ATOM     21  H   UNL     1      34.219 -13.798 -20.914  0.00  0.00    +0.149 HD
ATOM     22  H   UNL     1      33.729 -13.897 -24.966  0.00  0.00    +0.149 HD
ENDBRANCH   5  12
BRANCH   1  23
ATOM     23  C   UNL     1      31.852  -7.348 -23.633  0.00  0.00    +0.098 C 
BRANCH  23  24
ATOM     24  C   UNL     1      32.870  -6.360 -23.072  0.00  0.00    +0.022 C 
BRANCH  24  25
ATOM     25  C   UNL     1      34.170  -6.340 -23.877  0.00  0.00    +0.002 C 
BRANCH  25  27
ATOM     26  N   UNL     1      34.369  -3.376 -27.012  0.00  0.00    +0.385 N 
ATOM     27  C   UNL     1      33.969  -5.672 -25.235  0.00  0.00    -0.004 C 
ATOM     28  C   UNL     1      35.314  -5.377 -25.907  0.00  0.00    -0.023 C 
ATOM     29  C   UNL     1      33.164  -4.377 -25.098  0.00  0.00    -0.023 C 
ATOM     30  C   UNL     1      35.125  -4.618 -27.221  0.00  0.00    -0.077 C 
ATOM     31  C   UNL     1      33.045  -3.651 -26.440  0.00  0.00    -0.077 C 
ATOM     32  C   UNL     1      34.240  -2.636 -28.267  0.00  0.00    -0.101 C 
ATOM     33  H   UNL     1      34.886  -2.801 -26.346  0.00  0.00    -0.080 HD
ENDBRANCH  25  27
ENDBRANCH  24  25
ENDBRANCH  23  24
ENDBRANCH   1  23
TORSDOF 5
ENDMDL
MODEL 9
REMARK VINA RESULT:     -10.5      3.293      6.948
REMARK  Name = 23650961
REMARK  5 active torsions:
REMARK  status: ('A' for Active; 'I' for Inactive)
REMARK    1  A    between atoms: N_1  and  C_23
REMARK    2  A    between atoms: C_5  and  C_12
REMARK    3  A    between atoms: C_23  and  C_24
REMARK    4  A    between atoms: C_24  and  C_25
REMARK    5  A    between atoms: C_25  and  C_27
REMARK                            x       y       z     vdW  Elec       q    Type
REMARK                         _______ _______ _______ _____ _____    ______ ____
ROOT
ATOM      1  N   UNL     1      32.133 -11.649 -20.025  0.00  0.00    -0.268 N 
ATOM      2  N   UNL     1      32.615  -9.357 -20.173  0.00  0.00    -0.342 NA
ATOM      3  N   UNL     1      31.919 -10.603 -22.114  0.00  0.00    -0.170 NA
ATOM      4  C   UNL     1      32.225 -10.500 -20.795  0.00  0.00    +0.144 C 
ATOM      5  C   UNL     1      32.407  -8.253 -22.302  0.00  0.00    +0.061 C 
ATOM      6  C   UNL     1      32.695  -8.259 -20.951  0.00  0.00    +0.123 C 
ATOM      7  C   UNL     1      32.021  -9.466 -22.834  0.00  0.00    +0.113 C 
ATOM      8  C   UNL     1      33.125  -7.008 -20.255  0.00  0.00    +0.067 C 
ATOM      9  H   UNL     1      32.352 -11.585 -19.068  0.00  0.00    +0.159 HD
ENDROOT
BRANCH   5  12
ATOM     10  N   UNL     1      31.584  -6.059 -23.040  0.00  0.00    -0.314 N 
ATOM     11  N   UNL     1      33.424  -6.825 -24.023  0.00  0.00    -0.315 N 
ATOM     12  C   UNL     1      32.497  -7.076 -23.123  0.00  0.00    +0.171 C 
ATOM     13  C   UNL     1      31.945  -5.093 -23.944  0.00  0.00    +0.059 C 
ATOM     14  C   UNL     1      33.096  -5.594 -24.544  0.00  0.00    +0.055 C 
ATOM     15  C   UNL     1      33.736  -4.835 -25.539  0.00  0.00    -0.008 C 
ATOM     16  C   UNL     1      31.381  -3.860 -24.277  0.00  0.00    +0.011 C 
ATOM     17  C   UNL     1      32.030  -3.118 -25.269  0.00  0.00    -0.021 C 
ATOM     18  C   UNL     1      33.186  -3.594 -25.890  0.00  0.00    -0.007 C 
ATOM     19  C   UNL     1      34.974  -5.300 -26.232  0.00  0.00    +0.032 C 
ATOM     20  C   UNL     1      31.475  -1.790 -25.668  0.00  0.00    +0.031 C 
ATOM     21  H   UNL     1      30.806  -6.027 -22.438  0.00  0.00    +0.149 HD
ATOM     22  H   UNL     1      34.188  -7.395 -24.271  0.00  0.00    +0.149 HD
ENDBRANCH   5  12
BRANCH   1  23
ATOM     23  C   UNL     1      31.733 -12.934 -20.547  0.00  0.00    +0.098 C 
BRANCH  23  24
ATOM     24  C   UNL     1      32.943 -13.845 -20.730  0.00  0.00    +0.022 C 
BRANCH  24  25
ATOM     25  C   UNL     1      33.661 -13.603 -22.058  0.00  0.00    +0.002 C 
BRANCH  25  27
ATOM     26  N   UNL     1      35.360 -17.468 -22.968  0.00  0.00    +0.385 N 
ATOM     27  C   UNL     1      34.705 -14.684 -22.327  0.00  0.00    -0.004 C 
ATOM     28  C   UNL     1      34.547 -15.263 -23.737  0.00  0.00    -0.023 C 
ATOM     29  C   UNL     1      34.612 -15.810 -21.293  0.00  0.00    -0.023 C 
ATOM     30  C   UNL     1      35.523 -16.415 -23.979  0.00  0.00    -0.077 C 
ATOM     31  C   UNL     1      35.586 -16.944 -21.615  0.00  0.00    -0.077 C 
ATOM     32  C   UNL     1      36.264 -18.586 -23.242  0.00  0.00    -0.101 C 
ATOM     33  H   UNL     1      34.399 -17.806 -23.018  0.00  0.00    -0.080 HD
ENDBRANCH  25  27
ENDBRANCH  24  25
ENDBRANCH  23  24
ENDBRANCH   1  23
TORSDOF 5
ENDMDL
