MODEL 1
REMARK VINA RESULT:     -11.6      0.000      0.000
REMARK  Name = 24821094
REMARK  5 active torsions:
REMARK  status: ('A' for Active; 'I' for Inactive)
REMARK    1  A    between atoms: N_1  and  C_12
REMARK    2  A    between atoms: C_7  and  C_20
REMARK    3  A    between atoms: C_17  and  C_18
REMARK    4  A    between atoms: C_25  and  O_26
REMARK    5  A    between atoms: O_26  and  C_27
REMARK                            x       y       z     vdW  Elec       q    Type
REMARK                         _______ _______ _______ _____ _____    ______ ____
ROOT
ATOM      1  N   UNL     1      34.219 -14.911 -22.382  0.00  0.00    -0.198 N 
ATOM      2  N   UNL     1      34.606 -15.863 -21.513  0.00  0.00    -0.181 NA
ATOM      3  N   UNL     1      34.025 -14.549 -24.768  0.00  0.00    -0.231 NA
ATOM      4  N   UNL     1      34.749 -16.501 -26.038  0.00  0.00    -0.234 NA
ATOM      5  C   UNL     1      34.333 -15.284 -23.688  0.00  0.00    +0.137 C 
ATOM      6  C   UNL     1      34.831 -16.575 -23.673  0.00  0.00    +0.150 C 
ATOM      7  C   UNL     1      34.977 -16.874 -22.306  0.00  0.00    +0.090 C 
ATOM      8  C   UNL     1      35.038 -17.186 -24.906  0.00  0.00    +0.112 C 
ATOM      9  C   UNL     1      34.267 -15.243 -25.901  0.00  0.00    +0.252 C 
ATOM     10  N   UNL     1      35.540 -18.498 -24.995  0.00  0.00    -0.346 N 
ATOM     11  H   UNL     1      35.678 -18.912 -25.878  0.00  0.00    +0.143 HD
ATOM     12  H   UNL     1      35.751 -19.001 -24.176  0.00  0.00    +0.143 HD
ENDROOT
BRANCH   1  15
ATOM     13  O   UNL     1      32.371  -9.187 -22.375  0.00  0.00    -0.270 OA
ATOM     14  N   UNL     1      32.478 -11.510 -22.368  0.00  0.00    -0.274 N 
ATOM     15  C   UNL     1      33.719 -13.579 -21.857  0.00  0.00    +0.117 C 
ATOM     16  C   UNL     1      32.873 -13.748 -20.579  0.00  0.00    +0.025 C 
ATOM     17  C   UNL     1      32.931 -12.795 -22.921  0.00  0.00    +0.115 C 
ATOM     18  C   UNL     1      32.352 -12.397 -20.081  0.00  0.00    +0.023 C 
ATOM     19  C   UNL     1      31.622 -11.638 -21.187  0.00  0.00    +0.094 C 
ATOM     20  C   UNL     1      32.777 -10.243 -22.861  0.00  0.00    +0.249 C 
BRANCH  20  21
ATOM     21  C   UNL     1      33.650 -10.157 -24.050  0.00  0.00    +0.058 C 
ATOM     22  C   UNL     1      34.680  -9.309 -24.033  0.00  0.00    +0.005 C 
ENDBRANCH  20  21
ENDBRANCH   1  15
BRANCH   7  23
ATOM     23  C   UNL     1      35.463 -18.100 -21.724  0.00  0.00    +0.016 C 
ATOM     24  C   UNL     1      36.814 -18.234 -21.408  0.00  0.00    +0.004 C 
ATOM     25  C   UNL     1      34.581 -19.152 -21.476  0.00  0.00    +0.004 C 
ATOM     26  C   UNL     1      37.284 -19.420 -20.844  0.00  0.00    +0.038 C 
ATOM     27  C   UNL     1      35.050 -20.338 -20.911  0.00  0.00    +0.038 C 
ATOM     28  C   UNL     1      36.402 -20.472 -20.596  0.00  0.00    +0.145 C 
BRANCH  28  29
ATOM     29  O   UNL     1      36.861 -21.631 -20.048  0.00  0.00    -0.453 OA
BRANCH  29  30
ATOM     30  C   UNL     1      36.362 -22.000 -18.811  0.00  0.00    +0.145 C 
ATOM     31  C   UNL     1      37.155 -21.867 -17.671  0.00  0.00    +0.037 C 
ATOM     32  C   UNL     1      35.067 -22.507 -18.703  0.00  0.00    +0.037 C 
ATOM     33  C   UNL     1      36.653 -22.240 -16.424  0.00  0.00    +0.003 C 
ATOM     34  C   UNL     1      34.564 -22.880 -17.457  0.00  0.00    +0.003 C 
ATOM     35  C   UNL     1      35.358 -22.747 -16.318  0.00  0.00    +0.000 C 
ENDBRANCH  29  30
ENDBRANCH  28  29
ENDBRANCH   7  23
TORSDOF 5
ENDMDL
MODEL 2
REMARK VINA RESULT:     -11.6      4.633     11.867
REMARK  Name = 24821094
REMARK  5 active torsions:
REMARK  status: ('A' for Active; 'I' for Inactive)
REMARK    1  A    between atoms: N_1  and  C_12
REMARK    2  A    between atoms: C_7  and  C_20
REMARK    3  A    between atoms: C_17  and  C_18
REMARK    4  A    between atoms: C_25  and  O_26
REMARK    5  A    between atoms: O_26  and  C_27
REMARK                            x       y       z     vdW  Elec       q    Type
REMARK                         _______ _______ _______ _____ _____    ______ ____
ROOT
ATOM      1  N   UNL     1      32.957 -12.135 -22.302  0.00  0.00    -0.198 N 
ATOM      2  N   UNL     1      33.074 -11.040 -23.076  0.00  0.00    -0.181 NA
ATOM      3  N   UNL     1      32.254 -12.760 -20.072  0.00  0.00    -0.231 NA
ATOM      4  N   UNL     1      31.514 -10.825 -18.784  0.00  0.00    -0.234 NA
ATOM      5  C   UNL     1      32.475 -11.873 -21.055  0.00  0.00    +0.137 C 
ATOM      6  C   UNL     1      32.259 -10.507 -21.008  0.00  0.00    +0.150 C 
ATOM      7  C   UNL     1      32.647 -10.052 -22.282  0.00  0.00    +0.090 C 
ATOM      8  C   UNL     1      31.760  -9.986 -19.819  0.00  0.00    +0.112 C 
ATOM      9  C   UNL     1      31.772 -12.141 -18.972  0.00  0.00    +0.252 C 
ATOM     10  N   UNL     1      31.507  -8.610 -19.674  0.00  0.00    -0.346 N 
ATOM     11  H   UNL     1      31.153  -8.262 -18.823  0.00  0.00    +0.143 HD
ATOM     12  H   UNL     1      31.682  -7.995 -20.422  0.00  0.00    +0.143 HD
ENDROOT
BRANCH   1  15
ATOM     13  O   UNL     1      34.356 -16.390 -26.317  0.00  0.00    -0.270 OA
ATOM     14  N   UNL     1      34.429 -14.706 -24.715  0.00  0.00    -0.274 N 
ATOM     15  C   UNL     1      33.353 -13.489 -22.860  0.00  0.00    +0.117 C 
ATOM     16  C   UNL     1      34.210 -14.292 -21.861  0.00  0.00    +0.025 C 
ATOM     17  C   UNL     1      34.077 -13.370 -24.212  0.00  0.00    +0.115 C 
ATOM     18  C   UNL     1      34.625 -15.642 -22.452  0.00  0.00    +0.023 C 
ATOM     19  C   UNL     1      35.293 -15.473 -23.815  0.00  0.00    +0.094 C 
ATOM     20  C   UNL     1      34.032 -15.268 -25.925  0.00  0.00    +0.249 C 
BRANCH  20  21
ATOM     21  C   UNL     1      33.156 -14.465 -26.801  0.00  0.00    +0.058 C 
ATOM     22  C   UNL     1      33.697 -13.494 -27.540  0.00  0.00    +0.005 C 
ENDBRANCH  20  21
ENDBRANCH   1  15
BRANCH   7  23
ATOM     23  C   UNL     1      32.624  -8.697 -22.773  0.00  0.00    +0.016 C 
ATOM     24  C   UNL     1      31.668  -8.312 -23.712  0.00  0.00    +0.004 C 
ATOM     25  C   UNL     1      33.557  -7.770 -22.308  0.00  0.00    +0.004 C 
ATOM     26  C   UNL     1      31.646  -7.001 -24.187  0.00  0.00    +0.038 C 
ATOM     27  C   UNL     1      33.535  -6.458 -22.783  0.00  0.00    +0.038 C 
ATOM     28  C   UNL     1      32.578  -6.074 -23.722  0.00  0.00    +0.145 C 
BRANCH  28  29
ATOM     29  O   UNL     1      32.559  -4.795 -24.188  0.00  0.00    -0.453 OA
BRANCH  29  30
ATOM     30  C   UNL     1      33.287  -4.515 -25.331  0.00  0.00    +0.145 C 
ATOM     31  C   UNL     1      32.844  -3.533 -26.217  0.00  0.00    +0.037 C 
ATOM     32  C   UNL     1      34.465  -5.214 -25.598  0.00  0.00    +0.037 C 
ATOM     33  C   UNL     1      33.578  -3.250 -27.370  0.00  0.00    +0.003 C 
ATOM     34  C   UNL     1      35.199  -4.932 -26.750  0.00  0.00    +0.003 C 
ATOM     35  C   UNL     1      34.754  -3.951 -27.636  0.00  0.00    +0.000 C 
ENDBRANCH  29  30
ENDBRANCH  28  29
ENDBRANCH   7  23
TORSDOF 5
ENDMDL
MODEL 3
REMARK VINA RESULT:     -11.6      4.641     11.847
REMARK  Name = 24821094
REMARK  5 active torsions:
REMARK  status: ('A' for Active; 'I' for Inactive)
REMARK    1  A    between atoms: N_1  and  C_12
REMARK    2  A    between atoms: C_7  and  C_20
REMARK    3  A    between atoms: C_17  and  C_18
REMARK    4  A    between atoms: C_25  and  O_26
REMARK    5  A    between atoms: O_26  and  C_27
REMARK                            x       y       z     vdW  Elec       q    Type
REMARK                         _______ _______ _______ _____ _____    ______ ____
ROOT
ATOM      1  N   UNL     1      32.968 -12.107 -22.338  0.00  0.00    -0.198 N 
ATOM      2  N   UNL     1      33.091 -11.018 -23.119  0.00  0.00    -0.181 NA
ATOM      3  N   UNL     1      32.264 -12.714 -20.103  0.00  0.00    -0.231 NA
ATOM      4  N   UNL     1      31.538 -10.766 -18.827  0.00  0.00    -0.234 NA
ATOM      5  C   UNL     1      32.490 -11.835 -21.092  0.00  0.00    +0.137 C 
ATOM      6  C   UNL     1      32.283 -10.467 -21.054  0.00  0.00    +0.150 C 
ATOM      7  C   UNL     1      32.671 -10.022 -22.331  0.00  0.00    +0.090 C 
ATOM      8  C   UNL     1      31.788  -9.936 -19.867  0.00  0.00    +0.112 C 
ATOM      9  C   UNL     1      31.788 -12.085 -19.006  0.00  0.00    +0.252 C 
ATOM     10  N   UNL     1      31.543  -8.557 -19.730  0.00  0.00    -0.346 N 
ATOM     11  H   UNL     1      31.193  -8.202 -18.881  0.00  0.00    +0.143 HD
ATOM     12  H   UNL     1      31.722  -7.948 -20.483  0.00  0.00    +0.143 HD
ENDROOT
BRANCH   1  15
ATOM     13  O   UNL     1      34.368 -16.388 -26.325  0.00  0.00    -0.270 OA
ATOM     14  N   UNL     1      34.441 -14.702 -24.726  0.00  0.00    -0.274 N 
ATOM     15  C   UNL     1      33.355 -13.468 -22.887  0.00  0.00    +0.117 C 
ATOM     16  C   UNL     1      34.190 -14.278 -21.876  0.00  0.00    +0.025 C 
ATOM     17  C   UNL     1      34.098 -13.360 -24.231  0.00  0.00    +0.115 C 
ATOM     18  C   UNL     1      34.596 -15.634 -22.459  0.00  0.00    +0.023 C 
ATOM     19  C   UNL     1      35.284 -15.476 -23.813  0.00  0.00    +0.094 C 
ATOM     20  C   UNL     1      34.053 -15.261 -25.940  0.00  0.00    +0.249 C 
BRANCH  20  21
ATOM     21  C   UNL     1      33.197 -14.450 -26.829  0.00  0.00    +0.058 C 
ATOM     22  C   UNL     1      33.758 -13.484 -27.558  0.00  0.00    +0.005 C 
ENDBRANCH  20  21
ENDBRANCH   1  15
BRANCH   7  23
ATOM     23  C   UNL     1      32.656  -8.670 -22.831  0.00  0.00    +0.016 C 
ATOM     24  C   UNL     1      33.617  -7.757 -22.397  0.00  0.00    +0.004 C 
ATOM     25  C   UNL     1      31.683  -8.276 -23.749  0.00  0.00    +0.004 C 
ATOM     26  C   UNL     1      33.603  -6.449 -22.881  0.00  0.00    +0.038 C 
ATOM     27  C   UNL     1      31.670  -6.968 -24.233  0.00  0.00    +0.038 C 
ATOM     28  C   UNL     1      32.630  -6.055 -23.799  0.00  0.00    +0.145 C 
BRANCH  28  29
ATOM     29  O   UNL     1      32.615  -4.777 -24.269  0.00  0.00    -0.453 OA
BRANCH  29  30
ATOM     30  C   UNL     1      33.325  -4.508 -25.426  0.00  0.00    +0.145 C 
ATOM     31  C   UNL     1      34.492  -5.219 -25.709  0.00  0.00    +0.037 C 
ATOM     32  C   UNL     1      32.876  -3.526 -26.309  0.00  0.00    +0.037 C 
ATOM     33  C   UNL     1      35.208  -4.947 -26.875  0.00  0.00    +0.003 C 
ATOM     34  C   UNL     1      33.591  -3.254 -27.475  0.00  0.00    +0.003 C 
ATOM     35  C   UNL     1      34.758  -3.965 -27.757  0.00  0.00    +0.000 C 
ENDBRANCH  29  30
ENDBRANCH  28  29
ENDBRANCH   7  23
TORSDOF 5
ENDMDL
MODEL 4
REMARK VINA RESULT:     -11.4      4.072     12.207
REMARK  Name = 24821094
REMARK  5 active torsions:
REMARK  status: ('A' for Active; 'I' for Inactive)
REMARK    1  A    between atoms: N_1  and  C_12
REMARK    2  A    between atoms: C_7  and  C_20
REMARK    3  A    between atoms: C_17  and  C_18
REMARK    4  A    between atoms: C_25  and  O_26
REMARK    5  A    between atoms: O_26  and  C_27
REMARK                            x       y       z     vdW  Elec       q    Type
REMARK                         _______ _______ _______ _____ _____    ______ ____
ROOT
ATOM      1  N   UNL     1      33.353 -11.849 -23.734  0.00  0.00    -0.198 N 
ATOM      2  N   UNL     1      33.262 -10.543 -24.047  0.00  0.00    -0.181 NA
ATOM      3  N   UNL     1      32.888 -13.349 -21.893  0.00  0.00    -0.231 NA
ATOM      4  N   UNL     1      31.959 -12.163 -19.975  0.00  0.00    -0.234 NA
ATOM      5  C   UNL     1      32.917 -12.142 -22.476  0.00  0.00    +0.137 C 
ATOM      6  C   UNL     1      32.510 -10.939 -21.925  0.00  0.00    +0.150 C 
ATOM      7  C   UNL     1      32.747  -9.995 -22.940  0.00  0.00    +0.090 C 
ATOM      8  C   UNL     1      32.016 -10.976 -20.625  0.00  0.00    +0.112 C 
ATOM      9  C   UNL     1      32.392 -13.261 -20.639  0.00  0.00    +0.252 C 
ATOM     10  N   UNL     1      31.576  -9.807 -19.978  0.00  0.00    -0.346 N 
ATOM     11  H   UNL     1      31.229  -9.855 -19.058  0.00  0.00    +0.143 HD
ATOM     12  H   UNL     1      31.613  -8.941 -20.445  0.00  0.00    +0.143 HD
ENDROOT
BRANCH   1  15
ATOM     13  O   UNL     1      35.253 -17.027 -26.134  0.00  0.00    -0.270 OA
ATOM     14  N   UNL     1      33.999 -15.172 -25.506  0.00  0.00    -0.274 N 
ATOM     15  C   UNL     1      33.905 -12.825 -24.756  0.00  0.00    +0.117 C 
ATOM     16  C   UNL     1      33.566 -12.398 -26.198  0.00  0.00    +0.025 C 
ATOM     17  C   UNL     1      33.429 -14.265 -24.498  0.00  0.00    +0.115 C 
ATOM     18  C   UNL     1      34.105 -13.409 -27.213  0.00  0.00    +0.023 C 
ATOM     19  C   UNL     1      33.645 -14.828 -26.885  0.00  0.00    +0.094 C 
ATOM     20  C   UNL     1      34.801 -16.284 -25.262  0.00  0.00    +0.249 C 
BRANCH  20  21
ATOM     21  C   UNL     1      35.140 -16.592 -23.859  0.00  0.00    +0.058 C 
ATOM     22  C   UNL     1      35.465 -17.845 -23.535  0.00  0.00    +0.005 C 
ENDBRANCH  20  21
ENDBRANCH   1  15
BRANCH   7  23
ATOM     23  C   UNL     1      32.499  -8.576 -22.893  0.00  0.00    +0.016 C 
ATOM     24  C   UNL     1      31.349  -8.050 -23.481  0.00  0.00    +0.004 C 
ATOM     25  C   UNL     1      33.406  -7.729 -22.257  0.00  0.00    +0.004 C 
ATOM     26  C   UNL     1      31.107  -6.677 -23.435  0.00  0.00    +0.038 C 
ATOM     27  C   UNL     1      33.165  -6.355 -22.210  0.00  0.00    +0.038 C 
ATOM     28  C   UNL     1      32.015  -5.830 -22.800  0.00  0.00    +0.145 C 
BRANCH  28  29
ATOM     29  O   UNL     1      31.781  -4.490 -22.757  0.00  0.00    -0.453 OA
BRANCH  29  30
ATOM     30  C   UNL     1      31.958  -3.768 -23.925  0.00  0.00    +0.145 C 
ATOM     31  C   UNL     1      31.313  -2.543 -24.092  0.00  0.00    +0.037 C 
ATOM     32  C   UNL     1      32.781  -4.265 -24.936  0.00  0.00    +0.037 C 
ATOM     33  C   UNL     1      31.490  -1.815 -25.270  0.00  0.00    +0.003 C 
ATOM     34  C   UNL     1      32.959  -3.539 -26.112  0.00  0.00    +0.003 C 
ATOM     35  C   UNL     1      32.313  -2.314 -26.279  0.00  0.00    +0.000 C 
ENDBRANCH  29  30
ENDBRANCH  28  29
ENDBRANCH   7  23
TORSDOF 5
ENDMDL
MODEL 5
REMARK VINA RESULT:     -11.1      3.029      5.825
REMARK  Name = 24821094
REMARK  5 active torsions:
REMARK  status: ('A' for Active; 'I' for Inactive)
REMARK    1  A    between atoms: N_1  and  C_12
REMARK    2  A    between atoms: C_7  and  C_20
REMARK    3  A    between atoms: C_17  and  C_18
REMARK    4  A    between atoms: C_25  and  O_26
REMARK    5  A    between atoms: O_26  and  C_27
REMARK                            x       y       z     vdW  Elec       q    Type
REMARK                         _______ _______ _______ _____ _____    ______ ____
ROOT
ATOM      1  N   UNL     1      33.224 -10.417 -23.142  0.00  0.00    -0.198 N 
ATOM      2  N   UNL     1      33.885 -11.444 -23.707  0.00  0.00    -0.181 NA
ATOM      3  N   UNL     1      31.711  -9.975 -21.304  0.00  0.00    -0.231 NA
ATOM      4  N   UNL     1      31.194 -12.004 -20.054  0.00  0.00    -0.234 NA
ATOM      5  C   UNL     1      32.472 -10.778 -22.064  0.00  0.00    +0.137 C 
ATOM      6  C   UNL     1      32.655 -12.141 -21.911  0.00  0.00    +0.150 C 
ATOM      7  C   UNL     1      33.534 -12.492 -22.952  0.00  0.00    +0.090 C 
ATOM      8  C   UNL     1      31.981 -12.755 -20.861  0.00  0.00    +0.112 C 
ATOM      9  C   UNL     1      31.109 -10.679 -20.322  0.00  0.00    +0.252 C 
ATOM     10  N   UNL     1      32.103 -14.137 -20.623  0.00  0.00    -0.346 N 
ATOM     11  H   UNL     1      31.618 -14.551 -19.873  0.00  0.00    +0.143 HD
ATOM     12  H   UNL     1      32.675 -14.688 -21.204  0.00  0.00    +0.143 HD
ENDROOT
BRANCH   1  15
ATOM     13  O   UNL     1      32.408  -4.505 -23.890  0.00  0.00    -0.270 OA
ATOM     14  N   UNL     1      33.229  -6.599 -23.301  0.00  0.00    -0.274 N 
ATOM     15  C   UNL     1      33.367  -9.024 -23.726  0.00  0.00    +0.117 C 
ATOM     16  C   UNL     1      34.751  -8.813 -24.371  0.00  0.00    +0.025 C 
ATOM     17  C   UNL     1      33.089  -7.927 -22.684  0.00  0.00    +0.115 C 
ATOM     18  C   UNL     1      34.888  -7.394 -24.928  0.00  0.00    +0.023 C 
ATOM     19  C   UNL     1      34.553  -6.344 -23.871  0.00  0.00    +0.094 C 
ATOM     20  C   UNL     1      32.251  -5.611 -23.372  0.00  0.00    +0.249 C 
BRANCH  20  21
ATOM     21  C   UNL     1      30.927  -5.911 -22.792  0.00  0.00    +0.058 C 
ATOM     22  C   UNL     1      30.480  -5.160 -21.783  0.00  0.00    +0.005 C 
ENDBRANCH  20  21
ENDBRANCH   1  15
BRANCH   7  23
ATOM     23  C   UNL     1      34.056 -13.800 -23.256  0.00  0.00    +0.016 C 
ATOM     24  C   UNL     1      33.842 -14.361 -24.515  0.00  0.00    +0.004 C 
ATOM     25  C   UNL     1      34.777 -14.505 -22.293  0.00  0.00    +0.004 C 
ATOM     26  C   UNL     1      34.347 -15.627 -24.809  0.00  0.00    +0.038 C 
ATOM     27  C   UNL     1      35.284 -15.771 -22.587  0.00  0.00    +0.038 C 
ATOM     28  C   UNL     1      35.068 -16.332 -23.846  0.00  0.00    +0.145 C 
BRANCH  28  29
ATOM     29  O   UNL     1      35.559 -17.569 -24.132  0.00  0.00    -0.453 OA
BRANCH  29  30
ATOM     30  C   UNL     1      35.771 -18.438 -23.075  0.00  0.00    +0.145 C 
ATOM     31  C   UNL     1      34.741 -19.273 -22.642  0.00  0.00    +0.037 C 
ATOM     32  C   UNL     1      37.014 -18.479 -22.443  0.00  0.00    +0.037 C 
ATOM     33  C   UNL     1      34.954 -20.149 -21.577  0.00  0.00    +0.003 C 
ATOM     34  C   UNL     1      37.227 -19.354 -21.378  0.00  0.00    +0.003 C 
ATOM     35  C   UNL     1      36.196 -20.188 -20.945  0.00  0.00    +0.000 C 
ENDBRANCH  29  30
ENDBRANCH  28  29
ENDBRANCH   7  23
TORSDOF 5
ENDMDL
MODEL 6
REMARK VINA RESULT:     -11.0      4.908     11.554
REMARK  Name = 24821094
REMARK  5 active torsions:
REMARK  status: ('A' for Active; 'I' for Inactive)
REMARK    1  A    between atoms: N_1  and  C_12
REMARK    2  A    between atoms: C_7  and  C_20
REMARK    3  A    between atoms: C_17  and  C_18
REMARK    4  A    between atoms: C_25  and  O_26
REMARK    5  A    between atoms: O_26  and  C_27
REMARK                            x       y       z     vdW  Elec       q    Type
REMARK                         _______ _______ _______ _____ _____    ______ ____
ROOT
ATOM      1  N   UNL     1      36.238 -23.085 -16.577  0.00  0.00    -0.198 N 
ATOM      2  N   UNL     1      36.708 -22.331 -17.588  0.00  0.00    -0.181 NA
ATOM      3  N   UNL     1      34.146 -23.978 -15.751  0.00  0.00    -0.231 NA
ATOM      4  N   UNL     1      32.267 -23.332 -17.166  0.00  0.00    -0.234 NA
ATOM      5  C   UNL     1      34.889 -23.275 -16.619  0.00  0.00    +0.137 C 
ATOM      6  C   UNL     1      34.443 -22.596 -17.739  0.00  0.00    +0.150 C 
ATOM      7  C   UNL     1      35.609 -22.036 -18.292  0.00  0.00    +0.090 C 
ATOM      8  C   UNL     1      33.078 -22.640 -18.002  0.00  0.00    +0.112 C 
ATOM      9  C   UNL     1      32.843 -23.950 -16.108  0.00  0.00    +0.252 C 
ATOM     10  N   UNL     1      32.528 -21.982 -19.118  0.00  0.00    -0.346 N 
ATOM     11  H   UNL     1      31.558 -22.027 -19.286  0.00  0.00    +0.143 HD
ATOM     12  H   UNL     1      33.111 -21.479 -19.730  0.00  0.00    +0.143 HD
ENDROOT
BRANCH   1  15
ATOM     13  O   UNL     1      38.215 -25.937 -11.665  0.00  0.00    -0.270 OA
ATOM     14  N   UNL     1      37.619 -25.363 -13.837  0.00  0.00    -0.274 N 
ATOM     15  C   UNL     1      37.202 -23.626 -15.538  0.00  0.00    +0.117 C 
ATOM     16  C   UNL     1      38.594 -23.907 -16.138  0.00  0.00    +0.025 C 
ATOM     17  C   UNL     1      36.656 -24.885 -14.841  0.00  0.00    +0.115 C 
ATOM     18  C   UNL     1      39.543 -24.479 -15.083  0.00  0.00    +0.023 C 
ATOM     19  C   UNL     1      38.935 -25.695 -14.386  0.00  0.00    +0.094 C 
ATOM     20  C   UNL     1      37.384 -25.525 -12.475  0.00  0.00    +0.249 C 
BRANCH  20  21
ATOM     21  C   UNL     1      36.046 -25.172 -11.961  0.00  0.00    +0.058 C 
ATOM     22  C   UNL     1      35.955 -24.443 -10.847  0.00  0.00    +0.005 C 
ENDBRANCH  20  21
ENDBRANCH   1  15
BRANCH   7  23
ATOM     23  C   UNL     1      35.715 -21.223 -19.478  0.00  0.00    +0.016 C 
ATOM     24  C   UNL     1      34.587 -20.990 -20.265  0.00  0.00    +0.004 C 
ATOM     25  C   UNL     1      36.943 -20.668 -19.837  0.00  0.00    +0.004 C 
ATOM     26  C   UNL     1      34.689 -20.203 -21.412  0.00  0.00    +0.038 C 
ATOM     27  C   UNL     1      37.044 -19.881 -20.984  0.00  0.00    +0.038 C 
ATOM     28  C   UNL     1      35.917 -19.649 -21.771  0.00  0.00    +0.145 C 
BRANCH  28  29
ATOM     29  O   UNL     1      36.017 -18.883 -22.893  0.00  0.00    -0.453 OA
BRANCH  29  30
ATOM     30  C   UNL     1      35.591 -17.568 -22.815  0.00  0.00    +0.145 C 
ATOM     31  C   UNL     1      35.347 -16.987 -21.570  0.00  0.00    +0.037 C 
ATOM     32  C   UNL     1      35.406 -16.824 -23.980  0.00  0.00    +0.037 C 
ATOM     33  C   UNL     1      34.917 -15.662 -21.492  0.00  0.00    +0.003 C 
ATOM     34  C   UNL     1      34.977 -15.500 -23.902  0.00  0.00    +0.003 C 
ATOM     35  C   UNL     1      34.732 -14.919 -22.657  0.00  0.00    +0.000 C 
ENDBRANCH  29  30
ENDBRANCH  28  29
ENDBRANCH   7  23
TORSDOF 5
ENDMDL
MODEL 7
REMARK VINA RESULT:     -10.9      4.773     12.243
REMARK  Name = 24821094
REMARK  5 active torsions:
REMARK  status: ('A' for Active; 'I' for Inactive)
REMARK    1  A    between atoms: N_1  and  C_12
REMARK    2  A    between atoms: C_7  and  C_20
REMARK    3  A    between atoms: C_17  and  C_18
REMARK    4  A    between atoms: C_25  and  O_26
REMARK    5  A    between atoms: O_26  and  C_27
REMARK                            x       y       z     vdW  Elec       q    Type
REMARK                         _______ _______ _______ _____ _____    ______ ____
ROOT
ATOM      1  N   UNL     1      33.112 -11.734 -22.697  0.00  0.00    -0.198 N 
ATOM      2  N   UNL     1      33.385 -10.733 -23.554  0.00  0.00    -0.181 NA
ATOM      3  N   UNL     1      32.197 -12.080 -20.483  0.00  0.00    -0.231 NA
ATOM      4  N   UNL     1      31.549  -9.975 -19.435  0.00  0.00    -0.234 NA
ATOM      5  C   UNL     1      32.569 -11.314 -21.520  0.00  0.00    +0.137 C 
ATOM      6  C   UNL     1      32.478  -9.936 -21.612  0.00  0.00    +0.150 C 
ATOM      7  C   UNL     1      32.995  -9.640 -22.887  0.00  0.00    +0.090 C 
ATOM      8  C   UNL     1      31.945  -9.264 -20.517  0.00  0.00    +0.112 C 
ATOM      9  C   UNL     1      31.698 -11.321 -19.484  0.00  0.00    +0.252 C 
ATOM     10  N   UNL     1      31.810  -7.863 -20.516  0.00  0.00    -0.346 N 
ATOM     11  H   UNL     1      31.429  -7.407 -19.731  0.00  0.00    +0.143 HD
ATOM     12  H   UNL     1      32.094  -7.340 -21.300  0.00  0.00    +0.143 HD
ENDROOT
BRANCH   1  15
ATOM     13  O   UNL     1      34.282 -16.479 -26.203  0.00  0.00    -0.270 OA
ATOM     14  N   UNL     1      34.445 -14.644 -24.785  0.00  0.00    -0.274 N 
ATOM     15  C   UNL     1      33.421 -13.164 -23.098  0.00  0.00    +0.117 C 
ATOM     16  C   UNL     1      34.197 -13.914 -21.997  0.00  0.00    +0.025 C 
ATOM     17  C   UNL     1      34.180 -13.240 -24.434  0.00  0.00    +0.115 C 
ATOM     18  C   UNL     1      34.525 -15.345 -22.432  0.00  0.00    +0.023 C 
ATOM     19  C   UNL     1      35.232 -15.369 -23.785  0.00  0.00    +0.094 C 
ATOM     20  C   UNL     1      34.033 -15.302 -25.940  0.00  0.00    +0.249 C 
BRANCH  20  21
ATOM     21  C   UNL     1      33.235 -14.537 -26.919  0.00  0.00    +0.058 C 
ATOM     22  C   UNL     1      33.831 -13.573 -27.624  0.00  0.00    +0.005 C 
ENDBRANCH  20  21
ENDBRANCH   1  15
BRANCH   7  23
ATOM     23  C   UNL     1      33.133  -8.341 -23.497  0.00  0.00    +0.016 C 
ATOM     24  C   UNL     1      34.385  -7.731 -23.562  0.00  0.00    +0.004 C 
ATOM     25  C   UNL     1      32.014  -7.696 -24.024  0.00  0.00    +0.004 C 
ATOM     26  C   UNL     1      34.519  -6.475 -24.152  0.00  0.00    +0.038 C 
ATOM     27  C   UNL     1      32.148  -6.439 -24.616  0.00  0.00    +0.038 C 
ATOM     28  C   UNL     1      33.400  -5.829 -24.679  0.00  0.00    +0.145 C 
BRANCH  28  29
ATOM     29  O   UNL     1      33.530  -4.601 -25.253  0.00  0.00    -0.453 OA
BRANCH  29  30
ATOM     30  C   UNL     1      32.539  -3.667 -25.006  0.00  0.00    +0.145 C 
ATOM     31  C   UNL     1      32.073  -3.472 -23.706  0.00  0.00    +0.037 C 
ATOM     32  C   UNL     1      32.005  -2.921 -26.057  0.00  0.00    +0.037 C 
ATOM     33  C   UNL     1      31.074  -2.530 -23.456  0.00  0.00    +0.003 C 
ATOM     34  C   UNL     1      31.006  -1.980 -25.808  0.00  0.00    +0.003 C 
ATOM     35  C   UNL     1      30.540  -1.786 -24.508  0.00  0.00    +0.000 C 
ENDBRANCH  29  30
ENDBRANCH  28  29
ENDBRANCH   7  23
TORSDOF 5
ENDMDL
MODEL 8
REMARK VINA RESULT:     -10.7      1.622      2.484
REMARK  Name = 24821094
REMARK  5 active torsions:
REMARK  status: ('A' for Active; 'I' for Inactive)
REMARK    1  A    between atoms: N_1  and  C_12
REMARK    2  A    between atoms: C_7  and  C_20
REMARK    3  A    between atoms: C_17  and  C_18
REMARK    4  A    between atoms: C_25  and  O_26
REMARK    5  A    between atoms: O_26  and  C_27
REMARK                            x       y       z     vdW  Elec       q    Type
REMARK                         _______ _______ _______ _____ _____    ______ ____
ROOT
ATOM      1  N   UNL     1      33.763 -13.055 -23.429  0.00  0.00    -0.198 N 
ATOM      2  N   UNL     1      34.241 -14.007 -22.607  0.00  0.00    -0.181 NA
ATOM      3  N   UNL     1      33.301 -12.698 -25.778  0.00  0.00    -0.231 NA
ATOM      4  N   UNL     1      33.865 -14.658 -27.117  0.00  0.00    -0.234 NA
ATOM      5  C   UNL     1      33.726 -13.432 -24.739  0.00  0.00    +0.137 C 
ATOM      6  C   UNL     1      34.215 -14.726 -24.776  0.00  0.00    +0.150 C 
ATOM      7  C   UNL     1      34.514 -15.023 -23.434  0.00  0.00    +0.090 C 
ATOM      8  C   UNL     1      34.278 -15.341 -26.023  0.00  0.00    +0.112 C 
ATOM      9  C   UNL     1      33.409 -13.397 -26.930  0.00  0.00    +0.252 C 
ATOM     10  N   UNL     1      34.759 -16.656 -26.164  0.00  0.00    -0.346 N 
ATOM     11  H   UNL     1      34.794 -17.073 -27.056  0.00  0.00    +0.143 HD
ATOM     12  H   UNL     1      35.059 -17.159 -25.373  0.00  0.00    +0.143 HD
ENDROOT
BRANCH   1  15
ATOM     13  O   UNL     1      33.134  -7.100 -22.863  0.00  0.00    -0.270 OA
ATOM     14  N   UNL     1      32.813  -9.355 -23.330  0.00  0.00    -0.274 N 
ATOM     15  C   UNL     1      33.332 -11.719 -22.854  0.00  0.00    +0.117 C 
ATOM     16  C   UNL     1      32.010 -11.831 -22.070  0.00  0.00    +0.025 C 
ATOM     17  C   UNL     1      33.221 -10.631 -23.937  0.00  0.00    +0.115 C 
ATOM     18  C   UNL     1      31.577 -10.469 -21.523  0.00  0.00    +0.023 C 
ATOM     19  C   UNL     1      31.530  -9.414 -22.626  0.00  0.00    +0.094 C 
ATOM     20  C   UNL     1      33.513  -8.153 -23.377  0.00  0.00    +0.249 C 
BRANCH  20  21
ATOM     21  C   UNL     1      34.806  -8.138 -24.091  0.00  0.00    +0.058 C 
ATOM     22  C   UNL     1      35.195  -7.014 -24.697  0.00  0.00    +0.005 C 
ENDBRANCH  20  21
ENDBRANCH   1  15
BRANCH   7  23
ATOM     23  C   UNL     1      35.056 -16.250 -22.907  0.00  0.00    +0.016 C 
ATOM     24  C   UNL     1      35.438 -17.272 -23.775  0.00  0.00    +0.004 C 
ATOM     25  C   UNL     1      35.200 -16.415 -21.530  0.00  0.00    +0.004 C 
ATOM     26  C   UNL     1      35.963 -18.460 -23.265  0.00  0.00    +0.038 C 
ATOM     27  C   UNL     1      35.726 -17.602 -21.020  0.00  0.00    +0.038 C 
ATOM     28  C   UNL     1      36.107 -18.625 -21.888  0.00  0.00    +0.145 C 
BRANCH  28  29
ATOM     29  O   UNL     1      36.616 -19.785 -21.391  0.00  0.00    -0.453 OA
BRANCH  29  30
ATOM     30  C   UNL     1      35.777 -20.584 -20.633  0.00  0.00    +0.145 C 
ATOM     31  C   UNL     1      36.313 -21.459 -19.689  0.00  0.00    +0.037 C 
ATOM     32  C   UNL     1      34.395 -20.515 -20.815  0.00  0.00    +0.037 C 
ATOM     33  C   UNL     1      35.467 -22.266 -18.925  0.00  0.00    +0.003 C 
ATOM     34  C   UNL     1      33.550 -21.320 -20.052  0.00  0.00    +0.003 C 
ATOM     35  C   UNL     1      34.087 -22.196 -19.108  0.00  0.00    +0.000 C 
ENDBRANCH  29  30
ENDBRANCH  28  29
ENDBRANCH   7  23
TORSDOF 5
ENDMDL
MODEL 9
REMARK VINA RESULT:     -10.6      1.934      9.891
REMARK  Name = 24821094
REMARK  5 active torsions:
REMARK  status: ('A' for Active; 'I' for Inactive)
REMARK    1  A    between atoms: N_1  and  C_12
REMARK    2  A    between atoms: C_7  and  C_20
REMARK    3  A    between atoms: C_17  and  C_18
REMARK    4  A    between atoms: C_25  and  O_26
REMARK    5  A    between atoms: O_26  and  C_27
REMARK                            x       y       z     vdW  Elec       q    Type
REMARK                         _______ _______ _______ _____ _____    ______ ____
ROOT
ATOM      1  N   UNL     1      34.892 -16.439 -22.733  0.00  0.00    -0.198 N 
ATOM      2  N   UNL     1      34.481 -15.302 -22.142  0.00  0.00    -0.181 NA
ATOM      3  N   UNL     1      34.971 -17.463 -24.925  0.00  0.00    -0.231 NA
ATOM      4  N   UNL     1      34.013 -16.012 -26.634  0.00  0.00    -0.234 NA
ATOM      5  C   UNL     1      34.669 -16.468 -24.077  0.00  0.00    +0.137 C 
ATOM      6  C   UNL     1      34.067 -15.261 -24.390  0.00  0.00    +0.150 C 
ATOM      7  C   UNL     1      33.979 -14.589 -23.157  0.00  0.00    +0.090 C 
ATOM      8  C   UNL     1      33.736 -15.048 -25.724  0.00  0.00    +0.112 C 
ATOM      9  C   UNL     1      34.605 -17.144 -26.185  0.00  0.00    +0.252 C 
ATOM     10  N   UNL     1      33.122 -13.852 -26.142  0.00  0.00    -0.346 N 
ATOM     11  H   UNL     1      32.897 -13.721 -27.091  0.00  0.00    +0.143 HD
ATOM     12  H   UNL     1      32.920 -13.147 -25.485  0.00  0.00    +0.143 HD
ENDROOT
BRANCH   1  15
ATOM     13  O   UNL     1      35.513 -21.614 -19.732  0.00  0.00    -0.270 OA
ATOM     14  N   UNL     1      35.570 -19.929 -21.333  0.00  0.00    -0.274 N 
ATOM     15  C   UNL     1      35.533 -17.527 -21.893  0.00  0.00    +0.117 C 
ATOM     16  C   UNL     1      37.063 -17.565 -22.074  0.00  0.00    +0.025 C 
ATOM     17  C   UNL     1      34.926 -18.912 -22.178  0.00  0.00    +0.115 C 
ATOM     18  C   UNL     1      37.688 -18.688 -21.242  0.00  0.00    +0.023 C 
ATOM     19  C   UNL     1      37.018 -20.031 -21.525  0.00  0.00    +0.094 C 
ATOM     20  C   UNL     1      34.940 -20.766 -20.417  0.00  0.00    +0.249 C 
BRANCH  20  21
ATOM     21  C   UNL     1      33.479 -20.626 -20.249  0.00  0.00    +0.058 C 
ATOM     22  C   UNL     1      32.830 -21.510 -19.489  0.00  0.00    +0.005 C 
ENDBRANCH  20  21
ENDBRANCH   1  15
BRANCH   7  23
ATOM     23  C   UNL     1      33.429 -13.279 -22.910  0.00  0.00    +0.016 C 
ATOM     24  C   UNL     1      33.873 -12.186 -23.654  0.00  0.00    +0.004 C 
ATOM     25  C   UNL     1      32.452 -13.106 -21.930  0.00  0.00    +0.004 C 
ATOM     26  C   UNL     1      33.341 -10.919 -23.415  0.00  0.00    +0.038 C 
ATOM     27  C   UNL     1      31.919 -11.839 -21.692  0.00  0.00    +0.038 C 
ATOM     28  C   UNL     1      32.364 -10.745 -22.435  0.00  0.00    +0.145 C 
BRANCH  28  29
ATOM     29  O   UNL     1      31.847  -9.508 -22.200  0.00  0.00    -0.453 OA
BRANCH  29  30
ATOM     30  C   UNL     1      32.410  -8.437 -22.872  0.00  0.00    +0.145 C 
ATOM     31  C   UNL     1      33.685  -7.989 -22.526  0.00  0.00    +0.037 C 
ATOM     32  C   UNL     1      31.703  -7.803 -23.895  0.00  0.00    +0.037 C 
ATOM     33  C   UNL     1      34.253  -6.909 -23.202  0.00  0.00    +0.003 C 
ATOM     34  C   UNL     1      32.270  -6.724 -24.571  0.00  0.00    +0.003 C 
ATOM     35  C   UNL     1      33.545  -6.276 -24.224  0.00  0.00    +0.000 C 
ENDBRANCH  29  30
ENDBRANCH  28  29
ENDBRANCH   7  23
TORSDOF 5
ENDMDL
