MODEL 1
REMARK VINA RESULT:     -11.3      0.000      0.000
REMARK  Name = 16720766
REMARK  7 active torsions:
REMARK  status: ('A' for Active; 'I' for Inactive)
REMARK    1  A    between atoms: N_1  and  C_10
REMARK    2  A    between atoms: C_11  and  C_17
REMARK    3  A    between atoms: C_13  and  O_15
REMARK    4  A    between atoms: C_17  and  O_18
REMARK    5  A    between atoms: O_18  and  S_19
REMARK    6  A    between atoms: S_19  and  N_22
REMARK    7  A    between atoms: N_25  and  C_27
REMARK                            x       y       z     vdW  Elec       q    Type
REMARK                         _______ _______ _______ _____ _____    ______ ____
ROOT
ATOM      1  N   UNL     1      34.267 -21.699 -19.604  0.00  0.00    -0.276 N 
ATOM      2  N   UNL     1      36.531 -20.896 -19.823  0.00  0.00    -0.233 NA
ATOM      3  N   UNL     1      36.733 -19.036 -21.379  0.00  0.00    -0.233 NA
ATOM      4  C   UNL     1      35.220 -20.864 -20.123  0.00  0.00    +0.120 C 
ATOM      5  C   UNL     1      33.043 -21.380 -20.134  0.00  0.00    +0.062 C 
ATOM      6  C   UNL     1      34.593 -19.992 -21.004  0.00  0.00    +0.131 C 
ATOM      7  C   UNL     1      33.214 -20.325 -21.004  0.00  0.00    +0.004 C 
ATOM      8  C   UNL     1      35.397 -19.041 -21.653  0.00  0.00    +0.113 C 
ATOM      9  C   UNL     1      37.207 -19.946 -20.498  0.00  0.00    +0.252 C 
ATOM     10  N   UNL     1      34.859 -18.129 -22.548  0.00  0.00    -0.319 N 
ATOM     11  H   UNL     1      33.890 -18.163 -22.719  0.00  0.00    +0.148 HD
ENDROOT
BRANCH  10  12
ATOM     12  C   UNL     1      35.637 -17.132 -23.242  0.00  0.00    +0.093 C 
ATOM     13  C   UNL     1      35.640 -17.394 -24.760  0.00  0.00    +0.029 C 
ATOM     14  C   UNL     1      34.962 -15.795 -23.179  0.00  0.00    -0.008 C 
ATOM     15  C   UNL     1      34.431 -16.645 -25.346  0.00  0.00    +0.028 C 
ATOM     16  C   UNL     1      34.286 -15.517 -24.374  0.00  0.00    -0.025 C 
ATOM     17  C   UNL     1      34.934 -14.903 -22.119  0.00  0.00    -0.003 C 
ATOM     18  C   UNL     1      33.563 -14.346 -24.529  0.00  0.00    -0.005 C 
ATOM     19  C   UNL     1      34.218 -13.714 -22.273  0.00  0.00    -0.000 C 
ATOM     20  C   UNL     1      33.536 -13.439 -23.469  0.00  0.00    -0.000 C 
ENDBRANCH  10  12
BRANCH   1  21
ATOM     21  C   UNL     1      34.504 -22.768 -18.637  0.00  0.00    +0.081 C 
ATOM     22  C   UNL     1      33.455 -23.000 -16.440  0.00  0.00    +0.061 C 
ATOM     23  C   UNL     1      33.233 -23.286 -17.931  0.00  0.00    +0.025 C 
ATOM     24  C   UNL     1      34.973 -23.096 -16.280  0.00  0.00    +0.115 C 
ATOM     25  C   UNL     1      35.491 -22.373 -17.519  0.00  0.00    +0.049 C 
BRANCH  24  26
ATOM     26  O   UNL     1      35.401 -24.452 -16.299  0.00  0.00    -0.384 OA
ATOM     27  H   UNL     1      36.361 -24.490 -16.162  0.00  0.00    +0.210 HD
ENDBRANCH  24  26
BRANCH  22  28
ATOM     28  C   UNL     1      32.662 -23.936 -15.541  0.00  0.00    +0.176 C 
BRANCH  28  29
ATOM     29  O   UNL     1      31.473 -24.315 -16.213  0.00  0.00    -0.230 OA
BRANCH  29  30
ATOM     30  S   UNL     1      30.056 -23.588 -15.836  0.00  0.00    +0.045 S 
ATOM     31  O   UNL     1      29.036 -24.612 -15.695  0.00  0.00    -0.056 OA
ATOM     32  O   UNL     1      30.317 -22.668 -14.745  0.00  0.00    -0.056 OA
BRANCH  30  33
ATOM     33  N   UNL     1      29.684 -22.655 -17.225  0.00  0.00    -0.204 NA
ATOM     34  H   UNL     1      30.548 -22.376 -17.689  0.00  0.00    +0.144 HD
ATOM     35  H   UNL     1      29.165 -21.822 -16.946  0.00  0.00    +0.144 HD
ENDBRANCH  30  33
ENDBRANCH  29  30
ENDBRANCH  28  29
ENDBRANCH  22  28
ENDBRANCH   1  21
TORSDOF 7
ENDMDL
MODEL 2
REMARK VINA RESULT:     -10.8      2.111      2.498
REMARK  Name = 16720766
REMARK  7 active torsions:
REMARK  status: ('A' for Active; 'I' for Inactive)
REMARK    1  A    between atoms: N_1  and  C_10
REMARK    2  A    between atoms: C_11  and  C_17
REMARK    3  A    between atoms: C_13  and  O_15
REMARK    4  A    between atoms: C_17  and  O_18
REMARK    5  A    between atoms: O_18  and  S_19
REMARK    6  A    between atoms: S_19  and  N_22
REMARK    7  A    between atoms: N_25  and  C_27
REMARK                            x       y       z     vdW  Elec       q    Type
REMARK                         _______ _______ _______ _____ _____    ______ ____
ROOT
ATOM      1  N   UNL     1      35.018 -21.298 -20.002  0.00  0.00    -0.276 N 
ATOM      2  N   UNL     1      37.132 -20.215 -20.419  0.00  0.00    -0.233 NA
ATOM      3  N   UNL     1      36.974 -18.422 -22.058  0.00  0.00    -0.233 NA
ATOM      4  C   UNL     1      35.811 -20.371 -20.622  0.00  0.00    +0.120 C 
ATOM      5  C   UNL     1      33.728 -21.170 -20.451  0.00  0.00    +0.062 C 
ATOM      6  C   UNL     1      35.013 -19.633 -21.488  0.00  0.00    +0.131 C 
ATOM      7  C   UNL     1      33.696 -20.145 -21.373  0.00  0.00    +0.004 C 
ATOM      8  C   UNL     1      35.636 -18.617 -22.232  0.00  0.00    +0.113 C 
ATOM      9  C   UNL     1      37.625 -19.218 -21.179  0.00  0.00    +0.252 C 
ATOM     10  N   UNL     1      34.919 -17.829 -23.119  0.00  0.00    -0.319 N 
ATOM     11  H   UNL     1      33.954 -17.999 -23.216  0.00  0.00    +0.148 HD
ENDROOT
BRANCH  10  12
ATOM     12  C   UNL     1      35.506 -16.773 -23.907  0.00  0.00    +0.093 C 
ATOM     13  C   UNL     1      35.174 -16.951 -25.401  0.00  0.00    +0.029 C 
ATOM     14  C   UNL     1      34.840 -15.462 -23.616  0.00  0.00    -0.008 C 
ATOM     15  C   UNL     1      33.852 -16.206 -25.658  0.00  0.00    +0.028 C 
ATOM     16  C   UNL     1      33.910 -15.138 -24.612  0.00  0.00    -0.025 C 
ATOM     17  C   UNL     1      35.035 -14.630 -22.525  0.00  0.00    -0.003 C 
ATOM     18  C   UNL     1      33.151 -13.983 -24.532  0.00  0.00    -0.005 C 
ATOM     19  C   UNL     1      34.282 -13.457 -22.443  0.00  0.00    -0.000 C 
ATOM     20  C   UNL     1      33.346 -13.136 -23.440  0.00  0.00    -0.000 C 
ENDBRANCH  10  12
BRANCH   1  21
ATOM     21  C   UNL     1      35.463 -22.278 -19.015  0.00  0.00    +0.081 C 
ATOM     22  C   UNL     1      34.412 -22.747 -16.857  0.00  0.00    +0.061 C 
ATOM     23  C   UNL     1      34.324 -23.081 -18.351  0.00  0.00    +0.025 C 
ATOM     24  C   UNL     1      35.902 -22.480 -16.637  0.00  0.00    +0.115 C 
ATOM     25  C   UNL     1      36.283 -21.658 -17.865  0.00  0.00    +0.049 C 
BRANCH  24  26
ATOM     26  O   UNL     1      36.640 -23.696 -16.624  0.00  0.00    -0.384 OA
ATOM     27  H   UNL     1      37.585 -23.500 -16.529  0.00  0.00    +0.210 HD
ENDBRANCH  24  26
BRANCH  22  28
ATOM     28  C   UNL     1      33.828 -23.842 -15.977  0.00  0.00    +0.176 C 
BRANCH  28  29
ATOM     29  O   UNL     1      34.000 -23.476 -14.618  0.00  0.00    -0.230 OA
BRANCH  29  30
ATOM     30  S   UNL     1      35.041 -24.314 -13.673  0.00  0.00    +0.045 S 
ATOM     31  O   UNL     1      36.243 -23.519 -13.493  0.00  0.00    -0.056 OA
ATOM     32  O   UNL     1      34.298 -24.779 -12.516  0.00  0.00    -0.056 OA
BRANCH  30  33
ATOM     33  N   UNL     1      35.447 -25.687 -14.616  0.00  0.00    -0.204 NA
ATOM     34  H   UNL     1      36.427 -25.631 -14.894  0.00  0.00    +0.144 HD
ATOM     35  H   UNL     1      34.858 -25.714 -15.448  0.00  0.00    +0.144 HD
ENDBRANCH  30  33
ENDBRANCH  29  30
ENDBRANCH  28  29
ENDBRANCH  22  28
ENDBRANCH   1  21
TORSDOF 7
ENDMDL
MODEL 3
REMARK VINA RESULT:     -10.6      8.255     11.803
REMARK  Name = 16720766
REMARK  7 active torsions:
REMARK  status: ('A' for Active; 'I' for Inactive)
REMARK    1  A    between atoms: N_1  and  C_10
REMARK    2  A    between atoms: C_11  and  C_17
REMARK    3  A    between atoms: C_13  and  O_15
REMARK    4  A    between atoms: C_17  and  O_18
REMARK    5  A    between atoms: O_18  and  S_19
REMARK    6  A    between atoms: S_19  and  N_22
REMARK    7  A    between atoms: N_25  and  C_27
REMARK                            x       y       z     vdW  Elec       q    Type
REMARK                         _______ _______ _______ _____ _____    ______ ____
ROOT
ATOM      1  N   UNL     1      33.391 -12.845 -22.592  0.00  0.00    -0.276 N 
ATOM      2  N   UNL     1      33.655 -14.077 -24.648  0.00  0.00    -0.233 NA
ATOM      3  N   UNL     1      34.679 -16.261 -24.321  0.00  0.00    -0.233 NA
ATOM      4  C   UNL     1      33.779 -13.940 -23.316  0.00  0.00    +0.120 C 
ATOM      5  C   UNL     1      33.670 -13.051 -21.265  0.00  0.00    +0.062 C 
ATOM      6  C   UNL     1      34.320 -14.868 -22.433  0.00  0.00    +0.131 C 
ATOM      7  C   UNL     1      34.245 -14.297 -21.137  0.00  0.00    +0.004 C 
ATOM      8  C   UNL     1      34.785 -16.077 -22.975  0.00  0.00    +0.113 C 
ATOM      9  C   UNL     1      34.131 -15.269 -25.059  0.00  0.00    +0.252 C 
ATOM     10  N   UNL     1      35.338 -17.063 -22.171  0.00  0.00    -0.319 N 
ATOM     11  H   UNL     1      35.397 -16.893 -21.203  0.00  0.00    +0.148 HD
ENDROOT
BRANCH  10  12
ATOM     12  C   UNL     1      35.832 -18.322 -22.672  0.00  0.00    +0.093 C 
ATOM     13  C   UNL     1      37.370 -18.374 -22.612  0.00  0.00    +0.029 C 
ATOM     14  C   UNL     1      35.466 -19.441 -21.745  0.00  0.00    -0.008 C 
ATOM     15  C   UNL     1      37.744 -18.946 -21.233  0.00  0.00    +0.028 C 
ATOM     16  C   UNL     1      36.552 -19.799 -20.936  0.00  0.00    -0.025 C 
ATOM     17  C   UNL     1      34.241 -20.077 -21.616  0.00  0.00    -0.003 C 
ATOM     18  C   UNL     1      36.433 -20.792 -19.978  0.00  0.00    -0.005 C 
ATOM     19  C   UNL     1      34.117 -21.088 -20.661  0.00  0.00    -0.000 C 
ATOM     20  C   UNL     1      35.205 -21.442 -19.847  0.00  0.00    -0.000 C 
ENDBRANCH  10  12
BRANCH   1  21
ATOM     21  C   UNL     1      32.775 -11.637 -23.136  0.00  0.00    +0.081 C 
ATOM     22  C   UNL     1      33.641  -9.357 -22.958  0.00  0.00    +0.061 C 
ATOM     23  C   UNL     1      33.768 -10.646 -23.780  0.00  0.00    +0.025 C 
ATOM     24  C   UNL     1      32.186  -9.375 -22.487  0.00  0.00    +0.115 C 
ATOM     25  C   UNL     1      31.978 -10.833 -22.089  0.00  0.00    +0.049 C 
BRANCH  24  26
ATOM     26  O   UNL     1      31.304  -9.034 -23.548  0.00  0.00    -0.384 OA
ATOM     27  H   UNL     1      30.532  -9.621 -23.528  0.00  0.00    +0.210 HD
ENDBRANCH  24  26
BRANCH  22  28
ATOM     28  C   UNL     1      34.037  -8.118 -23.748  0.00  0.00    +0.176 C 
BRANCH  28  29
ATOM     29  O   UNL     1      33.584  -6.970 -23.051  0.00  0.00    -0.230 OA
BRANCH  29  30
ATOM     30  S   UNL     1      32.786  -5.789 -23.856  0.00  0.00    +0.045 S 
ATOM     31  O   UNL     1      33.731  -5.096 -24.713  0.00  0.00    -0.056 OA
ATOM     32  O   UNL     1      31.591  -6.384 -24.426  0.00  0.00    -0.056 OA
BRANCH  30  33
ATOM     33  N   UNL     1      32.291  -4.705 -22.624  0.00  0.00    -0.204 NA
ATOM     34  H   UNL     1      32.969  -3.948 -22.544  0.00  0.00    +0.144 HD
ATOM     35  H   UNL     1      32.233  -5.204 -21.736  0.00  0.00    +0.144 HD
ENDBRANCH  30  33
ENDBRANCH  29  30
ENDBRANCH  28  29
ENDBRANCH  22  28
ENDBRANCH   1  21
TORSDOF 7
ENDMDL
MODEL 4
REMARK VINA RESULT:      -9.8      5.725      9.192
REMARK  Name = 16720766
REMARK  7 active torsions:
REMARK  status: ('A' for Active; 'I' for Inactive)
REMARK    1  A    between atoms: N_1  and  C_10
REMARK    2  A    between atoms: C_11  and  C_17
REMARK    3  A    between atoms: C_13  and  O_15
REMARK    4  A    between atoms: C_17  and  O_18
REMARK    5  A    between atoms: O_18  and  S_19
REMARK    6  A    between atoms: S_19  and  N_22
REMARK    7  A    between atoms: N_25  and  C_27
REMARK                            x       y       z     vdW  Elec       q    Type
REMARK                         _______ _______ _______ _____ _____    ______ ____
ROOT
ATOM      1  N   UNL     1      33.812 -13.969 -23.765  0.00  0.00    -0.276 N 
ATOM      2  N   UNL     1      32.396 -13.752 -21.825  0.00  0.00    -0.233 NA
ATOM      3  N   UNL     1      31.820 -11.442 -21.323  0.00  0.00    -0.233 NA
ATOM      4  C   UNL     1      33.091 -13.241 -22.858  0.00  0.00    +0.120 C 
ATOM      5  C   UNL     1      34.389 -13.122 -24.676  0.00  0.00    +0.062 C 
ATOM      6  C   UNL     1      33.209 -11.898 -23.194  0.00  0.00    +0.131 C 
ATOM      7  C   UNL     1      34.032 -11.832 -24.347  0.00  0.00    +0.004 C 
ATOM      8  C   UNL     1      32.538 -10.969 -22.382  0.00  0.00    +0.113 C 
ATOM      9  C   UNL     1      31.795 -12.777 -21.115  0.00  0.00    +0.252 C 
ATOM     10  N   UNL     1      32.597  -9.608 -22.641  0.00  0.00    -0.319 N 
ATOM     11  H   UNL     1      33.125  -9.306 -23.415  0.00  0.00    +0.148 HD
ENDROOT
BRANCH  10  12
ATOM     12  C   UNL     1      31.929  -8.610 -21.842  0.00  0.00    +0.093 C 
ATOM     13  C   UNL     1      32.785  -8.216 -20.624  0.00  0.00    +0.029 C 
ATOM     14  C   UNL     1      31.853  -7.306 -22.577  0.00  0.00    -0.008 C 
ATOM     15  C   UNL     1      33.682  -7.047 -21.067  0.00  0.00    +0.028 C 
ATOM     16  C   UNL     1      32.841  -6.419 -22.132  0.00  0.00    -0.025 C 
ATOM     17  C   UNL     1      30.977  -6.949 -23.591  0.00  0.00    -0.003 C 
ATOM     18  C   UNL     1      32.979  -5.162 -22.696  0.00  0.00    -0.005 C 
ATOM     19  C   UNL     1      31.102  -5.678 -24.156  0.00  0.00    -0.000 C 
ATOM     20  C   UNL     1      32.097  -4.791 -23.712  0.00  0.00    -0.000 C 
ENDBRANCH  10  12
BRANCH   1  21
ATOM     21  C   UNL     1      33.954 -15.423 -23.773  0.00  0.00    +0.081 C 
ATOM     22  C   UNL     1      35.983 -16.688 -23.259  0.00  0.00    +0.061 C 
ATOM     23  C   UNL     1      34.784 -15.992 -22.602  0.00  0.00    +0.025 C 
ATOM     24  C   UNL     1      35.431 -17.160 -24.605  0.00  0.00    +0.115 C 
ATOM     25  C   UNL     1      34.598 -15.967 -25.065  0.00  0.00    +0.049 C 
BRANCH  24  26
ATOM     26  O   UNL     1      34.593 -18.297 -24.439  0.00  0.00    -0.384 OA
ATOM     27  H   UNL     1      34.269 -18.329 -23.525  0.00  0.00    +0.210 HD
ENDBRANCH  24  26
BRANCH  22  28
ATOM     28  C   UNL     1      36.566 -17.792 -22.390  0.00  0.00    +0.176 C 
BRANCH  28  29
ATOM     29  O   UNL     1      35.586 -18.195 -21.448  0.00  0.00    -0.230 OA
BRANCH  29  30
ATOM     30  S   UNL     1      35.118 -19.762 -21.379  0.00  0.00    +0.045 S 
ATOM     31  O   UNL     1      33.798 -19.823 -20.775  0.00  0.00    -0.056 OA
ATOM     32  O   UNL     1      35.343 -20.341 -22.691  0.00  0.00    -0.056 OA
BRANCH  30  33
ATOM     33  N   UNL     1      36.233 -20.483 -20.294  0.00  0.00    -0.204 NA
ATOM     34  H   UNL     1      35.754 -20.730 -19.428  0.00  0.00    +0.144 HD
ATOM     35  H   UNL     1      36.984 -19.825 -20.092  0.00  0.00    +0.144 HD
ENDBRANCH  30  33
ENDBRANCH  29  30
ENDBRANCH  28  29
ENDBRANCH  22  28
ENDBRANCH   1  21
TORSDOF 7
ENDMDL
MODEL 5
REMARK VINA RESULT:      -9.8      2.919      3.895
REMARK  Name = 16720766
REMARK  7 active torsions:
REMARK  status: ('A' for Active; 'I' for Inactive)
REMARK    1  A    between atoms: N_1  and  C_10
REMARK    2  A    between atoms: C_11  and  C_17
REMARK    3  A    between atoms: C_13  and  O_15
REMARK    4  A    between atoms: C_17  and  O_18
REMARK    5  A    between atoms: O_18  and  S_19
REMARK    6  A    between atoms: S_19  and  N_22
REMARK    7  A    between atoms: N_25  and  C_27
REMARK                            x       y       z     vdW  Elec       q    Type
REMARK                         _______ _______ _______ _____ _____    ______ ____
ROOT
ATOM      1  N   UNL     1      33.934 -22.483 -17.904  0.00  0.00    -0.276 N 
ATOM      2  N   UNL     1      36.284 -22.007 -18.163  0.00  0.00    -0.233 NA
ATOM      3  N   UNL     1      36.777 -20.721 -20.169  0.00  0.00    -0.233 NA
ATOM      4  C   UNL     1      35.002 -21.937 -18.564  0.00  0.00    +0.120 C 
ATOM      5  C   UNL     1      32.782 -22.216 -18.599  0.00  0.00    +0.062 C 
ATOM      6  C   UNL     1      34.524 -21.308 -19.707  0.00  0.00    +0.131 C 
ATOM      7  C   UNL     1      33.118 -21.489 -19.721  0.00  0.00    +0.004 C 
ATOM      8  C   UNL     1      35.465 -20.676 -20.537  0.00  0.00    +0.113 C 
ATOM      9  C   UNL     1      37.098 -21.371 -19.028  0.00  0.00    +0.252 C 
ATOM     10  N   UNL     1      35.081 -20.021 -21.697  0.00  0.00    -0.319 N 
ATOM     11  H   UNL     1      34.124 -20.010 -21.928  0.00  0.00    +0.148 HD
ENDROOT
BRANCH  10  12
ATOM     12  C   UNL     1      36.003 -19.357 -22.585  0.00  0.00    +0.093 C 
ATOM     13  C   UNL     1      35.933 -19.957 -24.002  0.00  0.00    +0.029 C 
ATOM     14  C   UNL     1      35.565 -17.947 -22.845  0.00  0.00    -0.008 C 
ATOM     15  C   UNL     1      34.857 -19.169 -24.769  0.00  0.00    +0.028 C 
ATOM     16  C   UNL     1      34.923 -17.840 -24.085  0.00  0.00    -0.025 C 
ATOM     17  C   UNL     1      35.708 -16.843 -22.019  0.00  0.00    -0.003 C 
ATOM     18  C   UNL     1      34.405 -16.632 -24.520  0.00  0.00    -0.005 C 
ATOM     19  C   UNL     1      35.200 -15.618 -22.455  0.00  0.00    -0.000 C 
ATOM     20  C   UNL     1      34.552 -15.514 -23.697  0.00  0.00    -0.000 C 
ENDBRANCH  10  12
BRANCH   1  21
ATOM     21  C   UNL     1      33.997 -23.235 -16.654  0.00  0.00    +0.081 C 
ATOM     22  C   UNL     1      35.996 -23.650 -15.307  0.00  0.00    +0.061 C 
ATOM     23  C   UNL     1      34.904 -22.607 -15.573  0.00  0.00    +0.025 C 
ATOM     24  C   UNL     1      35.293 -24.981 -15.578  0.00  0.00    +0.115 C 
ATOM     25  C   UNL     1      34.486 -24.686 -16.838  0.00  0.00    +0.049 C 
BRANCH  24  26
ATOM     26  O   UNL     1      34.416 -25.319 -14.511  0.00  0.00    -0.384 OA
ATOM     27  H   UNL     1      34.642 -24.792 -13.728  0.00  0.00    +0.210 HD
ENDBRANCH  24  26
BRANCH  22  28
ATOM     28  C   UNL     1      36.599 -23.523 -13.916  0.00  0.00    +0.176 C 
BRANCH  28  29
ATOM     29  O   UNL     1      37.056 -24.799 -13.499  0.00  0.00    -0.230 OA
BRANCH  29  30
ATOM     30  S   UNL     1      36.889 -25.254 -11.936  0.00  0.00    +0.045 S 
ATOM     31  O   UNL     1      37.275 -26.649 -11.818  0.00  0.00    -0.056 OA
ATOM     32  O   UNL     1      37.544 -24.248 -11.119  0.00  0.00    -0.056 OA
BRANCH  30  33
ATOM     33  N   UNL     1      35.203 -25.142 -11.646  0.00  0.00    -0.204 NA
ATOM     34  H   UNL     1      34.832 -24.317 -12.117  0.00  0.00    +0.144 HD
ATOM     35  H   UNL     1      35.036 -25.065 -10.643  0.00  0.00    +0.144 HD
ENDBRANCH  30  33
ENDBRANCH  29  30
ENDBRANCH  28  29
ENDBRANCH  22  28
ENDBRANCH   1  21
TORSDOF 7
ENDMDL
MODEL 6
REMARK VINA RESULT:      -9.7      5.425      9.685
REMARK  Name = 16720766
REMARK  7 active torsions:
REMARK  status: ('A' for Active; 'I' for Inactive)
REMARK    1  A    between atoms: N_1  and  C_10
REMARK    2  A    between atoms: C_11  and  C_17
REMARK    3  A    between atoms: C_13  and  O_15
REMARK    4  A    between atoms: C_17  and  O_18
REMARK    5  A    between atoms: O_18  and  S_19
REMARK    6  A    between atoms: S_19  and  N_22
REMARK    7  A    between atoms: N_25  and  C_27
REMARK                            x       y       z     vdW  Elec       q    Type
REMARK                         _______ _______ _______ _____ _____    ______ ____
ROOT
ATOM      1  N   UNL     1      34.594 -19.789 -21.265  0.00  0.00    -0.276 N 
ATOM      2  N   UNL     1      36.373 -20.757 -19.956  0.00  0.00    -0.233 NA
ATOM      3  N   UNL     1      35.595 -22.477 -18.420  0.00  0.00    -0.233 NA
ATOM      4  C   UNL     1      35.083 -20.651 -20.320  0.00  0.00    +0.120 C 
ATOM      5  C   UNL     1      33.237 -19.953 -21.375  0.00  0.00    +0.062 C 
ATOM      6  C   UNL     1      34.015 -21.382 -19.813  0.00  0.00    +0.131 C 
ATOM      7  C   UNL     1      32.851 -20.935 -20.487  0.00  0.00    +0.004 C 
ATOM      8  C   UNL     1      34.300 -22.335 -18.820  0.00  0.00    +0.113 C 
ATOM      9  C   UNL     1      36.532 -21.695 -19.001  0.00  0.00    +0.252 C 
ATOM     10  N   UNL     1      33.299 -23.112 -18.258  0.00  0.00    -0.319 N 
ATOM     11  H   UNL     1      32.376 -22.980 -18.574  0.00  0.00    +0.148 HD
ENDROOT
BRANCH  10  12
ATOM     12  C   UNL     1      33.533 -24.103 -17.236  0.00  0.00    +0.093 C 
ATOM     13  C   UNL     1      34.773 -23.746 -16.396  0.00  0.00    +0.029 C 
ATOM     14  C   UNL     1      32.454 -24.057 -16.196  0.00  0.00    -0.008 C 
ATOM     15  C   UNL     1      34.286 -22.872 -15.227  0.00  0.00    +0.028 C 
ATOM     16  C   UNL     1      32.884 -23.367 -15.056  0.00  0.00    -0.025 C 
ATOM     17  C   UNL     1      31.171 -24.574 -16.276  0.00  0.00    -0.003 C 
ATOM     18  C   UNL     1      32.039 -23.172 -13.978  0.00  0.00    -0.005 C 
ATOM     19  C   UNL     1      30.316 -24.393 -15.187  0.00  0.00    -0.000 C 
ATOM     20  C   UNL     1      30.746 -23.696 -14.046  0.00  0.00    -0.000 C 
ENDBRANCH  10  12
BRANCH   1  21
ATOM     21  C   UNL     1      35.384 -18.837 -22.041  0.00  0.00    +0.081 C 
ATOM     22  C   UNL     1      34.763 -16.534 -22.583  0.00  0.00    +0.061 C 
ATOM     23  C   UNL     1      35.386 -17.399 -21.480  0.00  0.00    +0.025 C 
ATOM     24  C   UNL     1      35.155 -17.260 -23.871  0.00  0.00    +0.115 C 
ATOM     25  C   UNL     1      34.934 -18.726 -23.512  0.00  0.00    +0.049 C 
BRANCH  24  26
ATOM     26  O   UNL     1      36.525 -17.040 -24.181  0.00  0.00    -0.384 OA
ATOM     27  H   UNL     1      36.633 -16.983 -25.144  0.00  0.00    +0.210 HD
ENDBRANCH  24  26
BRANCH  22  28
ATOM     28  C   UNL     1      35.212 -15.082 -22.512  0.00  0.00    +0.176 C 
BRANCH  28  29
ATOM     29  O   UNL     1      35.159 -14.525 -23.814  0.00  0.00    -0.230 OA
BRANCH  29  30
ATOM     30  S   UNL     1      33.871 -13.620 -24.262  0.00  0.00    +0.045 S 
ATOM     31  O   UNL     1      32.930 -13.578 -23.157  0.00  0.00    -0.056 OA
ATOM     32  O   UNL     1      34.385 -12.384 -24.826  0.00  0.00    -0.056 OA
BRANCH  30  33
ATOM     33  N   UNL     1      33.156 -14.515 -25.537  0.00  0.00    -0.204 NA
ATOM     34  H   UNL     1      32.401 -15.091 -25.166  0.00  0.00    +0.144 HD
ATOM     35  H   UNL     1      33.860 -15.114 -25.968  0.00  0.00    +0.144 HD
ENDBRANCH  30  33
ENDBRANCH  29  30
ENDBRANCH  28  29
ENDBRANCH  22  28
ENDBRANCH   1  21
TORSDOF 7
ENDMDL
MODEL 7
REMARK VINA RESULT:      -9.7      6.777     10.402
REMARK  Name = 16720766
REMARK  7 active torsions:
REMARK  status: ('A' for Active; 'I' for Inactive)
REMARK    1  A    between atoms: N_1  and  C_10
REMARK    2  A    between atoms: C_11  and  C_17
REMARK    3  A    between atoms: C_13  and  O_15
REMARK    4  A    between atoms: C_17  and  O_18
REMARK    5  A    between atoms: O_18  and  S_19
REMARK    6  A    between atoms: S_19  and  N_22
REMARK    7  A    between atoms: N_25  and  C_27
REMARK                            x       y       z     vdW  Elec       q    Type
REMARK                         _______ _______ _______ _____ _____    ______ ____
ROOT
ATOM      1  N   UNL     1      34.991 -15.679 -22.900  0.00  0.00    -0.276 N 
ATOM      2  N   UNL     1      35.295 -17.593 -24.335  0.00  0.00    -0.233 NA
ATOM      3  N   UNL     1      35.534 -19.677 -23.101  0.00  0.00    -0.233 NA
ATOM      4  C   UNL     1      35.178 -17.016 -23.125  0.00  0.00    +0.120 C 
ATOM      5  C   UNL     1      34.916 -15.449 -21.550  0.00  0.00    +0.062 C 
ATOM      6  C   UNL     1      35.224 -17.657 -21.893  0.00  0.00    +0.131 C 
ATOM      7  C   UNL     1      35.057 -16.658 -20.901  0.00  0.00    +0.004 C 
ATOM      8  C   UNL     1      35.410 -19.050 -21.897  0.00  0.00    +0.113 C 
ATOM      9  C   UNL     1      35.470 -18.925 -24.222  0.00  0.00    +0.252 C 
ATOM     10  N   UNL     1      35.467 -19.774 -20.716  0.00  0.00    -0.319 N 
ATOM     11  H   UNL     1      35.372 -19.284 -19.867  0.00  0.00    +0.148 HD
ENDROOT
BRANCH  10  12
ATOM     12  C   UNL     1      35.657 -21.203 -20.660  0.00  0.00    +0.093 C 
ATOM     13  C   UNL     1      37.086 -21.552 -20.206  0.00  0.00    +0.029 C 
ATOM     14  C   UNL     1      34.845 -21.802 -19.552  0.00  0.00    -0.008 C 
ATOM     15  C   UNL     1      37.057 -21.645 -18.670  0.00  0.00    +0.028 C 
ATOM     16  C   UNL     1      35.640 -22.059 -18.428  0.00  0.00    -0.025 C 
ATOM     17  C   UNL     1      33.486 -22.074 -19.540  0.00  0.00    -0.003 C 
ATOM     18  C   UNL     1      35.093 -22.584 -17.270  0.00  0.00    -0.005 C 
ATOM     19  C   UNL     1      32.928 -22.615 -18.380  0.00  0.00    -0.000 C 
ATOM     20  C   UNL     1      33.726 -22.868 -17.253  0.00  0.00    -0.000 C 
ENDBRANCH  10  12
BRANCH   1  21
ATOM     21  C   UNL     1      34.888 -14.647 -23.928  0.00  0.00    +0.081 C 
ATOM     22  C   UNL     1      33.489 -12.642 -23.839  0.00  0.00    +0.061 C 
ATOM     23  C   UNL     1      34.842 -13.203 -23.383  0.00  0.00    +0.025 C 
ATOM     24  C   UNL     1      33.222 -13.378 -25.153  0.00  0.00    +0.115 C 
ATOM     25  C   UNL     1      33.650 -14.807 -24.833  0.00  0.00    +0.049 C 
BRANCH  24  26
ATOM     26  O   UNL     1      34.029 -12.857 -26.201  0.00  0.00    -0.384 OA
ATOM     27  H   UNL     1      34.943 -12.762 -25.889  0.00  0.00    +0.210 HD
ENDBRANCH  24  26
BRANCH  22  28
ATOM     28  C   UNL     1      33.493 -11.125 -23.952  0.00  0.00    +0.176 C 
BRANCH  28  29
ATOM     29  O   UNL     1      32.659 -10.591 -22.937  0.00  0.00    -0.230 OA
BRANCH  29  30
ATOM     30  S   UNL     1      32.630  -8.976 -22.673  0.00  0.00    +0.045 S 
ATOM     31  O   UNL     1      33.891  -8.412 -23.120  0.00  0.00    -0.056 OA
ATOM     32  O   UNL     1      31.378  -8.472 -23.209  0.00  0.00    -0.056 OA
BRANCH  30  33
ATOM     33  N   UNL     1      32.559  -8.834 -20.966  0.00  0.00    -0.204 NA
ATOM     34  H   UNL     1      32.165  -9.688 -20.570  0.00  0.00    +0.144 HD
ATOM     35  H   UNL     1      31.970  -8.041 -20.715  0.00  0.00    +0.144 HD
ENDBRANCH  30  33
ENDBRANCH  29  30
ENDBRANCH  28  29
ENDBRANCH  22  28
ENDBRANCH   1  21
TORSDOF 7
ENDMDL
MODEL 8
REMARK VINA RESULT:      -9.5      5.366     10.225
REMARK  Name = 16720766
REMARK  7 active torsions:
REMARK  status: ('A' for Active; 'I' for Inactive)
REMARK    1  A    between atoms: N_1  and  C_10
REMARK    2  A    between atoms: C_11  and  C_17
REMARK    3  A    between atoms: C_13  and  O_15
REMARK    4  A    between atoms: C_17  and  O_18
REMARK    5  A    between atoms: O_18  and  S_19
REMARK    6  A    between atoms: S_19  and  N_22
REMARK    7  A    between atoms: N_25  and  C_27
REMARK                            x       y       z     vdW  Elec       q    Type
REMARK                         _______ _______ _______ _____ _____    ______ ____
ROOT
ATOM      1  N   UNL     1      36.081 -20.970 -20.112  0.00  0.00    -0.276 N 
ATOM      2  N   UNL     1      34.222 -22.431 -19.639  0.00  0.00    -0.233 NA
ATOM      3  N   UNL     1      34.340 -23.431 -17.423  0.00  0.00    -0.233 NA
ATOM      4  C   UNL     1      35.378 -21.826 -19.309  0.00  0.00    +0.120 C 
ATOM      5  C   UNL     1      37.207 -20.546 -19.453  0.00  0.00    +0.062 C 
ATOM      6  C   UNL     1      36.067 -21.954 -18.109  0.00  0.00    +0.131 C 
ATOM      7  C   UNL     1      37.224 -21.140 -18.209  0.00  0.00    +0.004 C 
ATOM      8  C   UNL     1      35.511 -22.797 -17.132  0.00  0.00    +0.113 C 
ATOM      9  C   UNL     1      33.780 -23.213 -18.634  0.00  0.00    +0.252 C 
ATOM     10  N   UNL     1      36.128 -22.984 -15.905  0.00  0.00    -0.319 N 
ATOM     11  H   UNL     1      36.972 -22.508 -15.732  0.00  0.00    +0.148 HD
ENDROOT
BRANCH  10  12
ATOM     12  C   UNL     1      35.603 -23.837 -14.866  0.00  0.00    +0.093 C 
ATOM     13  C   UNL     1      35.430 -25.281 -15.373  0.00  0.00    +0.029 C 
ATOM     14  C   UNL     1      36.615 -24.030 -13.778  0.00  0.00    -0.008 C 
ATOM     15  C   UNL     1      36.755 -26.013 -15.099  0.00  0.00    +0.028 C 
ATOM     16  C   UNL     1      37.261 -25.266 -13.906  0.00  0.00    -0.025 C 
ATOM     17  C   UNL     1      36.952 -23.151 -12.760  0.00  0.00    -0.003 C 
ATOM     18  C   UNL     1      38.261 -25.644 -13.026  0.00  0.00    -0.005 C 
ATOM     19  C   UNL     1      37.951 -23.531 -11.861  0.00  0.00    -0.000 C 
ATOM     20  C   UNL     1      38.602 -24.768 -11.994  0.00  0.00    -0.000 C 
ENDBRANCH  10  12
BRANCH   1  21
ATOM     21  C   UNL     1      35.705 -20.564 -21.464  0.00  0.00    +0.081 C 
ATOM     22  C   UNL     1      35.469 -18.270 -22.279  0.00  0.00    +0.061 C 
ATOM     23  C   UNL     1      36.507 -19.368 -22.020  0.00  0.00    +0.025 C 
ATOM     24  C   UNL     1      34.198 -19.052 -22.618  0.00  0.00    +0.115 C 
ATOM     25  C   UNL     1      34.216 -20.184 -21.595  0.00  0.00    +0.049 C 
BRANCH  24  26
ATOM     26  O   UNL     1      34.267 -19.589 -23.932  0.00  0.00    -0.384 OA
ATOM     27  H   UNL     1      33.937 -20.502 -23.926  0.00  0.00    +0.210 HD
ENDBRANCH  24  26
BRANCH  22  28
ATOM     28  C   UNL     1      35.912 -17.286 -23.352  0.00  0.00    +0.176 C 
BRANCH  28  29
ATOM     29  O   UNL     1      34.777 -16.572 -23.812  0.00  0.00    -0.230 OA
BRANCH  29  30
ATOM     30  S   UNL     1      34.518 -16.400 -25.419  0.00  0.00    +0.045 S 
ATOM     31  O   UNL     1      35.762 -15.986 -26.044  0.00  0.00    -0.056 OA
ATOM     32  O   UNL     1      33.837 -17.596 -25.879  0.00  0.00    -0.056 OA
BRANCH  30  33
ATOM     33  N   UNL     1      33.409 -15.097 -25.525  0.00  0.00    -0.204 NA
ATOM     34  H   UNL     1      32.459 -15.449 -25.410  0.00  0.00    +0.144 HD
ATOM     35  H   UNL     1      33.497 -14.650 -26.438  0.00  0.00    +0.144 HD
ENDBRANCH  30  33
ENDBRANCH  29  30
ENDBRANCH  28  29
ENDBRANCH  22  28
ENDBRANCH   1  21
TORSDOF 7
ENDMDL
MODEL 9
REMARK VINA RESULT:      -8.9      3.822      6.687
REMARK  Name = 16720766
REMARK  7 active torsions:
REMARK  status: ('A' for Active; 'I' for Inactive)
REMARK    1  A    between atoms: N_1  and  C_10
REMARK    2  A    between atoms: C_11  and  C_17
REMARK    3  A    between atoms: C_13  and  O_15
REMARK    4  A    between atoms: C_17  and  O_18
REMARK    5  A    between atoms: O_18  and  S_19
REMARK    6  A    between atoms: S_19  and  N_22
REMARK    7  A    between atoms: N_25  and  C_27
REMARK                            x       y       z     vdW  Elec       q    Type
REMARK                         _______ _______ _______ _____ _____    ______ ____
ROOT
ATOM      1  N   UNL     1      35.040 -16.106 -22.128  0.00  0.00    -0.276 N 
ATOM      2  N   UNL     1      34.434 -15.432 -24.362  0.00  0.00    -0.233 NA
ATOM      3  N   UNL     1      33.374 -13.242 -24.439  0.00  0.00    -0.233 NA
ATOM      4  C   UNL     1      34.505 -15.230 -23.034  0.00  0.00    +0.120 C 
ATOM      5  C   UNL     1      34.943 -15.574 -20.867  0.00  0.00    +0.062 C 
ATOM      6  C   UNL     1      34.056 -14.114 -22.339  0.00  0.00    +0.131 C 
ATOM      7  C   UNL     1      34.338 -14.339 -20.968  0.00  0.00    +0.004 C 
ATOM      8  C   UNL     1      33.467 -13.082 -23.088  0.00  0.00    +0.113 C 
ATOM      9  C   UNL     1      33.853 -14.385 -24.981  0.00  0.00    +0.252 C 
ATOM     10  N   UNL     1      32.992 -11.929 -22.482  0.00  0.00    -0.319 N 
ATOM     11  H   UNL     1      33.079 -11.850 -21.504  0.00  0.00    +0.148 HD
ENDROOT
BRANCH  10  12
ATOM     12  C   UNL     1      32.379 -10.839 -23.200  0.00  0.00    +0.093 C 
ATOM     13  C   UNL     1      31.237 -10.212 -22.380  0.00  0.00    +0.029 C 
ATOM     14  C   UNL     1      33.324  -9.682 -23.316  0.00  0.00    -0.008 C 
ATOM     15  C   UNL     1      31.862  -9.098 -21.521  0.00  0.00    +0.028 C 
ATOM     16  C   UNL     1      33.025  -8.693 -22.370  0.00  0.00    -0.025 C 
ATOM     17  C   UNL     1      34.391  -9.536 -24.188  0.00  0.00    -0.003 C 
ATOM     18  C   UNL     1      33.791  -7.544 -22.272  0.00  0.00    -0.005 C 
ATOM     19  C   UNL     1      35.161  -8.374 -24.103  0.00  0.00    -0.000 C 
ATOM     20  C   UNL     1      34.864  -7.385 -23.151  0.00  0.00    -0.000 C 
ENDBRANCH  10  12
BRANCH   1  21
ATOM     21  C   UNL     1      35.623 -17.408 -22.440  0.00  0.00    +0.081 C 
ATOM     22  C   UNL     1      35.410 -19.453 -21.115  0.00  0.00    +0.061 C 
ATOM     23  C   UNL     1      34.690 -18.609 -22.175  0.00  0.00    +0.025 C 
ATOM     24  C   UNL     1      36.891 -19.195 -21.399  0.00  0.00    +0.115 C 
ATOM     25  C   UNL     1      36.928 -17.694 -21.668  0.00  0.00    +0.049 C 
BRANCH  24  26
ATOM     26  O   UNL     1      37.317 -19.904 -22.556  0.00  0.00    -0.384 OA
ATOM     27  H   UNL     1      36.687 -20.616 -22.749  0.00  0.00    +0.210 HD
ENDBRANCH  24  26
BRANCH  22  28
ATOM     28  C   UNL     1      35.002 -20.917 -21.157  0.00  0.00    +0.176 C 
BRANCH  28  29
ATOM     29  O   UNL     1      35.397 -21.535 -19.944  0.00  0.00    -0.230 OA
BRANCH  29  30
ATOM     30  S   UNL     1      34.322 -22.436 -19.101  0.00  0.00    +0.045 S 
ATOM     31  O   UNL     1      34.905 -22.763 -17.812  0.00  0.00    -0.056 OA
ATOM     32  O   UNL     1      33.040 -21.757 -19.167  0.00  0.00    -0.056 OA
BRANCH  30  33
ATOM     33  N   UNL     1      34.189 -23.885 -20.008  0.00  0.00    -0.204 NA
ATOM     34  H   UNL     1      34.646 -23.764 -20.911  0.00  0.00    +0.144 HD
ATOM     35  H   UNL     1      33.204 -24.106 -20.153  0.00  0.00    +0.144 HD
ENDBRANCH  30  33
ENDBRANCH  29  30
ENDBRANCH  28  29
ENDBRANCH  22  28
ENDBRANCH   1  21
TORSDOF 7
ENDMDL
