MODEL 1
REMARK VINA RESULT:     -11.3      0.000      0.000
REMARK  Name = 135565554
REMARK  0 active torsions:
REMARK  status: ('A' for Active; 'I' for Inactive)
REMARK                            x       y       z     vdW  Elec       q    Type
REMARK                         _______ _______ _______ _____ _____    ______ ____
ROOT
ATOM      1  F   UNL     1      29.718 -24.587 -14.817  0.00  0.00    -0.204 F 
ATOM      2  O   UNL     1      32.611 -22.770 -18.409  0.00  0.00    -0.268 OA
ATOM      3  N   UNL     1      37.848 -24.327 -14.391  0.00  0.00    +0.397 N 
ATOM      4  N   UNL     1      34.313 -24.733 -13.210  0.00  0.00    -0.358 N 
ATOM      5  N   UNL     1      35.946 -22.840 -17.102  0.00  0.00    -0.185 NA
ATOM      6  N   UNL     1      34.778 -22.745 -17.778  0.00  0.00    -0.203 N 
ATOM      7  C   UNL     1      36.865 -24.456 -13.281  0.00  0.00    -0.007 C 
ATOM      8  C   UNL     1      37.200 -25.852 -12.751  0.00  0.00    -0.016 C 
ATOM      9  C   UNL     1      35.472 -24.349 -13.824  0.00  0.00    +0.017 A 
ATOM     10  C   UNL     1      38.008 -25.644 -15.022  0.00  0.00    -0.076 C 
ATOM     11  C   UNL     1      37.541 -26.664 -13.992  0.00  0.00    -0.024 C 
ATOM     12  C   UNL     1      37.578 -23.251 -15.361  0.00  0.00    -0.028 C 
ATOM     13  C   UNL     1      35.144 -23.823 -15.052  0.00  0.00    +0.024 A 
ATOM     14  C   UNL     1      37.104 -23.389 -12.207  0.00  0.00    -0.015 C 
ATOM     15  C   UNL     1      36.152 -23.307 -15.917  0.00  0.00    +0.056 C 
ATOM     16  C   UNL     1      33.765 -23.927 -15.223  0.00  0.00    +0.022 A 
ATOM     17  C   UNL     1      33.248 -24.493 -14.054  0.00  0.00    +0.059 A 
ATOM     18  C   UNL     1      32.920 -23.586 -16.274  0.00  0.00    +0.059 C 
ATOM     19  C   UNL     1      31.882 -24.730 -13.879  0.00  0.00    +0.047 C 
ATOM     20  C   UNL     1      33.443 -23.015 -17.527  0.00  0.00    +0.265 C 
ATOM     21  C   UNL     1      31.542 -23.820 -16.111  0.00  0.00    +0.034 C 
ATOM     22  C   UNL     1      31.037 -24.378 -14.934  0.00  0.00    +0.142 C 
ATOM     23  H   UNL     1      38.731 -24.024 -13.980  0.00  0.00    -0.078 HD
ATOM     24  H   UNL     1      34.248 -25.122 -12.307  0.00  0.00    +0.166 HD
ATOM     25  H   UNL     1      34.912 -22.391 -18.686  0.00  0.00    +0.178 HD
ENDROOT
TORSDOF 0
ENDMDL
MODEL 2
REMARK VINA RESULT:      -9.8      3.023      5.903
REMARK  Name = 135565554
REMARK  0 active torsions:
REMARK  status: ('A' for Active; 'I' for Inactive)
REMARK                            x       y       z     vdW  Elec       q    Type
REMARK                         _______ _______ _______ _____ _____    ______ ____
ROOT
ATOM      1  F   UNL     1      35.940 -22.069 -19.617  0.00  0.00    -0.204 F 
ATOM      2  O   UNL     1      36.856 -23.392 -14.929  0.00  0.00    -0.268 OA
ATOM      3  N   UNL     1      30.170 -24.367 -14.349  0.00  0.00    +0.397 N 
ATOM      4  N   UNL     1      31.651 -22.915 -17.472  0.00  0.00    -0.358 N 
ATOM      5  N   UNL     1      33.648 -23.907 -13.418  0.00  0.00    -0.185 NA
ATOM      6  N   UNL     1      34.939 -23.779 -13.801  0.00  0.00    -0.203 N 
ATOM      7  C   UNL     1      30.019 -23.584 -15.604  0.00  0.00    -0.007 C 
ATOM      8  C   UNL     1      29.179 -24.543 -16.452  0.00  0.00    -0.016 C 
ATOM      9  C   UNL     1      31.370 -23.305 -16.192  0.00  0.00    +0.017 A 
ATOM     10  C   UNL     1      30.293 -25.788 -14.702  0.00  0.00    -0.076 C 
ATOM     11  C   UNL     1      29.701 -25.928 -16.098  0.00  0.00    -0.024 C 
ATOM     12  C   UNL     1      31.226 -23.906 -13.431  0.00  0.00    -0.028 C 
ATOM     13  C   UNL     1      32.559 -23.392 -15.507  0.00  0.00    +0.024 A 
ATOM     14  C   UNL     1      29.266 -22.273 -15.351  0.00  0.00    -0.015 C 
ATOM     15  C   UNL     1      32.582 -23.753 -14.128  0.00  0.00    +0.056 C 
ATOM     16  C   UNL     1      33.599 -23.100 -16.388  0.00  0.00    +0.022 A 
ATOM     17  C   UNL     1      33.017 -22.792 -17.621  0.00  0.00    +0.059 A 
ATOM     18  C   UNL     1      34.980 -23.073 -16.234  0.00  0.00    +0.059 C 
ATOM     19  C   UNL     1      33.778 -22.436 -18.738  0.00  0.00    +0.047 C 
ATOM     20  C   UNL     1      35.620 -23.422 -14.953  0.00  0.00    +0.265 C 
ATOM     21  C   UNL     1      35.758 -22.717 -17.351  0.00  0.00    +0.034 C 
ATOM     22  C   UNL     1      35.165 -22.402 -18.576  0.00  0.00    +0.142 C 
ATOM     23  H   UNL     1      29.327 -24.214 -13.794  0.00  0.00    -0.078 HD
ATOM     24  H   UNL     1      30.983 -22.751 -18.177  0.00  0.00    +0.166 HD
ATOM     25  H   UNL     1      35.558 -23.998 -13.068  0.00  0.00    +0.178 HD
ENDROOT
TORSDOF 0
ENDMDL
MODEL 3
REMARK VINA RESULT:      -9.0     14.609     17.050
REMARK  Name = 135565554
REMARK  0 active torsions:
REMARK  status: ('A' for Active; 'I' for Inactive)
REMARK                            x       y       z     vdW  Elec       q    Type
REMARK                         _______ _______ _______ _____ _____    ______ ____
ROOT
ATOM      1  F   UNL     1      32.750 -14.514 -22.335  0.00  0.00    -0.204 F 
ATOM      2  O   UNL     1      31.658 -11.740 -18.375  0.00  0.00    -0.268 OA
ATOM      3  N   UNL     1      32.370  -6.380 -22.469  0.00  0.00    +0.397 N 
ATOM      4  N   UNL     1      33.147  -9.847 -23.665  0.00  0.00    -0.358 N 
ATOM      5  N   UNL     1      32.061  -8.339 -19.428  0.00  0.00    -0.185 NA
ATOM      6  N   UNL     1      31.841  -9.539 -18.845  0.00  0.00    -0.203 N 
ATOM      7  C   UNL     1      33.055  -7.291 -23.425  0.00  0.00    -0.007 C 
ATOM      8  C   UNL     1      32.255  -7.032 -24.704  0.00  0.00    -0.016 C 
ATOM      9  C   UNL     1      32.949  -8.706 -22.939  0.00  0.00    +0.017 A 
ATOM     10  C   UNL     1      30.936  -6.367 -22.788  0.00  0.00    -0.076 C 
ATOM     11  C   UNL     1      30.822  -6.841 -24.231  0.00  0.00    -0.024 C 
ATOM     12  C   UNL     1      32.643  -6.629 -21.043  0.00  0.00    -0.028 C 
ATOM     13  C   UNL     1      32.638  -9.075 -21.651  0.00  0.00    +0.024 A 
ATOM     14  C   UNL     1      34.524  -6.897 -23.607  0.00  0.00    -0.015 C 
ATOM     15  C   UNL     1      32.404  -8.090 -20.647  0.00  0.00    +0.056 C 
ATOM     16  C   UNL     1      32.595 -10.466 -21.588  0.00  0.00    +0.022 A 
ATOM     17  C   UNL     1      32.926 -10.944 -22.859  0.00  0.00    +0.059 A 
ATOM     18  C   UNL     1      32.303 -11.350 -20.556  0.00  0.00    +0.059 C 
ATOM     19  C   UNL     1      32.990 -12.310 -23.150  0.00  0.00    +0.047 C 
ATOM     20  C   UNL     1      31.924 -10.871 -19.215  0.00  0.00    +0.265 C 
ATOM     21  C   UNL     1      32.364 -12.729 -20.835  0.00  0.00    +0.034 C 
ATOM     22  C   UNL     1      32.704 -13.195 -22.108  0.00  0.00    +0.142 C 
ATOM     23  H   UNL     1      32.768  -5.450 -22.600  0.00  0.00    -0.078 HD
ATOM     24  H   UNL     1      33.405  -9.880 -24.615  0.00  0.00    +0.166 HD
ATOM     25  H   UNL     1      31.545  -9.440 -17.912  0.00  0.00    +0.178 HD
ENDROOT
TORSDOF 0
ENDMDL
MODEL 4
REMARK VINA RESULT:      -8.8      2.609      4.155
REMARK  Name = 135565554
REMARK  0 active torsions:
REMARK  status: ('A' for Active; 'I' for Inactive)
REMARK                            x       y       z     vdW  Elec       q    Type
REMARK                         _______ _______ _______ _____ _____    ______ ____
ROOT
ATOM      1  F   UNL     1      36.799 -21.004 -19.604  0.00  0.00    -0.204 F 
ATOM      2  O   UNL     1      32.663 -22.879 -17.616  0.00  0.00    -0.268 OA
ATOM      3  N   UNL     1      36.554 -24.814 -12.409  0.00  0.00    +0.397 N 
ATOM      4  N   UNL     1      38.053 -23.259 -15.473  0.00  0.00    -0.358 N 
ATOM      5  N   UNL     1      33.700 -24.584 -14.640  0.00  0.00    -0.185 NA
ATOM      6  N   UNL     1      33.109 -23.991 -15.702  0.00  0.00    -0.203 N 
ATOM      7  C   UNL     1      37.729 -24.571 -13.290  0.00  0.00    -0.007 C 
ATOM      8  C   UNL     1      38.570 -23.643 -12.410  0.00  0.00    -0.016 C 
ATOM      9  C   UNL     1      37.279 -23.927 -14.566  0.00  0.00    +0.017 A 
ATOM     10  C   UNL     1      36.268 -23.578 -11.668  0.00  0.00    -0.076 C 
ATOM     11  C   UNL     1      37.555 -22.763 -11.696  0.00  0.00    -0.024 C 
ATOM     12  C   UNL     1      35.366 -25.378 -13.071  0.00  0.00    -0.028 C 
ATOM     13  C   UNL     1      35.985 -23.923 -15.033  0.00  0.00    +0.024 A 
ATOM     14  C   UNL     1      38.477 -25.876 -13.583  0.00  0.00    -0.015 C 
ATOM     15  C   UNL     1      34.946 -24.576 -14.307  0.00  0.00    +0.056 C 
ATOM     16  C   UNL     1      35.947 -23.199 -16.223  0.00  0.00    +0.022 A 
ATOM     17  C   UNL     1      37.255 -22.792 -16.498  0.00  0.00    +0.059 A 
ATOM     18  C   UNL     1      34.908 -22.861 -17.083  0.00  0.00    +0.059 C 
ATOM     19  C   UNL     1      37.583 -22.049 -17.634  0.00  0.00    +0.047 C 
ATOM     20  C   UNL     1      33.516 -23.252 -16.801  0.00  0.00    +0.265 C 
ATOM     21  C   UNL     1      35.225 -22.111 -18.232  0.00  0.00    +0.034 C 
ATOM     22  C   UNL     1      36.538 -21.718 -18.500  0.00  0.00    +0.142 C 
ATOM     23  H   UNL     1      36.810 -25.560 -11.763  0.00  0.00    -0.078 HD
ATOM     24  H   UNL     1      39.027 -23.129 -15.405  0.00  0.00    +0.166 HD
ATOM     25  H   UNL     1      32.133 -24.119 -15.693  0.00  0.00    +0.178 HD
ENDROOT
TORSDOF 0
ENDMDL
MODEL 5
REMARK VINA RESULT:      -8.5      9.212     11.402
REMARK  Name = 135565554
REMARK  0 active torsions:
REMARK  status: ('A' for Active; 'I' for Inactive)
REMARK                            x       y       z     vdW  Elec       q    Type
REMARK                         _______ _______ _______ _____ _____    ______ ____
ROOT
ATOM      1  F   UNL     1      33.085 -12.035 -21.120  0.00  0.00    -0.204 F 
ATOM      2  O   UNL     1      33.264 -13.701 -25.785  0.00  0.00    -0.268 OA
ATOM      3  N   UNL     1      35.825 -19.420 -23.192  0.00  0.00    +0.397 N 
ATOM      4  N   UNL     1      35.184 -16.428 -21.025  0.00  0.00    -0.358 N 
ATOM      5  N   UNL     1      34.895 -16.886 -25.620  0.00  0.00    -0.185 NA
ATOM      6  N   UNL     1      34.254 -15.726 -25.891  0.00  0.00    -0.203 N 
ATOM      7  C   UNL     1      36.079 -18.654 -21.942  0.00  0.00    -0.007 C 
ATOM      8  C   UNL     1      35.397 -19.549 -20.904  0.00  0.00    -0.016 C 
ATOM      9  C   UNL     1      35.459 -17.293 -22.047  0.00  0.00    +0.017 A 
ATOM     10  C   UNL     1      34.494 -20.034 -23.096  0.00  0.00    -0.076 C 
ATOM     11  C   UNL     1      34.160 -20.085 -21.611  0.00  0.00    -0.024 C 
ATOM     12  C   UNL     1      36.030 -18.677 -24.448  0.00  0.00    -0.028 C 
ATOM     13  C   UNL     1      35.075 -16.692 -23.223  0.00  0.00    +0.024 A 
ATOM     14  C   UNL     1      37.581 -18.537 -21.662  0.00  0.00    -0.015 C 
ATOM     15  C   UNL     1      35.267 -17.348 -24.474  0.00  0.00    +0.056 C 
ATOM     16  C   UNL     1      34.508 -15.456 -22.922  0.00  0.00    +0.022 A 
ATOM     17  C   UNL     1      34.589 -15.293 -21.536  0.00  0.00    +0.059 A 
ATOM     18  C   UNL     1      33.935 -14.467 -23.716  0.00  0.00    +0.059 C 
ATOM     19  C   UNL     1      34.119 -14.147 -20.890  0.00  0.00    +0.047 C 
ATOM     20  C   UNL     1      33.811 -14.627 -25.175  0.00  0.00    +0.265 C 
ATOM     21  C   UNL     1      33.458 -13.308 -23.076  0.00  0.00    +0.034 C 
ATOM     22  C   UNL     1      33.552 -13.154 -21.691  0.00  0.00    +0.142 C 
ATOM     23  H   UNL     1      36.543 -20.142 -23.255  0.00  0.00    -0.078 HD
ATOM     24  H   UNL     1      35.378 -16.591 -20.073  0.00  0.00    +0.166 HD
ATOM     25  H   UNL     1      34.049 -15.641 -26.850  0.00  0.00    +0.178 HD
ENDROOT
TORSDOF 0
ENDMDL
MODEL 6
REMARK VINA RESULT:      -8.4     13.427     15.819
REMARK  Name = 135565554
REMARK  0 active torsions:
REMARK  status: ('A' for Active; 'I' for Inactive)
REMARK                            x       y       z     vdW  Elec       q    Type
REMARK                         _______ _______ _______ _____ _____    ______ ____
ROOT
ATOM      1  F   UNL     1      32.105 -14.864 -19.378  0.00  0.00    -0.204 F 
ATOM      2  O   UNL     1      34.846 -14.472 -23.488  0.00  0.00    -0.268 OA
ATOM      3  N   UNL     1      33.022  -7.941 -23.569  0.00  0.00    +0.397 N 
ATOM      4  N   UNL     1      31.582 -10.323 -21.057  0.00  0.00    -0.358 N 
ATOM      5  N   UNL     1      34.328 -11.137 -24.690  0.00  0.00    -0.185 NA
ATOM      6  N   UNL     1      34.664 -12.414 -24.398  0.00  0.00    -0.203 N 
ATOM      7  C   UNL     1      31.954  -8.301 -22.597  0.00  0.00    -0.007 C 
ATOM      8  C   UNL     1      32.216  -7.287 -21.481  0.00  0.00    -0.016 C 
ATOM      9  C   UNL     1      32.131  -9.723 -22.156  0.00  0.00    +0.017 A 
ATOM     10  C   UNL     1      34.218  -7.543 -22.815  0.00  0.00    -0.076 C 
ATOM     11  C   UNL     1      33.731  -7.159 -21.424  0.00  0.00    -0.024 C 
ATOM     12  C   UNL     1      33.302  -8.944 -24.611  0.00  0.00    -0.028 C 
ATOM     13  C   UNL     1      32.885 -10.664 -22.817  0.00  0.00    +0.024 A 
ATOM     14  C   UNL     1      30.563  -8.100 -23.206  0.00  0.00    -0.015 C 
ATOM     15  C   UNL     1      33.562 -10.337 -24.028  0.00  0.00    +0.056 C 
ATOM     16  C   UNL     1      32.843 -11.853 -22.091  0.00  0.00    +0.022 A 
ATOM     17  C   UNL     1      32.013 -11.632 -20.989  0.00  0.00    +0.059 A 
ATOM     18  C   UNL     1      33.442 -13.093 -22.285  0.00  0.00    +0.059 C 
ATOM     19  C   UNL     1      31.738 -12.628 -20.049  0.00  0.00    +0.047 C 
ATOM     20  C   UNL     1      34.345 -13.343 -23.422  0.00  0.00    +0.265 C 
ATOM     21  C   UNL     1      33.174 -14.105 -21.345  0.00  0.00    +0.034 C 
ATOM     22  C   UNL     1      32.335 -13.874 -20.251  0.00  0.00    +0.142 C 
ATOM     23  H   UNL     1      32.676  -7.155 -24.120  0.00  0.00    -0.078 HD
ATOM     24  H   UNL     1      30.976  -9.888 -20.414  0.00  0.00    +0.166 HD
ATOM     25  H   UNL     1      35.304 -12.779 -25.050  0.00  0.00    +0.178 HD
ENDROOT
TORSDOF 0
ENDMDL
MODEL 7
REMARK VINA RESULT:      -8.3      2.062      3.620
REMARK  Name = 135565554
REMARK  0 active torsions:
REMARK  status: ('A' for Active; 'I' for Inactive)
REMARK                            x       y       z     vdW  Elec       q    Type
REMARK                         _______ _______ _______ _____ _____    ______ ____
ROOT
ATOM      1  F   UNL     1      33.183 -22.025 -19.606  0.00  0.00    -0.204 F 
ATOM      2  O   UNL     1      30.463 -22.760 -15.528  0.00  0.00    -0.268 OA
ATOM      3  N   UNL     1      36.240 -24.684 -12.541  0.00  0.00    +0.397 N 
ATOM      4  N   UNL     1      36.124 -23.890 -16.204  0.00  0.00    -0.358 N 
ATOM      5  N   UNL     1      32.688 -24.208 -13.122  0.00  0.00    -0.185 NA
ATOM      6  N   UNL     1      31.703 -23.663 -13.872  0.00  0.00    -0.203 N 
ATOM      7  C   UNL     1      36.822 -24.800 -13.905  0.00  0.00    -0.007 C 
ATOM      8  C   UNL     1      38.083 -23.943 -13.762  0.00  0.00    -0.016 C 
ATOM      9  C   UNL     1      35.855 -24.263 -14.916  0.00  0.00    +0.017 A 
ATOM     10  C   UNL     1      36.496 -23.326 -12.043  0.00  0.00    -0.076 C 
ATOM     11  C   UNL     1      37.665 -22.791 -12.860  0.00  0.00    -0.024 C 
ATOM     12  C   UNL     1      34.830 -25.090 -12.413  0.00  0.00    -0.028 C 
ATOM     13  C   UNL     1      34.511 -24.069 -14.694  0.00  0.00    +0.024 A 
ATOM     14  C   UNL     1      37.182 -26.254 -14.230  0.00  0.00    -0.015 C 
ATOM     15  C   UNL     1      33.925 -24.399 -13.437  0.00  0.00    +0.056 C 
ATOM     16  C   UNL     1      33.947 -23.523 -15.846  0.00  0.00    +0.022 A 
ATOM     17  C   UNL     1      34.969 -23.422 -16.794  0.00  0.00    +0.059 A 
ATOM     18  C   UNL     1      32.656 -23.109 -16.153  0.00  0.00    +0.059 C 
ATOM     19  C   UNL     1      34.747 -22.921 -18.080  0.00  0.00    +0.047 C 
ATOM     20  C   UNL     1      31.568 -23.177 -15.162  0.00  0.00    +0.265 C 
ATOM     21  C   UNL     1      32.420 -22.602 -17.445  0.00  0.00    +0.034 C 
ATOM     22  C   UNL     1      33.447 -22.514 -18.387  0.00  0.00    +0.142 C 
ATOM     23  H   UNL     1      36.711 -25.370 -11.951  0.00  0.00    -0.078 HD
ATOM     24  H   UNL     1      37.006 -23.946 -16.640  0.00  0.00    +0.166 HD
ATOM     25  H   UNL     1      30.860 -23.594 -13.369  0.00  0.00    +0.178 HD
ENDROOT
TORSDOF 0
ENDMDL
