MODEL 1
REMARK VINA RESULT:     -12.2      0.000      0.000
REMARK  Name = 204109
REMARK  5 active torsions:
REMARK  status: ('A' for Active; 'I' for Inactive)
REMARK    1  A    between atoms: C_1  and  C_20
REMARK    2  A    between atoms: C_9  and  O_11
REMARK    3  A    between atoms: O_11  and  C_12
REMARK    4  A    between atoms: C_12  and  C_14
REMARK    5  A    between atoms: C_20  and  C_25
REMARK                            x       y       z     vdW  Elec       q    Type
REMARK                         _______ _______ _______ _____ _____    ______ ____
ROOT
ATOM      1  C   UNL     1      36.138 -18.824 -22.015  0.00  0.00    -0.021 C 
ATOM      2  C   UNL     1      34.748 -20.388 -20.773  0.00  0.00    -0.000 C 
ATOM      3  C   UNL     1      34.884 -19.357 -21.717  0.00  0.00    -0.004 C 
ATOM      4  C   UNL     1      35.902 -20.885 -20.122  0.00  0.00    +0.003 C 
ATOM      5  C   UNL     1      37.272 -19.313 -21.374  0.00  0.00    -0.004 C 
ATOM      6  C   UNL     1      37.157 -20.338 -20.434  0.00  0.00    -0.000 C 
ATOM      7  C   UNL     1      35.767 -21.916 -19.178  0.00  0.00    +0.037 C 
ATOM      8  C   UNL     1      33.493 -20.936 -20.461  0.00  0.00    +0.003 C 
ATOM      9  C   UNL     1      34.512 -22.449 -18.880  0.00  0.00    +0.139 C 
ATOM     10  C   UNL     1      33.377 -21.959 -19.521  0.00  0.00    +0.037 C 
ENDROOT
BRANCH   9  11
ATOM     11  O   UNL     1      34.396 -23.449 -17.963  0.00  0.00    -0.471 OA
BRANCH  11  12
ATOM     12  C   UNL     1      34.548 -23.092 -16.591  0.00  0.00    +0.234 C 
BRANCH  12  14
ATOM     13  F   UNL     1      34.737 -24.884 -14.413  0.00  0.00    -0.204 F 
ATOM     14  C   UNL     1      33.369 -23.503 -15.776  0.00  0.00    +0.049 C 
ATOM     15  C   UNL     1      33.527 -24.391 -14.713  0.00  0.00    +0.140 C 
ATOM     16  C   UNL     1      32.105 -22.997 -16.079  0.00  0.00    +0.002 C 
ATOM     17  C   UNL     1      32.422 -24.774 -13.952  0.00  0.00    +0.029 C 
ATOM     18  C   UNL     1      30.999 -23.379 -15.319  0.00  0.00    -0.000 C 
ATOM     19  C   UNL     1      31.158 -24.267 -14.255  0.00  0.00    +0.002 C 
ENDBRANCH  12  14
ENDBRANCH  11  12
ENDBRANCH   9  11
BRANCH   1  20
ATOM     20  C   UNL     1      36.263 -17.729 -23.020  0.00  0.00    +0.047 C 
BRANCH  20  25
ATOM     21  S   UNL     1      34.581 -17.642 -25.208  0.00  0.00    -0.048 S 
ATOM     22  O   UNL     1      35.073 -15.039 -22.401  0.00  0.00    -0.274 OA
ATOM     23  O   UNL     1      34.056 -15.666 -26.861  0.00  0.00    -0.263 OA
ATOM     24  N   UNL     1      34.533 -15.150 -24.646  0.00  0.00    -0.246 N 
ATOM     25  C   UNL     1      34.905 -17.198 -23.473  0.00  0.00    +0.137 C 
ATOM     26  C   UNL     1      34.856 -15.688 -23.418  0.00  0.00    +0.239 C 
ATOM     27  C   UNL     1      34.342 -15.984 -25.717  0.00  0.00    +0.279 C 
ATOM     28  H   UNL     1      34.440 -14.176 -24.753  0.00  0.00    +0.158 HD
ENDBRANCH  20  25
ENDBRANCH   1  20
TORSDOF 5
ENDMDL
MODEL 2
REMARK VINA RESULT:     -12.1      4.642      9.945
REMARK  Name = 204109
REMARK  5 active torsions:
REMARK  status: ('A' for Active; 'I' for Inactive)
REMARK    1  A    between atoms: C_1  and  C_20
REMARK    2  A    between atoms: C_9  and  O_11
REMARK    3  A    between atoms: O_11  and  C_12
REMARK    4  A    between atoms: C_12  and  C_14
REMARK    5  A    between atoms: C_20  and  C_25
REMARK                            x       y       z     vdW  Elec       q    Type
REMARK                         _______ _______ _______ _____ _____    ______ ____
ROOT
ATOM      1  C   UNL     1      34.052 -22.289 -19.044  0.00  0.00    -0.021 C 
ATOM      2  C   UNL     1      35.638 -20.838 -20.183  0.00  0.00    -0.000 C 
ATOM      3  C   UNL     1      35.363 -21.872 -19.273  0.00  0.00    -0.004 C 
ATOM      4  C   UNL     1      34.567 -20.220 -20.871  0.00  0.00    +0.003 C 
ATOM      5  C   UNL     1      32.999 -21.680 -19.720  0.00  0.00    -0.004 C 
ATOM      6  C   UNL     1      33.253 -20.652 -20.629  0.00  0.00    -0.000 C 
ATOM      7  C   UNL     1      34.842 -19.186 -21.781  0.00  0.00    +0.037 C 
ATOM      8  C   UNL     1      36.952 -20.405 -20.426  0.00  0.00    +0.003 C 
ATOM      9  C   UNL     1      36.154 -18.769 -22.010  0.00  0.00    +0.139 C 
ATOM     10  C   UNL     1      37.207 -19.378 -21.334  0.00  0.00    +0.037 C 
ENDROOT
BRANCH   9  11
ATOM     11  O   UNL     1      36.405 -17.766 -22.897  0.00  0.00    -0.471 OA
BRANCH  11  12
ATOM     12  C   UNL     1      35.458 -17.574 -23.946  0.00  0.00    +0.234 C 
BRANCH  12  14
ATOM     13  F   UNL     1      34.222 -16.442 -26.221  0.00  0.00    -0.204 F 
ATOM     14  C   UNL     1      34.928 -16.181 -23.969  0.00  0.00    +0.049 C 
ATOM     15  C   UNL     1      34.328 -15.679 -25.124  0.00  0.00    +0.140 C 
ATOM     16  C   UNL     1      35.035 -15.378 -22.834  0.00  0.00    +0.002 C 
ATOM     17  C   UNL     1      33.833 -14.375 -25.143  0.00  0.00    +0.029 C 
ATOM     18  C   UNL     1      34.541 -14.074 -22.852  0.00  0.00    -0.000 C 
ATOM     19  C   UNL     1      33.939 -13.572 -24.006  0.00  0.00    +0.002 C 
ENDBRANCH  12  14
ENDBRANCH  11  12
ENDBRANCH   9  11
BRANCH   1  20
ATOM     20  C   UNL     1      33.778 -23.388 -18.073  0.00  0.00    +0.047 C 
BRANCH  20  25
ATOM     21  S   UNL     1      34.203 -23.702 -15.363  0.00  0.00    -0.048 S 
ATOM     22  O   UNL     1      30.961 -22.757 -17.233  0.00  0.00    -0.274 OA
ATOM     23  O   UNL     1      32.731 -24.904 -13.547  0.00  0.00    -0.263 OA
ATOM     24  N   UNL     1      31.654 -23.865 -15.325  0.00  0.00    -0.246 N 
ATOM     25  C   UNL     1      33.320 -22.863 -16.715  0.00  0.00    +0.137 C 
ATOM     26  C   UNL     1      31.852 -23.140 -16.482  0.00  0.00    +0.239 C 
ATOM     27  C   UNL     1      32.738 -24.260 -14.586  0.00  0.00    +0.279 C 
ATOM     28  H   UNL     1      30.743 -24.097 -15.034  0.00  0.00    +0.158 HD
ENDBRANCH  20  25
ENDBRANCH   1  20
TORSDOF 5
ENDMDL
MODEL 3
REMARK VINA RESULT:     -11.9      1.732      2.563
REMARK  Name = 204109
REMARK  5 active torsions:
REMARK  status: ('A' for Active; 'I' for Inactive)
REMARK    1  A    between atoms: C_1  and  C_20
REMARK    2  A    between atoms: C_9  and  O_11
REMARK    3  A    between atoms: O_11  and  C_12
REMARK    4  A    between atoms: C_12  and  C_14
REMARK    5  A    between atoms: C_20  and  C_25
REMARK                            x       y       z     vdW  Elec       q    Type
REMARK                         _______ _______ _______ _____ _____    ______ ____
ROOT
ATOM      1  C   UNL     1      36.132 -18.976 -22.010  0.00  0.00    -0.021 C 
ATOM      2  C   UNL     1      34.740 -20.486 -20.706  0.00  0.00    -0.000 C 
ATOM      3  C   UNL     1      34.879 -19.503 -21.700  0.00  0.00    -0.004 C 
ATOM      4  C   UNL     1      35.890 -20.940 -20.018  0.00  0.00    +0.003 C 
ATOM      5  C   UNL     1      37.263 -19.422 -21.333  0.00  0.00    -0.004 C 
ATOM      6  C   UNL     1      37.144 -20.399 -20.343  0.00  0.00    -0.000 C 
ATOM      7  C   UNL     1      35.752 -21.923 -19.024  0.00  0.00    +0.037 C 
ATOM      8  C   UNL     1      33.486 -21.028 -20.381  0.00  0.00    +0.003 C 
ATOM      9  C   UNL     1      34.497 -22.450 -18.714  0.00  0.00    +0.139 C 
ATOM     10  C   UNL     1      33.367 -22.003 -19.391  0.00  0.00    +0.037 C 
ENDROOT
BRANCH   9  11
ATOM     11  O   UNL     1      34.379 -23.403 -17.749  0.00  0.00    -0.471 OA
BRANCH  11  12
ATOM     12  C   UNL     1      34.690 -23.016 -16.412  0.00  0.00    +0.234 C 
BRANCH  12  14
ATOM     13  F   UNL     1      37.298 -21.971 -16.102  0.00  0.00    -0.204 F 
ATOM     14  C   UNL     1      35.820 -23.812 -15.851  0.00  0.00    +0.049 C 
ATOM     15  C   UNL     1      37.084 -23.239 -15.723  0.00  0.00    +0.140 C 
ATOM     16  C   UNL     1      35.609 -25.133 -15.455  0.00  0.00    +0.002 C 
ATOM     17  C   UNL     1      38.139 -23.986 -15.198  0.00  0.00    +0.029 C 
ATOM     18  C   UNL     1      36.664 -25.881 -14.930  0.00  0.00    -0.000 C 
ATOM     19  C   UNL     1      37.928 -25.307 -14.801  0.00  0.00    +0.002 C 
ENDBRANCH  12  14
ENDBRANCH  11  12
ENDBRANCH   9  11
BRANCH   1  20
ATOM     20  C   UNL     1      36.261 -17.933 -23.068  0.00  0.00    +0.047 C 
BRANCH  20  25
ATOM     21  S   UNL     1      34.545 -17.759 -25.225  0.00  0.00    -0.048 S 
ATOM     22  O   UNL     1      35.147 -15.228 -22.375  0.00  0.00    -0.274 OA
ATOM     23  O   UNL     1      34.040 -15.738 -26.828  0.00  0.00    -0.263 OA
ATOM     24  N   UNL     1      34.566 -15.280 -24.612  0.00  0.00    -0.246 N 
ATOM     25  C   UNL     1      34.908 -17.360 -23.487  0.00  0.00    +0.137 C 
ATOM     26  C   UNL     1      34.897 -15.850 -23.400  0.00  0.00    +0.239 C 
ATOM     27  C   UNL     1      34.338 -16.086 -25.696  0.00  0.00    +0.279 C 
ATOM     28  H   UNL     1      34.496 -14.302 -24.697  0.00  0.00    +0.158 HD
ENDBRANCH  20  25
ENDBRANCH   1  20
TORSDOF 5
ENDMDL
MODEL 4
REMARK VINA RESULT:     -11.9      4.819      9.770
REMARK  Name = 204109
REMARK  5 active torsions:
REMARK  status: ('A' for Active; 'I' for Inactive)
REMARK    1  A    between atoms: C_1  and  C_20
REMARK    2  A    between atoms: C_9  and  O_11
REMARK    3  A    between atoms: O_11  and  C_12
REMARK    4  A    between atoms: C_12  and  C_14
REMARK    5  A    between atoms: C_20  and  C_25
REMARK                            x       y       z     vdW  Elec       q    Type
REMARK                         _______ _______ _______ _____ _____    ______ ____
ROOT
ATOM      1  C   UNL     1      33.939 -22.876 -18.097  0.00  0.00    -0.021 C 
ATOM      2  C   UNL     1      34.112 -21.295 -19.939  0.00  0.00    -0.000 C 
ATOM      3  C   UNL     1      33.343 -22.139 -19.121  0.00  0.00    -0.004 C 
ATOM      4  C   UNL     1      35.506 -21.198 -19.715  0.00  0.00    +0.003 C 
ATOM      5  C   UNL     1      35.310 -22.781 -17.878  0.00  0.00    -0.004 C 
ATOM      6  C   UNL     1      36.090 -21.946 -18.680  0.00  0.00    -0.000 C 
ATOM      7  C   UNL     1      36.275 -20.354 -20.532  0.00  0.00    +0.037 C 
ATOM      8  C   UNL     1      33.528 -20.546 -20.973  0.00  0.00    +0.003 C 
ATOM      9  C   UNL     1      35.678 -19.617 -21.556  0.00  0.00    +0.139 C 
ATOM     10  C   UNL     1      34.308 -19.712 -21.775  0.00  0.00    +0.037 C 
ENDROOT
BRANCH   9  11
ATOM     11  O   UNL     1      36.437 -18.802 -22.340  0.00  0.00    -0.471 OA
BRANCH  11  12
ATOM     12  C   UNL     1      35.866 -18.371 -23.573  0.00  0.00    +0.234 C 
BRANCH  12  14
ATOM     13  F   UNL     1      35.152 -16.878 -25.864  0.00  0.00    -0.204 F 
ATOM     14  C   UNL     1      35.394 -16.958 -23.503  0.00  0.00    +0.049 C 
ATOM     15  C   UNL     1      35.056 -16.274 -24.671  0.00  0.00    +0.140 C 
ATOM     16  C   UNL     1      35.291 -16.320 -22.267  0.00  0.00    +0.002 C 
ATOM     17  C   UNL     1      34.614 -14.952 -24.603  0.00  0.00    +0.029 C 
ATOM     18  C   UNL     1      34.850 -14.998 -22.199  0.00  0.00    -0.000 C 
ATOM     19  C   UNL     1      34.511 -14.315 -23.366  0.00  0.00    +0.002 C 
ENDBRANCH  12  14
ENDBRANCH  11  12
ENDBRANCH   9  11
BRANCH   1  20
ATOM     20  C   UNL     1      33.107 -23.767 -17.239  0.00  0.00    +0.047 C 
BRANCH  20  25
ATOM     21  S   UNL     1      32.870 -23.809 -14.488  0.00  0.00    -0.048 S 
ATOM     22  O   UNL     1      30.329 -22.622 -17.139  0.00  0.00    -0.274 OA
ATOM     23  O   UNL     1      30.851 -24.544 -12.973  0.00  0.00    -0.263 OA
ATOM     24  N   UNL     1      30.386 -23.580 -15.036  0.00  0.00    -0.246 N 
ATOM     25  C   UNL     1      32.463 -23.017 -16.075  0.00  0.00    +0.137 C 
ATOM     26  C   UNL     1      30.954 -23.039 -16.171  0.00  0.00    +0.239 C 
ATOM     27  C   UNL     1      31.196 -24.040 -14.032  0.00  0.00    +0.279 C 
ATOM     28  H   UNL     1      29.407 -23.635 -14.948  0.00  0.00    +0.158 HD
ENDBRANCH  20  25
ENDBRANCH   1  20
TORSDOF 5
ENDMDL
MODEL 5
REMARK VINA RESULT:     -11.8      5.147     10.304
REMARK  Name = 204109
REMARK  5 active torsions:
REMARK  status: ('A' for Active; 'I' for Inactive)
REMARK    1  A    between atoms: C_1  and  C_20
REMARK    2  A    between atoms: C_9  and  O_11
REMARK    3  A    between atoms: O_11  and  C_12
REMARK    4  A    between atoms: C_12  and  C_14
REMARK    5  A    between atoms: C_20  and  C_25
REMARK                            x       y       z     vdW  Elec       q    Type
REMARK                         _______ _______ _______ _____ _____    ______ ____
ROOT
ATOM      1  C   UNL     1      36.274 -22.781 -16.983  0.00  0.00    -0.021 C 
ATOM      2  C   UNL     1      36.383 -21.416 -18.994  0.00  0.00    -0.000 C 
ATOM      3  C   UNL     1      36.997 -21.974 -17.861  0.00  0.00    -0.004 C 
ATOM      4  C   UNL     1      35.015 -21.680 -19.239  0.00  0.00    +0.003 C 
ATOM      5  C   UNL     1      34.928 -23.040 -17.224  0.00  0.00    -0.004 C 
ATOM      6  C   UNL     1      34.301 -22.495 -18.345  0.00  0.00    -0.000 C 
ATOM      7  C   UNL     1      34.400 -21.123 -20.372  0.00  0.00    +0.037 C 
ATOM      8  C   UNL     1      37.096 -20.601 -19.888  0.00  0.00    +0.003 C 
ATOM      9  C   UNL     1      35.124 -20.315 -21.250  0.00  0.00    +0.139 C 
ATOM     10  C   UNL     1      36.470 -20.056 -21.009  0.00  0.00    +0.037 C 
ENDROOT
BRANCH   9  11
ATOM     11  O   UNL     1      34.515 -19.782 -22.345  0.00  0.00    -0.471 OA
BRANCH  11  12
ATOM     12  C   UNL     1      35.346 -19.457 -23.457  0.00  0.00    +0.234 C 
BRANCH  12  14
ATOM     13  F   UNL     1      35.884 -17.131 -21.944  0.00  0.00    -0.204 F 
ATOM     14  C   UNL     1      35.080 -18.081 -23.967  0.00  0.00    +0.049 C 
ATOM     15  C   UNL     1      35.368 -16.973 -23.171  0.00  0.00    +0.140 C 
ATOM     16  C   UNL     1      34.543 -17.904 -25.241  0.00  0.00    +0.002 C 
ATOM     17  C   UNL     1      35.119 -15.686 -23.651  0.00  0.00    +0.029 C 
ATOM     18  C   UNL     1      34.293 -16.618 -25.721  0.00  0.00    -0.000 C 
ATOM     19  C   UNL     1      34.582 -15.509 -24.926  0.00  0.00    +0.002 C 
ENDBRANCH  12  14
ENDBRANCH  11  12
ENDBRANCH   9  11
BRANCH   1  20
ATOM     20  C   UNL     1      36.943 -23.365 -15.785  0.00  0.00    +0.047 C 
BRANCH  20  25
ATOM     21  S   UNL     1      36.103 -23.741 -13.181  0.00  0.00    -0.048 S 
ATOM     22  O   UNL     1      36.404 -26.311 -16.045  0.00  0.00    -0.274 OA
ATOM     23  O   UNL     1      36.670 -25.664 -11.481  0.00  0.00    -0.263 OA
ATOM     24  N   UNL     1      36.568 -26.189 -13.742  0.00  0.00    -0.246 N 
ATOM     25  C   UNL     1      35.988 -24.204 -14.938  0.00  0.00    +0.137 C 
ATOM     26  C   UNL     1      36.340 -25.673 -15.001  0.00  0.00    +0.239 C 
ATOM     27  C   UNL     1      36.494 -25.363 -12.652  0.00  0.00    +0.279 C 
ATOM     28  H   UNL     1      36.783 -27.143 -13.628  0.00  0.00    +0.158 HD
ENDBRANCH  20  25
ENDBRANCH   1  20
TORSDOF 5
ENDMDL
MODEL 6
REMARK VINA RESULT:     -11.8      1.114      1.758
REMARK  Name = 204109
REMARK  5 active torsions:
REMARK  status: ('A' for Active; 'I' for Inactive)
REMARK    1  A    between atoms: C_1  and  C_20
REMARK    2  A    between atoms: C_9  and  O_11
REMARK    3  A    between atoms: O_11  and  C_12
REMARK    4  A    between atoms: C_12  and  C_14
REMARK    5  A    between atoms: C_20  and  C_25
REMARK                            x       y       z     vdW  Elec       q    Type
REMARK                         _______ _______ _______ _____ _____    ______ ____
ROOT
ATOM      1  C   UNL     1      36.117 -18.544 -22.196  0.00  0.00    -0.021 C 
ATOM      2  C   UNL     1      34.779 -20.180 -20.990  0.00  0.00    -0.000 C 
ATOM      3  C   UNL     1      34.879 -19.115 -21.900  0.00  0.00    -0.004 C 
ATOM      4  C   UNL     1      35.953 -20.674 -20.373  0.00  0.00    +0.003 C 
ATOM      5  C   UNL     1      37.271 -19.030 -21.588  0.00  0.00    -0.004 C 
ATOM      6  C   UNL     1      37.191 -20.089 -20.683  0.00  0.00    -0.000 C 
ATOM      7  C   UNL     1      35.854 -21.740 -19.464  0.00  0.00    +0.037 C 
ATOM      8  C   UNL     1      33.541 -20.766 -20.680  0.00  0.00    +0.003 C 
ATOM      9  C   UNL     1      34.615 -22.310 -19.167  0.00  0.00    +0.139 C 
ATOM     10  C   UNL     1      33.461 -21.824 -19.775  0.00  0.00    +0.037 C 
ENDROOT
BRANCH   9  11
ATOM     11  O   UNL     1      34.535 -23.343 -18.284  0.00  0.00    -0.471 OA
BRANCH  11  12
ATOM     12  C   UNL     1      33.743 -23.139 -17.116  0.00  0.00    +0.234 C 
BRANCH  12  14
ATOM     13  F   UNL     1      32.674 -24.571 -14.926  0.00  0.00    -0.204 F 
ATOM     14  C   UNL     1      34.515 -23.404 -15.868  0.00  0.00    +0.049 C 
ATOM     15  C   UNL     1      33.931 -24.117 -14.821  0.00  0.00    +0.140 C 
ATOM     16  C   UNL     1      35.823 -22.936 -15.748  0.00  0.00    +0.002 C 
ATOM     17  C   UNL     1      34.656 -24.364 -13.655  0.00  0.00    +0.029 C 
ATOM     18  C   UNL     1      36.548 -23.182 -14.581  0.00  0.00    -0.000 C 
ATOM     19  C   UNL     1      35.965 -23.896 -13.535  0.00  0.00    +0.002 C 
ENDBRANCH  12  14
ENDBRANCH  11  12
ENDBRANCH   9  11
BRANCH   1  20
ATOM     20  C   UNL     1      36.204 -17.413 -23.164  0.00  0.00    +0.047 C 
BRANCH  20  25
ATOM     21  S   UNL     1      34.497 -17.411 -25.335  0.00  0.00    -0.048 S 
ATOM     22  O   UNL     1      34.954 -14.741 -22.586  0.00  0.00    -0.274 OA
ATOM     23  O   UNL     1      33.906 -15.483 -27.021  0.00  0.00    -0.263 OA
ATOM     24  N   UNL     1      34.393 -14.911 -24.822  0.00  0.00    -0.246 N 
ATOM     25  C   UNL     1      34.828 -16.925 -23.613  0.00  0.00    +0.137 C 
ATOM     26  C   UNL     1      34.742 -15.415 -23.587  0.00  0.00    +0.239 C 
ATOM     27  C   UNL     1      34.212 -15.770 -25.874  0.00  0.00    +0.279 C 
ATOM     28  H   UNL     1      34.275 -13.942 -24.947  0.00  0.00    +0.158 HD
ENDBRANCH  20  25
ENDBRANCH   1  20
TORSDOF 5
ENDMDL
MODEL 7
REMARK VINA RESULT:     -11.8      1.285      2.233
REMARK  Name = 204109
REMARK  5 active torsions:
REMARK  status: ('A' for Active; 'I' for Inactive)
REMARK    1  A    between atoms: C_1  and  C_20
REMARK    2  A    between atoms: C_9  and  O_11
REMARK    3  A    between atoms: O_11  and  C_12
REMARK    4  A    between atoms: C_12  and  C_14
REMARK    5  A    between atoms: C_20  and  C_25
REMARK                            x       y       z     vdW  Elec       q    Type
REMARK                         _______ _______ _______ _____ _____    ______ ____
ROOT
ATOM      1  C   UNL     1      35.357 -20.131 -21.265  0.00  0.00    -0.021 C 
ATOM      2  C   UNL     1      35.643 -21.468 -19.252  0.00  0.00    -0.000 C 
ATOM      3  C   UNL     1      36.175 -20.648 -20.259  0.00  0.00    -0.004 C 
ATOM      4  C   UNL     1      34.260 -21.769 -19.265  0.00  0.00    +0.003 C 
ATOM      5  C   UNL     1      33.997 -20.428 -21.277  0.00  0.00    -0.004 C 
ATOM      6  C   UNL     1      33.450 -21.241 -20.283  0.00  0.00    -0.000 C 
ATOM      7  C   UNL     1      33.727 -22.590 -18.257  0.00  0.00    +0.037 C 
ATOM      8  C   UNL     1      36.451 -21.997 -18.233  0.00  0.00    +0.003 C 
ATOM      9  C   UNL     1      34.546 -23.106 -17.252  0.00  0.00    +0.139 C 
ATOM     10  C   UNL     1      35.905 -22.810 -17.240  0.00  0.00    +0.037 C 
ENDROOT
BRANCH   9  11
ATOM     11  O   UNL     1      34.015 -23.900 -16.281  0.00  0.00    -0.471 OA
BRANCH  11  12
ATOM     12  C   UNL     1      33.158 -23.275 -15.328  0.00  0.00    +0.234 C 
BRANCH  12  14
ATOM     13  F   UNL     1      32.256 -25.582 -13.968  0.00  0.00    -0.204 F 
ATOM     14  C   UNL     1      31.757 -23.776 -15.426  0.00  0.00    +0.049 C 
ATOM     15  C   UNL     1      31.373 -24.921 -14.730  0.00  0.00    +0.140 C 
ATOM     16  C   UNL     1      30.831 -23.096 -16.217  0.00  0.00    +0.002 C 
ATOM     17  C   UNL     1      30.061 -25.388 -14.824  0.00  0.00    +0.029 C 
ATOM     18  C   UNL     1      29.519 -23.563 -16.311  0.00  0.00    -0.000 C 
ATOM     19  C   UNL     1      29.134 -24.708 -15.614  0.00  0.00    +0.002 C 
ENDBRANCH  12  14
ENDBRANCH  11  12
ENDBRANCH   9  11
BRANCH   1  20
ATOM     20  C   UNL     1      35.940 -19.261 -22.327  0.00  0.00    +0.047 C 
BRANCH  20  25
ATOM     21  S   UNL     1      34.771 -18.531 -24.719  0.00  0.00    -0.048 S 
ATOM     22  O   UNL     1      35.551 -16.365 -21.622  0.00  0.00    -0.274 OA
ATOM     23  O   UNL     1      35.175 -16.413 -26.224  0.00  0.00    -0.263 OA
ATOM     24  N   UNL     1      35.398 -16.187 -23.922  0.00  0.00    -0.246 N 
ATOM     25  C   UNL     1      34.911 -18.301 -22.920  0.00  0.00    +0.137 C 
ATOM     26  C   UNL     1      35.323 -16.859 -22.720  0.00  0.00    +0.239 C 
ATOM     27  C   UNL     1      35.148 -16.862 -25.087  0.00  0.00    +0.279 C 
ATOM     28  H   UNL     1      35.631 -15.231 -23.942  0.00  0.00    +0.158 HD
ENDBRANCH  20  25
ENDBRANCH   1  20
TORSDOF 5
ENDMDL
MODEL 8
REMARK VINA RESULT:     -11.6      5.123     10.347
REMARK  Name = 204109
REMARK  5 active torsions:
REMARK  status: ('A' for Active; 'I' for Inactive)
REMARK    1  A    between atoms: C_1  and  C_20
REMARK    2  A    between atoms: C_9  and  O_11
REMARK    3  A    between atoms: O_11  and  C_12
REMARK    4  A    between atoms: C_12  and  C_14
REMARK    5  A    between atoms: C_20  and  C_25
REMARK                            x       y       z     vdW  Elec       q    Type
REMARK                         _______ _______ _______ _____ _____    ______ ____
ROOT
ATOM      1  C   UNL     1      34.933 -23.632 -16.674  0.00  0.00    -0.021 C 
ATOM      2  C   UNL     1      35.681 -22.129 -18.435  0.00  0.00    -0.000 C 
ATOM      3  C   UNL     1      35.952 -22.921 -17.308  0.00  0.00    -0.004 C 
ATOM      4  C   UNL     1      34.355 -22.057 -18.926  0.00  0.00    +0.003 C 
ATOM      5  C   UNL     1      33.630 -23.561 -17.157  0.00  0.00    -0.004 C 
ATOM      6  C   UNL     1      33.341 -22.779 -18.277  0.00  0.00    -0.000 C 
ATOM      7  C   UNL     1      34.083 -21.265 -20.053  0.00  0.00    +0.037 C 
ATOM      8  C   UNL     1      36.694 -21.406 -19.085  0.00  0.00    +0.003 C 
ATOM      9  C   UNL     1      35.103 -20.553 -20.687  0.00  0.00    +0.139 C 
ATOM     10  C   UNL     1      36.406 -20.625 -20.204  0.00  0.00    +0.037 C 
ENDROOT
BRANCH   9  11
ATOM     11  O   UNL     1      34.824 -19.790 -21.780  0.00  0.00    -0.471 OA
BRANCH  11  12
ATOM     12  C   UNL     1      35.896 -19.028 -22.331  0.00  0.00    +0.234 C 
BRANCH  12  14
ATOM     13  F   UNL     1      34.751 -19.856 -24.778  0.00  0.00    -0.204 F 
ATOM     14  C   UNL     1      35.421 -18.068 -23.367  0.00  0.00    +0.049 C 
ATOM     15  C   UNL     1      34.864 -18.539 -24.556  0.00  0.00    +0.140 C 
ATOM     16  C   UNL     1      35.534 -16.695 -23.147  0.00  0.00    +0.002 C 
ATOM     17  C   UNL     1      34.419 -17.638 -25.524  0.00  0.00    +0.029 C 
ATOM     18  C   UNL     1      35.090 -15.794 -24.115  0.00  0.00    -0.000 C 
ATOM     19  C   UNL     1      34.533 -16.265 -25.303  0.00  0.00    +0.002 C 
ENDBRANCH  12  14
ENDBRANCH  11  12
ENDBRANCH   9  11
BRANCH   1  20
ATOM     20  C   UNL     1      35.240 -24.469 -15.478  0.00  0.00    +0.047 C 
BRANCH  20  25
ATOM     21  S   UNL     1      37.160 -23.587 -13.701  0.00  0.00    -0.048 S 
ATOM     22  O   UNL     1      33.452 -24.448 -13.062  0.00  0.00    -0.274 OA
ATOM     23  O   UNL     1      37.702 -24.392 -11.258  0.00  0.00    -0.263 OA
ATOM     24  N   UNL     1      35.496 -24.483 -11.982  0.00  0.00    -0.246 N 
ATOM     25  C   UNL     1      35.414 -23.632 -14.213  0.00  0.00    +0.137 C 
ATOM     26  C   UNL     1      34.658 -24.229 -13.048  0.00  0.00    +0.239 C 
ATOM     27  C   UNL     1      36.836 -24.222 -12.102  0.00  0.00    +0.279 C 
ATOM     28  H   UNL     1      35.135 -24.851 -11.143  0.00  0.00    +0.158 HD
ENDBRANCH  20  25
ENDBRANCH   1  20
TORSDOF 5
ENDMDL
MODEL 9
REMARK VINA RESULT:     -11.4      5.188      7.736
REMARK  Name = 204109
REMARK  5 active torsions:
REMARK  status: ('A' for Active; 'I' for Inactive)
REMARK    1  A    between atoms: C_1  and  C_20
REMARK    2  A    between atoms: C_9  and  O_11
REMARK    3  A    between atoms: O_11  and  C_12
REMARK    4  A    between atoms: C_12  and  C_14
REMARK    5  A    between atoms: C_20  and  C_25
REMARK                            x       y       z     vdW  Elec       q    Type
REMARK                         _______ _______ _______ _____ _____    ______ ____
ROOT
ATOM      1  C   UNL     1      32.296 -12.067 -21.652  0.00  0.00    -0.021 C 
ATOM      2  C   UNL     1      33.752 -13.899 -22.318  0.00  0.00    -0.000 C 
ATOM      3  C   UNL     1      33.082 -12.702 -22.615  0.00  0.00    -0.004 C 
ATOM      4  C   UNL     1      33.623 -14.462 -21.026  0.00  0.00    +0.003 C 
ATOM      5  C   UNL     1      32.169 -12.621 -20.382  0.00  0.00    -0.004 C 
ATOM      6  C   UNL     1      32.829 -13.810 -20.069  0.00  0.00    -0.000 C 
ATOM      7  C   UNL     1      34.293 -15.659 -20.729  0.00  0.00    +0.037 C 
ATOM      8  C   UNL     1      34.547 -14.551 -23.275  0.00  0.00    +0.003 C 
ATOM      9  C   UNL     1      35.079 -16.294 -21.692  0.00  0.00    +0.139 C 
ATOM     10  C   UNL     1      35.206 -15.740 -22.963  0.00  0.00    +0.037 C 
ENDROOT
BRANCH   9  11
ATOM     11  O   UNL     1      35.724 -17.454 -21.389  0.00  0.00    -0.471 OA
BRANCH  11  12
ATOM     12  C   UNL     1      35.339 -18.620 -22.114  0.00  0.00    +0.234 C 
BRANCH  12  14
ATOM     13  F   UNL     1      37.425 -20.032 -20.833  0.00  0.00    -0.204 F 
ATOM     14  C   UNL     1      35.094 -19.781 -21.212  0.00  0.00    +0.049 C 
ATOM     15  C   UNL     1      36.167 -20.437 -20.608  0.00  0.00    +0.140 C 
ATOM     16  C   UNL     1      33.790 -20.212 -20.972  0.00  0.00    +0.002 C 
ATOM     17  C   UNL     1      35.935 -21.523 -19.764  0.00  0.00    +0.029 C 
ATOM     18  C   UNL     1      33.557 -21.299 -20.128  0.00  0.00    -0.000 C 
ATOM     19  C   UNL     1      34.630 -21.954 -19.523  0.00  0.00    +0.002 C 
ENDBRANCH  12  14
ENDBRANCH  11  12
ENDBRANCH   9  11
BRANCH   1  20
ATOM     20  C   UNL     1      31.591 -10.796 -21.985  0.00  0.00    +0.047 C 
BRANCH  20  25
ATOM     21  S   UNL     1      32.086  -8.404 -20.698  0.00  0.00    -0.048 S 
ATOM     22  O   UNL     1      32.639  -9.344 -24.400  0.00  0.00    -0.274 OA
ATOM     23  O   UNL     1      31.597  -5.937 -21.463  0.00  0.00    -0.263 OA
ATOM     24  N   UNL     1      32.118  -7.511 -23.091  0.00  0.00    -0.246 N 
ATOM     25  C   UNL     1      32.535  -9.595 -21.999  0.00  0.00    +0.137 C 
ATOM     26  C   UNL     1      32.442  -8.835 -23.303  0.00  0.00    +0.239 C 
ATOM     27  C   UNL     1      31.893  -7.069 -21.814  0.00  0.00    +0.279 C 
ATOM     28  H   UNL     1      32.049  -6.889 -23.851  0.00  0.00    +0.158 HD
ENDBRANCH  20  25
ENDBRANCH   1  20
TORSDOF 5
ENDMDL
