MODEL 1
REMARK VINA RESULT:     -12.4      0.000      0.000
REMARK  Name = 448407
REMARK  4 active torsions:
REMARK  status: ('A' for Active; 'I' for Inactive)
REMARK    1  A    between atoms: C_1  and  N_8
REMARK    2  A    between atoms: C_2  and  C_23
REMARK    3  A    between atoms: N_22  and  C_25
REMARK    4  A    between atoms: C_25  and  C_28
REMARK                            x       y       z     vdW  Elec       q    Type
REMARK                         _______ _______ _______ _____ _____    ______ ____
ROOT
ATOM      1  C   UNL     1      35.055 -22.113 -18.678  0.00  0.00    +0.090 C 
ATOM      2  C   UNL     1      35.195 -20.547 -20.537  0.00  0.00    +0.055 C 
ATOM      3  C   UNL     1      35.804 -21.251 -19.498  0.00  0.00    +0.023 C 
ATOM      4  C   UNL     1      33.679 -22.251 -18.931  0.00  0.00    +0.018 C 
ATOM      5  C   UNL     1      33.829 -20.695 -20.773  0.00  0.00    +0.005 C 
ATOM      6  C   UNL     1      33.071 -21.547 -19.970  0.00  0.00    +0.002 C 
ENDROOT
BRANCH   1   8
ATOM      7  O   UNL     1      34.079 -24.955 -14.440  0.00  0.00    -0.207 OA
ATOM      8  N   UNL     1      35.662 -22.816 -17.644  0.00  0.00    -0.137 N 
ATOM      9  N   UNL     1      36.810 -22.439 -17.022  0.00  0.00    -0.215 N 
ATOM     10  N   UNL     1      34.859 -23.587 -16.807  0.00  0.00    -0.143 NA
ATOM     11  N   UNL     1      37.569 -22.940 -14.736  0.00  0.00    -0.309 NA
ATOM     12  N   UNL     1      36.054 -24.287 -13.426  0.00  0.00    -0.251 NA
ATOM     13  N   UNL     1      38.054 -23.563 -12.517  0.00  0.00    -0.283 N 
ATOM     14  C   UNL     1      36.802 -22.945 -15.764  0.00  0.00    +0.243 C 
ATOM     15  C   UNL     1      35.523 -23.669 -15.696  0.00  0.00    +0.241 C 
ATOM     16  C   UNL     1      35.150 -24.366 -14.458  0.00  0.00    +0.239 C 
ATOM     17  C   UNL     1      37.178 -23.614 -13.577  0.00  0.00    +0.208 C 
ATOM     18  H   UNL     1      37.526 -21.891 -17.417  0.00  0.00    +0.175 HD
ATOM     19  H   UNL     1      38.901 -23.067 -12.600  0.00  0.00    +0.156 HD
ATOM     20  H   UNL     1      37.832 -24.020 -11.673  0.00  0.00    +0.156 HD
ENDBRANCH   1   8
BRANCH   2  23
ATOM     21  O   UNL     1      37.089 -19.239 -20.985  0.00  0.00    -0.270 OA
ATOM     22  N   UNL     1      35.456 -19.333 -22.630  0.00  0.00    -0.297 N 
ATOM     23  C   UNL     1      35.985 -19.660 -21.376  0.00  0.00    +0.246 C 
ATOM     24  H   UNL     1      34.577 -19.701 -22.874  0.00  0.00    +0.150 HD
BRANCH  22  25
ATOM     25  C   UNL     1      36.132 -18.483 -23.584  0.00  0.00    +0.117 C 
BRANCH  25  28
ATOM     26 CL   UNL     1      34.570 -14.073 -21.314  0.00  0.00    -0.082 Cl
ATOM     27 CL   UNL     1      33.781 -14.943 -26.581  0.00  0.00    -0.082 Cl
ATOM     28  C   UNL     1      35.470 -17.140 -23.707  0.00  0.00    -0.001 C 
ATOM     29  C   UNL     1      34.992 -16.720 -24.942  0.00  0.00    +0.009 C 
ATOM     30  C   UNL     1      35.344 -16.331 -22.584  0.00  0.00    +0.009 C 
ATOM     31  C   UNL     1      34.731 -15.083 -22.698  0.00  0.00    +0.058 C 
ATOM     32  C   UNL     1      34.378 -15.473 -25.057  0.00  0.00    +0.058 C 
ATOM     33  C   UNL     1      34.247 -14.654 -23.935  0.00  0.00    +0.023 C 
ENDBRANCH  25  28
ENDBRANCH  22  25
ENDBRANCH   2  23
TORSDOF 4
ENDMDL
MODEL 2
REMARK VINA RESULT:     -12.4      0.055      1.678
REMARK  Name = 448407
REMARK  4 active torsions:
REMARK  status: ('A' for Active; 'I' for Inactive)
REMARK    1  A    between atoms: C_1  and  N_8
REMARK    2  A    between atoms: C_2  and  C_23
REMARK    3  A    between atoms: N_22  and  C_25
REMARK    4  A    between atoms: C_25  and  C_28
REMARK                            x       y       z     vdW  Elec       q    Type
REMARK                         _______ _______ _______ _____ _____    ______ ____
ROOT
ATOM      1  C   UNL     1      35.055 -22.082 -18.699  0.00  0.00    +0.090 C 
ATOM      2  C   UNL     1      35.193 -20.520 -20.562  0.00  0.00    +0.055 C 
ATOM      3  C   UNL     1      35.803 -21.218 -19.519  0.00  0.00    +0.023 C 
ATOM      4  C   UNL     1      33.681 -22.228 -18.956  0.00  0.00    +0.018 C 
ATOM      5  C   UNL     1      33.829 -20.676 -20.802  0.00  0.00    +0.005 C 
ATOM      6  C   UNL     1      33.072 -21.530 -19.999  0.00  0.00    +0.002 C 
ENDROOT
BRANCH   1   8
ATOM      7  O   UNL     1      34.081 -24.876 -14.429  0.00  0.00    -0.207 OA
ATOM      8  N   UNL     1      35.662 -22.778 -17.661  0.00  0.00    -0.137 N 
ATOM      9  N   UNL     1      36.816 -22.403 -17.048  0.00  0.00    -0.215 N 
ATOM     10  N   UNL     1      34.858 -23.536 -16.812  0.00  0.00    -0.143 NA
ATOM     11  N   UNL     1      37.582 -22.887 -14.761  0.00  0.00    -0.309 NA
ATOM     12  N   UNL     1      36.065 -24.211 -13.431  0.00  0.00    -0.251 NA
ATOM     13  N   UNL     1      38.073 -23.492 -12.538  0.00  0.00    -0.283 N 
ATOM     14  C   UNL     1      36.811 -22.897 -15.785  0.00  0.00    +0.243 C 
ATOM     15  C   UNL     1      35.527 -23.612 -15.704  0.00  0.00    +0.241 C 
ATOM     16  C   UNL     1      35.156 -24.295 -14.458  0.00  0.00    +0.239 C 
ATOM     17  C   UNL     1      37.192 -23.548 -13.594  0.00  0.00    +0.208 C 
ATOM     18  H   UNL     1      37.534 -21.864 -17.452  0.00  0.00    +0.175 HD
ATOM     19  H   UNL     1      38.923 -23.003 -12.630  0.00  0.00    +0.156 HD
ATOM     20  H   UNL     1      37.853 -23.939 -11.689  0.00  0.00    +0.156 HD
ENDBRANCH   1   8
BRANCH   2  23
ATOM     21  O   UNL     1      37.094 -19.226 -21.019  0.00  0.00    -0.270 OA
ATOM     22  N   UNL     1      35.440 -19.285 -22.644  0.00  0.00    -0.297 N 
ATOM     23  C   UNL     1      35.982 -19.632 -21.401  0.00  0.00    +0.246 C 
ATOM     24  H   UNL     1      34.554 -19.641 -22.881  0.00  0.00    +0.150 HD
BRANCH  22  25
ATOM     25  C   UNL     1      36.112 -18.431 -23.596  0.00  0.00    +0.117 C 
BRANCH  25  28
ATOM     26 CL   UNL     1      33.765 -14.872 -26.574  0.00  0.00    -0.082 Cl
ATOM     27 CL   UNL     1      34.541 -14.038 -21.300  0.00  0.00    -0.082 Cl
ATOM     28  C   UNL     1      35.450 -17.087 -23.711  0.00  0.00    -0.001 C 
ATOM     29  C   UNL     1      35.320 -16.286 -22.583  0.00  0.00    +0.009 C 
ATOM     30  C   UNL     1      34.974 -16.659 -24.945  0.00  0.00    +0.009 C 
ATOM     31  C   UNL     1      34.359 -15.411 -25.052  0.00  0.00    +0.058 C 
ATOM     32  C   UNL     1      34.707 -15.038 -22.689  0.00  0.00    +0.058 C 
ATOM     33  C   UNL     1      34.225 -14.601 -23.924  0.00  0.00    +0.023 C 
ENDBRANCH  25  28
ENDBRANCH  22  25
ENDBRANCH   2  23
TORSDOF 4
ENDMDL
MODEL 3
REMARK VINA RESULT:     -12.4      4.741     10.457
REMARK  Name = 448407
REMARK  4 active torsions:
REMARK  status: ('A' for Active; 'I' for Inactive)
REMARK    1  A    between atoms: C_1  and  N_8
REMARK    2  A    between atoms: C_2  and  C_23
REMARK    3  A    between atoms: N_22  and  C_25
REMARK    4  A    between atoms: C_25  and  C_28
REMARK                            x       y       z     vdW  Elec       q    Type
REMARK                         _______ _______ _______ _____ _____    ______ ____
ROOT
ATOM      1  C   UNL     1      35.931 -18.666 -22.054  0.00  0.00    +0.090 C 
ATOM      2  C   UNL     1      34.960 -20.405 -20.655  0.00  0.00    +0.055 C 
ATOM      3  C   UNL     1      34.811 -19.369 -21.577  0.00  0.00    +0.023 C 
ATOM      4  C   UNL     1      37.203 -19.031 -21.582  0.00  0.00    +0.018 C 
ATOM      5  C   UNL     1      36.230 -20.755 -20.197  0.00  0.00    +0.005 C 
ATOM      6  C   UNL     1      37.352 -20.067 -20.661  0.00  0.00    +0.002 C 
ENDROOT
BRANCH   1   8
ATOM      7  O   UNL     1      34.629 -13.657 -22.521  0.00  0.00    -0.207 OA
ATOM      8  N   UNL     1      35.783 -17.634 -22.974  0.00  0.00    -0.137 N 
ATOM      9  N   UNL     1      35.308 -17.786 -24.238  0.00  0.00    -0.215 N 
ATOM     10  N   UNL     1      35.549 -16.347 -22.494  0.00  0.00    -0.143 NA
ATOM     11  N   UNL     1      34.161 -16.147 -25.669  0.00  0.00    -0.309 NA
ATOM     12  N   UNL     1      33.840 -13.970 -24.678  0.00  0.00    -0.251 NA
ATOM     13  N   UNL     1      33.091 -14.395 -26.825  0.00  0.00    -0.283 N 
ATOM     14  C   UNL     1      34.749 -16.614 -24.631  0.00  0.00    +0.243 C 
ATOM     15  C   UNL     1      34.940 -15.739 -23.464  0.00  0.00    +0.241 C 
ATOM     16  C   UNL     1      34.454 -14.354 -23.511  0.00  0.00    +0.239 C 
ATOM     17  C   UNL     1      33.712 -14.824 -25.674  0.00  0.00    +0.208 C 
ATOM     18  H   UNL     1      35.360 -18.608 -24.778  0.00  0.00    +0.175 HD
ATOM     19  H   UNL     1      32.981 -15.011 -27.585  0.00  0.00    +0.156 HD
ATOM     20  H   UNL     1      32.753 -13.472 -26.887  0.00  0.00    +0.156 HD
ENDBRANCH   1   8
BRANCH   2  23
ATOM     21  O   UNL     1      32.692 -20.996 -20.743  0.00  0.00    -0.270 OA
ATOM     22  N   UNL     1      33.972 -21.965 -19.069  0.00  0.00    -0.297 N 
ATOM     23  C   UNL     1      33.791 -21.123 -20.173  0.00  0.00    +0.246 C 
ATOM     24  H   UNL     1      34.868 -22.017 -18.666  0.00  0.00    +0.150 HD
BRANCH  22  25
ATOM     25  C   UNL     1      32.914 -22.760 -18.489  0.00  0.00    +0.117 C 
BRANCH  25  28
ATOM     26 CL   UNL     1      31.252 -23.882 -13.691  0.00  0.00    -0.082 Cl
ATOM     27 CL   UNL     1      36.484 -24.171 -14.981  0.00  0.00    -0.082 Cl
ATOM     28  C   UNL     1      33.237 -23.188 -17.086  0.00  0.00    -0.001 C 
ATOM     29  C   UNL     1      34.556 -23.449 -16.732  0.00  0.00    +0.009 C 
ATOM     30  C   UNL     1      32.213 -23.318 -16.155  0.00  0.00    +0.009 C 
ATOM     31  C   UNL     1      32.512 -23.716 -14.852  0.00  0.00    +0.058 C 
ATOM     32  C   UNL     1      34.855 -23.846 -15.430  0.00  0.00    +0.058 C 
ATOM     33  C   UNL     1      33.833 -23.980 -14.489  0.00  0.00    +0.023 C 
ENDBRANCH  25  28
ENDBRANCH  22  25
ENDBRANCH   2  23
TORSDOF 4
ENDMDL
MODEL 4
REMARK VINA RESULT:     -12.2      2.586      3.392
REMARK  Name = 448407
REMARK  4 active torsions:
REMARK  status: ('A' for Active; 'I' for Inactive)
REMARK    1  A    between atoms: C_1  and  N_8
REMARK    2  A    between atoms: C_2  and  C_23
REMARK    3  A    between atoms: N_22  and  C_25
REMARK    4  A    between atoms: C_25  and  C_28
REMARK                            x       y       z     vdW  Elec       q    Type
REMARK                         _______ _______ _______ _____ _____    ______ ____
ROOT
ATOM      1  C   UNL     1      34.631 -22.200 -18.686  0.00  0.00    +0.090 C 
ATOM      2  C   UNL     1      35.226 -20.795 -20.582  0.00  0.00    +0.055 C 
ATOM      3  C   UNL     1      34.289 -21.562 -19.891  0.00  0.00    +0.023 C 
ATOM      4  C   UNL     1      35.938 -22.045 -18.192  0.00  0.00    +0.018 C 
ATOM      5  C   UNL     1      36.519 -20.651 -20.078  0.00  0.00    +0.005 C 
ATOM      6  C   UNL     1      36.874 -21.277 -18.883  0.00  0.00    +0.002 C 
ENDROOT
BRANCH   1   8
ATOM      7  O   UNL     1      29.633 -22.399 -17.281  0.00  0.00    -0.207 OA
ATOM      8  N   UNL     1      33.696 -22.964 -17.996  0.00  0.00    -0.137 N 
ATOM      9  N   UNL     1      33.955 -23.662 -16.858  0.00  0.00    -0.215 N 
ATOM     10  N   UNL     1      32.354 -22.601 -18.077  0.00  0.00    -0.143 NA
ATOM     11  N   UNL     1      32.413 -24.305 -15.054  0.00  0.00    -0.309 NA
ATOM     12  N   UNL     1      30.127 -23.594 -15.357  0.00  0.00    -0.251 NA
ATOM     13  N   UNL     1      30.734 -24.791 -13.473  0.00  0.00    -0.283 N 
ATOM     14  C   UNL     1      32.801 -23.780 -16.156  0.00  0.00    +0.243 C 
ATOM     15  C   UNL     1      31.818 -23.078 -16.997  0.00  0.00    +0.241 C 
ATOM     16  C   UNL     1      30.419 -22.992 -16.557  0.00  0.00    +0.239 C 
ATOM     17  C   UNL     1      31.074 -24.201 -14.670  0.00  0.00    +0.208 C 
ATOM     18  H   UNL     1      34.831 -24.020 -16.589  0.00  0.00    +0.175 HD
ATOM     19  H   UNL     1      31.421 -25.252 -12.938  0.00  0.00    +0.156 HD
ATOM     20  H   UNL     1      29.805 -24.750 -13.151  0.00  0.00    +0.156 HD
ENDBRANCH   1   8
BRANCH   2  23
ATOM     21  O   UNL     1      33.663 -20.077 -22.175  0.00  0.00    -0.270 OA
ATOM     22  N   UNL     1      35.891 -19.579 -22.583  0.00  0.00    -0.297 N 
ATOM     23  C   UNL     1      34.856 -20.141 -21.827  0.00  0.00    +0.246 C 
ATOM     24  H   UNL     1      36.812 -19.668 -22.248  0.00  0.00    +0.150 HD
BRANCH  22  25
ATOM     25  C   UNL     1      35.680 -18.878 -23.829  0.00  0.00    +0.117 C 
BRANCH  25  28
ATOM     26 CL   UNL     1      34.962 -14.917 -20.538  0.00  0.00    -0.082 Cl
ATOM     27 CL   UNL     1      33.933 -14.399 -25.810  0.00  0.00    -0.082 Cl
ATOM     28  C   UNL     1      35.264 -17.452 -23.608  0.00  0.00    -0.001 C 
ATOM     29  C   UNL     1      34.843 -16.683 -24.687  0.00  0.00    +0.009 C 
ATOM     30  C   UNL     1      35.303 -16.916 -22.326  0.00  0.00    +0.009 C 
ATOM     31  C   UNL     1      34.916 -15.591 -22.120  0.00  0.00    +0.058 C 
ATOM     32  C   UNL     1      34.456 -15.360 -24.481  0.00  0.00    +0.058 C 
ATOM     33  C   UNL     1      34.493 -14.813 -23.198  0.00  0.00    +0.023 C 
ENDBRANCH  25  28
ENDBRANCH  22  25
ENDBRANCH   2  23
TORSDOF 4
ENDMDL
MODEL 5
REMARK VINA RESULT:     -12.2      2.578      3.760
REMARK  Name = 448407
REMARK  4 active torsions:
REMARK  status: ('A' for Active; 'I' for Inactive)
REMARK    1  A    between atoms: C_1  and  N_8
REMARK    2  A    between atoms: C_2  and  C_23
REMARK    3  A    between atoms: N_22  and  C_25
REMARK    4  A    between atoms: C_25  and  C_28
REMARK                            x       y       z     vdW  Elec       q    Type
REMARK                         _______ _______ _______ _____ _____    ______ ____
ROOT
ATOM      1  C   UNL     1      34.652 -22.207 -18.697  0.00  0.00    +0.090 C 
ATOM      2  C   UNL     1      35.238 -20.795 -20.592  0.00  0.00    +0.055 C 
ATOM      3  C   UNL     1      34.305 -21.568 -19.900  0.00  0.00    +0.023 C 
ATOM      4  C   UNL     1      35.960 -22.049 -18.207  0.00  0.00    +0.018 C 
ATOM      5  C   UNL     1      36.531 -20.649 -20.091  0.00  0.00    +0.005 C 
ATOM      6  C   UNL     1      36.892 -21.277 -18.898  0.00  0.00    +0.002 C 
ENDROOT
BRANCH   1   8
ATOM      7  O   UNL     1      29.654 -22.436 -17.297  0.00  0.00    -0.207 OA
ATOM      8  N   UNL     1      33.722 -22.976 -18.007  0.00  0.00    -0.137 N 
ATOM      9  N   UNL     1      33.984 -23.669 -16.867  0.00  0.00    -0.215 N 
ATOM     10  N   UNL     1      32.378 -22.622 -18.090  0.00  0.00    -0.143 NA
ATOM     11  N   UNL     1      32.444 -24.318 -15.063  0.00  0.00    -0.309 NA
ATOM     12  N   UNL     1      30.154 -23.623 -15.370  0.00  0.00    -0.251 NA
ATOM     13  N   UNL     1      30.767 -24.812 -13.483  0.00  0.00    -0.283 N 
ATOM     14  C   UNL     1      32.829 -23.793 -16.166  0.00  0.00    +0.243 C 
ATOM     15  C   UNL     1      31.843 -23.100 -17.009  0.00  0.00    +0.241 C 
ATOM     16  C   UNL     1      30.443 -23.022 -16.571  0.00  0.00    +0.239 C 
ATOM     17  C   UNL     1      31.104 -24.223 -14.681  0.00  0.00    +0.208 C 
ATOM     18  H   UNL     1      34.862 -24.020 -16.596  0.00  0.00    +0.175 HD
ATOM     19  H   UNL     1      31.456 -25.267 -12.946  0.00  0.00    +0.156 HD
ATOM     20  H   UNL     1      29.837 -24.776 -13.162  0.00  0.00    +0.156 HD
ENDBRANCH   1   8
BRANCH   2  23
ATOM     21  O   UNL     1      33.667 -20.065 -22.171  0.00  0.00    -0.270 OA
ATOM     22  N   UNL     1      35.896 -19.590 -22.601  0.00  0.00    -0.297 N 
ATOM     23  C   UNL     1      34.862 -20.140 -21.834  0.00  0.00    +0.246 C 
ATOM     24  H   UNL     1      36.819 -19.687 -22.275  0.00  0.00    +0.150 HD
BRANCH  22  25
ATOM     25  C   UNL     1      35.680 -18.889 -23.846  0.00  0.00    +0.117 C 
BRANCH  25  28
ATOM     26 CL   UNL     1      33.908 -14.415 -25.819  0.00  0.00    -0.082 Cl
ATOM     27 CL   UNL     1      34.991 -14.921 -20.556  0.00  0.00    -0.082 Cl
ATOM     28  C   UNL     1      35.264 -17.463 -23.623  0.00  0.00    -0.001 C 
ATOM     29  C   UNL     1      35.316 -16.923 -22.343  0.00  0.00    +0.009 C 
ATOM     30  C   UNL     1      34.832 -16.697 -24.700  0.00  0.00    +0.009 C 
ATOM     31  C   UNL     1      34.446 -15.372 -24.494  0.00  0.00    +0.058 C 
ATOM     32  C   UNL     1      34.930 -15.599 -22.136  0.00  0.00    +0.058 C 
ATOM     33  C   UNL     1      34.494 -14.823 -23.212  0.00  0.00    +0.023 C 
ENDBRANCH  25  28
ENDBRANCH  22  25
ENDBRANCH   2  23
TORSDOF 4
ENDMDL
MODEL 6
REMARK VINA RESULT:     -11.9      1.546      1.864
REMARK  Name = 448407
REMARK  4 active torsions:
REMARK  status: ('A' for Active; 'I' for Inactive)
REMARK    1  A    between atoms: C_1  and  N_8
REMARK    2  A    between atoms: C_2  and  C_23
REMARK    3  A    between atoms: N_22  and  C_25
REMARK    4  A    between atoms: C_25  and  C_28
REMARK                            x       y       z     vdW  Elec       q    Type
REMARK                         _______ _______ _______ _____ _____    ______ ____
ROOT
ATOM      1  C   UNL     1      35.151 -22.294 -18.002  0.00  0.00    +0.090 C 
ATOM      2  C   UNL     1      35.391 -20.977 -20.035  0.00  0.00    +0.055 C 
ATOM      3  C   UNL     1      35.914 -21.456 -18.834  0.00  0.00    +0.023 C 
ATOM      4  C   UNL     1      33.850 -22.638 -18.408  0.00  0.00    +0.018 C 
ATOM      5  C   UNL     1      34.098 -21.328 -20.423  0.00  0.00    +0.005 C 
ATOM      6  C   UNL     1      33.328 -22.159 -19.608  0.00  0.00    +0.002 C 
ENDROOT
BRANCH   1   8
ATOM      7  O   UNL     1      39.532 -23.890 -15.711  0.00  0.00    -0.207 OA
ATOM      8  N   UNL     1      35.673 -22.772 -16.806  0.00  0.00    -0.137 N 
ATOM      9  N   UNL     1      35.025 -23.620 -15.963  0.00  0.00    -0.215 N 
ATOM     10  N   UNL     1      37.055 -22.896 -16.688  0.00  0.00    -0.143 NA
ATOM     11  N   UNL     1      35.968 -25.234 -14.365  0.00  0.00    -0.309 NA
ATOM     12  N   UNL     1      38.379 -25.315 -14.292  0.00  0.00    -0.251 NA
ATOM     13  N   UNL     1      37.125 -26.693 -12.922  0.00  0.00    -0.283 N 
ATOM     14  C   UNL     1      35.952 -24.325 -15.268  0.00  0.00    +0.243 C 
ATOM     15  C   UNL     1      37.229 -23.808 -15.783  0.00  0.00    +0.241 C 
ATOM     16  C   UNL     1      38.492 -24.343 -15.257  0.00  0.00    +0.239 C 
ATOM     17  C   UNL     1      37.189 -25.718 -13.891  0.00  0.00    +0.208 C 
ATOM     18  H   UNL     1      34.049 -23.708 -15.873  0.00  0.00    +0.175 HD
ATOM     19  H   UNL     1      36.250 -27.014 -12.602  0.00  0.00    +0.156 HD
ATOM     20  H   UNL     1      37.954 -27.072 -12.549  0.00  0.00    +0.156 HD
ENDBRANCH   1   8
BRANCH   2  23
ATOM     21  O   UNL     1      37.322 -19.738 -20.518  0.00  0.00    -0.270 OA
ATOM     22  N   UNL     1      35.648 -19.751 -22.123  0.00  0.00    -0.297 N 
ATOM     23  C   UNL     1      36.194 -20.112 -20.885  0.00  0.00    +0.246 C 
ATOM     24  H   UNL     1      34.749 -20.082 -22.348  0.00  0.00    +0.150 HD
BRANCH  22  25
ATOM     25  C   UNL     1      36.332 -18.918 -23.085  0.00  0.00    +0.117 C 
BRANCH  25  28
ATOM     26 CL   UNL     1      34.716 -14.480 -20.910  0.00  0.00    -0.082 Cl
ATOM     27 CL   UNL     1      34.032 -15.429 -26.178  0.00  0.00    -0.082 Cl
ATOM     28  C   UNL     1      35.670 -17.579 -23.240  0.00  0.00    -0.001 C 
ATOM     29  C   UNL     1      35.215 -17.178 -24.491  0.00  0.00    +0.009 C 
ATOM     30  C   UNL     1      35.520 -16.754 -22.132  0.00  0.00    +0.009 C 
ATOM     31  C   UNL     1      34.906 -15.510 -22.275  0.00  0.00    +0.058 C 
ATOM     32  C   UNL     1      34.600 -15.935 -24.635  0.00  0.00    +0.058 C 
ATOM     33  C   UNL     1      34.446 -15.100 -23.527  0.00  0.00    +0.023 C 
ENDBRANCH  25  28
ENDBRANCH  22  25
ENDBRANCH   2  23
TORSDOF 4
ENDMDL
MODEL 7
REMARK VINA RESULT:     -11.3      3.840      6.460
REMARK  Name = 448407
REMARK  4 active torsions:
REMARK  status: ('A' for Active; 'I' for Inactive)
REMARK    1  A    between atoms: C_1  and  N_8
REMARK    2  A    between atoms: C_2  and  C_23
REMARK    3  A    between atoms: N_22  and  C_25
REMARK    4  A    between atoms: C_25  and  C_28
REMARK                            x       y       z     vdW  Elec       q    Type
REMARK                         _______ _______ _______ _____ _____    ______ ____
ROOT
ATOM      1  C   UNL     1      33.631 -23.564 -14.846  0.00  0.00    +0.090 C 
ATOM      2  C   UNL     1      35.943 -23.297 -15.558  0.00  0.00    +0.055 C 
ATOM      3  C   UNL     1      34.582 -23.066 -15.754  0.00  0.00    +0.023 C 
ATOM      4  C   UNL     1      34.083 -24.297 -13.735  0.00  0.00    +0.018 C 
ATOM      5  C   UNL     1      36.375 -24.026 -14.451  0.00  0.00    +0.005 C 
ATOM      6  C   UNL     1      35.444 -24.527 -13.539  0.00  0.00    +0.002 C 
ENDROOT
BRANCH   1   8
ATOM      7  O   UNL     1      28.964 -25.845 -14.760  0.00  0.00    -0.207 OA
ATOM      8  N   UNL     1      32.274 -23.333 -15.040  0.00  0.00    -0.137 N 
ATOM      9  N   UNL     1      31.757 -22.507 -15.988  0.00  0.00    -0.215 N 
ATOM     10  N   UNL     1      31.375 -24.341 -14.699  0.00  0.00    -0.143 NA
ATOM     11  N   UNL     1      29.558 -22.596 -17.087  0.00  0.00    -0.309 NA
ATOM     12  N   UNL     1      28.130 -24.406 -16.375  0.00  0.00    -0.251 NA
ATOM     13  N   UNL     1      27.401 -22.910 -17.981  0.00  0.00    -0.283 N 
ATOM     14  C   UNL     1      30.510 -22.940 -16.301  0.00  0.00    +0.243 C 
ATOM     15  C   UNL     1      30.332 -24.117 -15.436  0.00  0.00    +0.241 C 
ATOM     16  C   UNL     1      29.074 -24.872 -15.492  0.00  0.00    +0.239 C 
ATOM     17  C   UNL     1      28.377 -23.341 -17.111  0.00  0.00    +0.208 C 
ATOM     18  H   UNL     1      32.211 -21.727 -16.382  0.00  0.00    +0.175 HD
ATOM     19  H   UNL     1      27.558 -22.117 -18.544  0.00  0.00    +0.156 HD
ATOM     20  H   UNL     1      26.547 -23.395 -18.042  0.00  0.00    +0.156 HD
ENDBRANCH   1   8
BRANCH   2  23
ATOM     21  O   UNL     1      38.132 -22.856 -16.272  0.00  0.00    -0.270 OA
ATOM     22  N   UNL     1      36.410 -22.207 -17.683  0.00  0.00    -0.297 N 
ATOM     23  C   UNL     1      36.913 -22.774 -16.507  0.00  0.00    +0.246 C 
ATOM     24  H   UNL     1      35.434 -22.174 -17.803  0.00  0.00    +0.150 HD
BRANCH  22  25
ATOM     25  C   UNL     1      37.247 -21.666 -18.730  0.00  0.00    +0.117 C 
BRANCH  25  28
ATOM     26 CL   UNL     1      37.119 -18.326 -22.714  0.00  0.00    -0.082 Cl
ATOM     27 CL   UNL     1      32.628 -20.727 -20.927  0.00  0.00    -0.082 Cl
ATOM     28  C   UNL     1      36.445 -20.943 -19.774  0.00  0.00    -0.001 C 
ATOM     29  C   UNL     1      35.072 -21.150 -19.853  0.00  0.00    +0.009 C 
ATOM     30  C   UNL     1      37.083 -20.074 -20.651  0.00  0.00    +0.009 C 
ATOM     31  C   UNL     1      36.339 -19.403 -21.622  0.00  0.00    +0.058 C 
ATOM     32  C   UNL     1      34.328 -20.479 -20.822  0.00  0.00    +0.058 C 
ATOM     33  C   UNL     1      34.961 -19.605 -21.707  0.00  0.00    +0.023 C 
ENDBRANCH  25  28
ENDBRANCH  22  25
ENDBRANCH   2  23
TORSDOF 4
ENDMDL
MODEL 8
REMARK VINA RESULT:     -11.3      3.839      6.433
REMARK  Name = 448407
REMARK  4 active torsions:
REMARK  status: ('A' for Active; 'I' for Inactive)
REMARK    1  A    between atoms: C_1  and  N_8
REMARK    2  A    between atoms: C_2  and  C_23
REMARK    3  A    between atoms: N_22  and  C_25
REMARK    4  A    between atoms: C_25  and  C_28
REMARK                            x       y       z     vdW  Elec       q    Type
REMARK                         _______ _______ _______ _____ _____    ______ ____
ROOT
ATOM      1  C   UNL     1      33.633 -23.582 -14.854  0.00  0.00    +0.090 C 
ATOM      2  C   UNL     1      35.947 -23.308 -15.560  0.00  0.00    +0.055 C 
ATOM      3  C   UNL     1      34.586 -23.072 -15.754  0.00  0.00    +0.023 C 
ATOM      4  C   UNL     1      34.084 -24.334 -13.755  0.00  0.00    +0.018 C 
ATOM      5  C   UNL     1      36.376 -24.056 -14.465  0.00  0.00    +0.005 C 
ATOM      6  C   UNL     1      35.444 -24.569 -13.562  0.00  0.00    +0.002 C 
ENDROOT
BRANCH   1   8
ATOM      7  O   UNL     1      28.959 -25.849 -14.775  0.00  0.00    -0.207 OA
ATOM      8  N   UNL     1      32.277 -23.346 -15.046  0.00  0.00    -0.137 N 
ATOM      9  N   UNL     1      31.762 -22.514 -15.989  0.00  0.00    -0.215 N 
ATOM     10  N   UNL     1      31.375 -24.353 -14.708  0.00  0.00    -0.143 NA
ATOM     11  N   UNL     1      29.562 -22.590 -17.085  0.00  0.00    -0.309 NA
ATOM     12  N   UNL     1      28.128 -24.399 -16.381  0.00  0.00    -0.251 NA
ATOM     13  N   UNL     1      27.402 -22.892 -17.978  0.00  0.00    -0.283 N 
ATOM     14  C   UNL     1      30.513 -22.941 -16.302  0.00  0.00    +0.243 C 
ATOM     15  C   UNL     1      30.332 -24.122 -15.444  0.00  0.00    +0.241 C 
ATOM     16  C   UNL     1      29.072 -24.873 -15.501  0.00  0.00    +0.239 C 
ATOM     17  C   UNL     1      28.378 -23.331 -17.112  0.00  0.00    +0.208 C 
ATOM     18  H   UNL     1      32.218 -21.733 -16.379  0.00  0.00    +0.175 HD
ATOM     19  H   UNL     1      27.561 -22.097 -18.537  0.00  0.00    +0.156 HD
ATOM     20  H   UNL     1      26.546 -23.374 -18.040  0.00  0.00    +0.156 HD
ENDBRANCH   1   8
BRANCH   2  23
ATOM     21  O   UNL     1      38.136 -22.835 -16.253  0.00  0.00    -0.270 OA
ATOM     22  N   UNL     1      36.418 -22.215 -17.683  0.00  0.00    -0.297 N 
ATOM     23  C   UNL     1      36.919 -22.772 -16.500  0.00  0.00    +0.246 C 
ATOM     24  H   UNL     1      35.443 -22.197 -17.813  0.00  0.00    +0.150 HD
BRANCH  22  25
ATOM     25  C   UNL     1      37.257 -21.664 -18.722  0.00  0.00    +0.117 C 
BRANCH  25  28
ATOM     26 CL   UNL     1      32.640 -20.726 -20.922  0.00  0.00    -0.082 Cl
ATOM     27 CL   UNL     1      37.131 -18.325 -22.707  0.00  0.00    -0.082 Cl
ATOM     28  C   UNL     1      36.456 -20.941 -19.767  0.00  0.00    -0.001 C 
ATOM     29  C   UNL     1      37.095 -20.072 -20.645  0.00  0.00    +0.009 C 
ATOM     30  C   UNL     1      35.084 -21.149 -19.846  0.00  0.00    +0.009 C 
ATOM     31  C   UNL     1      34.339 -20.478 -20.816  0.00  0.00    +0.058 C 
ATOM     32  C   UNL     1      36.351 -19.402 -21.615  0.00  0.00    +0.058 C 
ATOM     33  C   UNL     1      34.972 -19.604 -21.701  0.00  0.00    +0.023 C 
ENDBRANCH  25  28
ENDBRANCH  22  25
ENDBRANCH   2  23
TORSDOF 4
ENDMDL
MODEL 9
REMARK VINA RESULT:     -11.2      5.738     10.677
REMARK  Name = 448407
REMARK  4 active torsions:
REMARK  status: ('A' for Active; 'I' for Inactive)
REMARK    1  A    between atoms: C_1  and  N_8
REMARK    2  A    between atoms: C_2  and  C_23
REMARK    3  A    between atoms: N_22  and  C_25
REMARK    4  A    between atoms: C_25  and  C_28
REMARK                            x       y       z     vdW  Elec       q    Type
REMARK                         _______ _______ _______ _____ _____    ______ ____
ROOT
ATOM      1  C   UNL     1      34.063 -14.517 -24.290  0.00  0.00    +0.090 C 
ATOM      2  C   UNL     1      34.964 -16.769 -24.491  0.00  0.00    +0.055 C 
ATOM      3  C   UNL     1      34.803 -15.590 -23.763  0.00  0.00    +0.023 C 
ATOM      4  C   UNL     1      33.490 -14.659 -25.565  0.00  0.00    +0.018 C 
ATOM      5  C   UNL     1      34.389 -16.893 -25.755  0.00  0.00    +0.005 C 
ATOM      6  C   UNL     1      33.651 -15.838 -26.292  0.00  0.00    +0.002 C 
ENDROOT
BRANCH   1   8
ATOM      7  O   UNL     1      31.214 -12.282 -20.564  0.00  0.00    -0.207 OA
ATOM      8  N   UNL     1      33.901 -13.342 -23.564  0.00  0.00    -0.137 N 
ATOM      9  N   UNL     1      34.064 -12.091 -24.071  0.00  0.00    -0.215 N 
ATOM     10  N   UNL     1      33.016 -13.345 -22.489  0.00  0.00    -0.143 NA
ATOM     11  N   UNL     1      33.035  -9.980 -23.340  0.00  0.00    -0.309 NA
ATOM     12  N   UNL     1      31.529 -10.169 -21.464  0.00  0.00    -0.251 NA
ATOM     13  N   UNL     1      31.918  -8.110 -22.443  0.00  0.00    -0.283 N 
ATOM     14  C   UNL     1      33.297 -11.234 -23.351  0.00  0.00    +0.243 C 
ATOM     15  C   UNL     1      32.655 -12.106 -22.356  0.00  0.00    +0.241 C 
ATOM     16  C   UNL     1      31.730 -11.526 -21.374  0.00  0.00    +0.239 C 
ATOM     17  C   UNL     1      32.149  -9.466 -22.391  0.00  0.00    +0.208 C 
ATOM     18  H   UNL     1      34.640 -11.848 -24.831  0.00  0.00    +0.175 HD
ATOM     19  H   UNL     1      32.366  -7.559 -23.125  0.00  0.00    +0.156 HD
ATOM     20  H   UNL     1      31.302  -7.691 -21.799  0.00  0.00    +0.156 HD
ENDBRANCH   1   8
BRANCH   2  23
ATOM     21  O   UNL     1      35.767 -18.972 -24.508  0.00  0.00    -0.270 OA
ATOM     22  N   UNL     1      36.430 -17.619 -22.744  0.00  0.00    -0.297 N 
ATOM     23  C   UNL     1      35.731 -17.870 -23.931  0.00  0.00    +0.246 C 
ATOM     24  H   UNL     1      36.356 -16.725 -22.341  0.00  0.00    +0.150 HD
BRANCH  22  25
ATOM     25  C   UNL     1      37.252 -18.604 -22.079  0.00  0.00    +0.117 C 
BRANCH  25  28
ATOM     26 CL   UNL     1      32.612 -20.664 -20.954  0.00  0.00    -0.082 Cl
ATOM     27 CL   UNL     1      37.053 -22.130 -18.262  0.00  0.00    -0.082 Cl
ATOM     28  C   UNL     1      36.435 -19.548 -21.243  0.00  0.00    -0.001 C 
ATOM     29  C   UNL     1      37.055 -20.309 -20.259  0.00  0.00    +0.009 C 
ATOM     30  C   UNL     1      35.066 -19.651 -21.464  0.00  0.00    +0.009 C 
ATOM     31  C   UNL     1      34.307 -20.527 -20.689  0.00  0.00    +0.058 C 
ATOM     32  C   UNL     1      36.296 -21.184 -19.484  0.00  0.00    +0.058 C 
ATOM     33  C   UNL     1      34.921 -21.295 -19.699  0.00  0.00    +0.023 C 
ENDBRANCH  25  28
ENDBRANCH  22  25
ENDBRANCH   2  23
TORSDOF 4
ENDMDL
