MODEL 1
REMARK VINA RESULT:     -11.2      0.000      0.000
REMARK  Name = 445481
REMARK  5 active torsions:
REMARK  status: ('A' for Active; 'I' for Inactive)
REMARK    1  A    between atoms: N_2  and  C_21
REMARK    2  A    between atoms: C_3  and  N_7
REMARK    3  A    between atoms: N_7  and  S_9
REMARK    4  A    between atoms: S_9  and  C_14
REMARK    5  A    between atoms: C_21  and  C_24
REMARK                            x       y       z     vdW  Elec       q    Type
REMARK                         _______ _______ _______ _____ _____    ______ ____
ROOT
ATOM      1  O   UNL     1      36.818 -21.131 -19.731  0.00  0.00    -0.273 OA
ATOM      2  N   UNL     1      35.462 -19.989 -21.278  0.00  0.00    -0.273 N 
ATOM      3  C   UNL     1      34.447 -21.618 -19.956  0.00  0.00    +0.153 C 
ATOM      4  C   UNL     1      33.381 -20.691 -20.531  0.00  0.00    +0.048 C 
ATOM      5  C   UNL     1      34.081 -20.027 -21.701  0.00  0.00    +0.096 C 
ATOM      6  C   UNL     1      35.740 -20.905 -20.263  0.00  0.00    +0.242 C 
ENDROOT
BRANCH   3   7
ATOM      7  N   UNL     1      34.299 -21.756 -18.503  0.00  0.00    -0.171 NA
ATOM      8  H   UNL     1      35.237 -21.739 -18.100  0.00  0.00    +0.149 HD
BRANCH   7   9
ATOM      9  S   UNL     1      33.511 -23.154 -17.900  0.00  0.00    +0.066 S 
ATOM     10  O   UNL     1      33.879 -24.297 -18.712  0.00  0.00    -0.152 OA
ATOM     11  O   UNL     1      32.122 -22.837 -17.630  0.00  0.00    -0.152 OA
BRANCH   9  14
ATOM     12  S   UNL     1      35.800 -22.981 -16.097  0.00  0.00    -0.066 S 
ATOM     13  N   UNL     1      34.380 -24.613 -12.863  0.00  0.00    -0.243 NA
ATOM     14  C   UNL     1      34.192 -23.483 -16.275  0.00  0.00    +0.153 C 
ATOM     15  C   UNL     1      33.663 -24.056 -15.170  0.00  0.00    +0.046 C 
ATOM     16  C   UNL     1      34.610 -24.098 -14.102  0.00  0.00    +0.089 C 
ATOM     17  C   UNL     1      35.834 -23.539 -14.471  0.00  0.00    +0.048 C 
ATOM     18  C   UNL     1      36.890 -23.490 -13.549  0.00  0.00    +0.010 C 
ATOM     19  C   UNL     1      36.661 -24.014 -12.283  0.00  0.00    +0.021 C 
ATOM     20  C   UNL     1      35.418 -24.549 -12.004  0.00  0.00    +0.099 C 
ENDBRANCH   9  14
ENDBRANCH   7   9
ENDBRANCH   3   7
BRANCH   2  21
ATOM     21  C   UNL     1      36.438 -19.163 -21.953  0.00  0.00    +0.135 C 
BRANCH  21  24
ATOM     22  N   UNL     1      35.467 -16.998 -21.231  0.00  0.00    -0.313 N 
ATOM     23  N   UNL     1      34.058 -13.650 -21.884  0.00  0.00    -0.241 NA
ATOM     24  C   UNL     1      35.868 -17.803 -22.246  0.00  0.00    +0.046 C 
ATOM     25  C   UNL     1      35.663 -17.183 -23.436  0.00  0.00    +0.013 C 
ATOM     26  C   UNL     1      35.098 -15.909 -23.145  0.00  0.00    +0.017 C 
ATOM     27  C   UNL     1      34.987 -15.821 -21.756  0.00  0.00    +0.068 C 
ATOM     28  C   UNL     1      34.672 -14.825 -23.924  0.00  0.00    +0.022 C 
ATOM     29  C   UNL     1      34.469 -14.695 -21.129  0.00  0.00    +0.113 C 
ATOM     30  C   UNL     1      34.164 -13.734 -23.229  0.00  0.00    +0.099 C 
ATOM     31  H   UNL     1      35.511 -17.221 -20.274  0.00  0.00    +0.152 HD
ENDBRANCH  21  24
ENDBRANCH   2  21
TORSDOF 5
ENDMDL
MODEL 2
REMARK VINA RESULT:     -11.1      1.313      1.705
REMARK  Name = 445481
REMARK  5 active torsions:
REMARK  status: ('A' for Active; 'I' for Inactive)
REMARK    1  A    between atoms: N_2  and  C_21
REMARK    2  A    between atoms: C_3  and  N_7
REMARK    3  A    between atoms: N_7  and  S_9
REMARK    4  A    between atoms: S_9  and  C_14
REMARK    5  A    between atoms: C_21  and  C_24
REMARK                            x       y       z     vdW  Elec       q    Type
REMARK                         _______ _______ _______ _____ _____    ______ ____
ROOT
ATOM      1  O   UNL     1      36.810 -21.152 -19.697  0.00  0.00    -0.273 OA
ATOM      2  N   UNL     1      35.512 -19.956 -21.253  0.00  0.00    -0.273 N 
ATOM      3  C   UNL     1      34.431 -21.570 -19.966  0.00  0.00    +0.153 C 
ATOM      4  C   UNL     1      33.401 -20.607 -20.548  0.00  0.00    +0.048 C 
ATOM      5  C   UNL     1      34.139 -19.951 -21.699  0.00  0.00    +0.096 C 
ATOM      6  C   UNL     1      35.749 -20.890 -20.244  0.00  0.00    +0.242 C 
ENDROOT
BRANCH   3   7
ATOM      7  N   UNL     1      34.255 -21.719 -18.517  0.00  0.00    -0.171 NA
ATOM      8  H   UNL     1      35.182 -21.678 -18.094  0.00  0.00    +0.149 HD
BRANCH   7   9
ATOM      9  S   UNL     1      33.494 -23.142 -17.938  0.00  0.00    +0.066 S 
ATOM     10  O   UNL     1      33.894 -24.267 -18.762  0.00  0.00    -0.152 OA
ATOM     11  O   UNL     1      32.096 -22.860 -17.676  0.00  0.00    -0.152 OA
BRANCH   9  14
ATOM     12  S   UNL     1      35.782 -22.993 -16.133  0.00  0.00    -0.066 S 
ATOM     13  N   UNL     1      34.339 -24.600 -12.898  0.00  0.00    -0.243 NA
ATOM     14  C   UNL     1      34.169 -23.476 -16.312  0.00  0.00    +0.153 C 
ATOM     15  C   UNL     1      33.631 -24.040 -15.206  0.00  0.00    +0.046 C 
ATOM     16  C   UNL     1      34.576 -24.091 -14.137  0.00  0.00    +0.089 C 
ATOM     17  C   UNL     1      35.808 -23.547 -14.506  0.00  0.00    +0.048 C 
ATOM     18  C   UNL     1      36.863 -23.509 -13.583  0.00  0.00    +0.010 C 
ATOM     19  C   UNL     1      36.626 -24.028 -12.316  0.00  0.00    +0.021 C 
ATOM     20  C   UNL     1      35.376 -24.547 -12.037  0.00  0.00    +0.099 C 
ENDBRANCH   9  14
ENDBRANCH   7   9
ENDBRANCH   3   7
BRANCH   2  21
ATOM     21  C   UNL     1      36.523 -19.150 -21.903  0.00  0.00    +0.135 C 
BRANCH  21  24
ATOM     22  N   UNL     1      35.471 -18.481 -24.047  0.00  0.00    -0.313 N 
ATOM     23  N   UNL     1      33.899 -16.023 -26.308  0.00  0.00    -0.241 NA
ATOM     24  C   UNL     1      35.885 -18.130 -22.805  0.00  0.00    +0.046 C 
ATOM     25  C   UNL     1      35.629 -16.815 -22.586  0.00  0.00    +0.013 C 
ATOM     26  C   UNL     1      35.014 -16.314 -23.768  0.00  0.00    +0.017 C 
ATOM     27  C   UNL     1      34.927 -17.379 -24.666  0.00  0.00    +0.068 C 
ATOM     28  C   UNL     1      34.523 -15.062 -24.163  0.00  0.00    +0.022 C 
ATOM     29  C   UNL     1      34.372 -17.234 -25.931  0.00  0.00    +0.113 C 
ATOM     30  C   UNL     1      33.983 -14.990 -25.440  0.00  0.00    +0.099 C 
ATOM     31  H   UNL     1      35.547 -19.379 -24.442  0.00  0.00    +0.152 HD
ENDBRANCH  21  24
ENDBRANCH   2  21
TORSDOF 5
ENDMDL
MODEL 3
REMARK VINA RESULT:     -10.7      1.151      1.663
REMARK  Name = 445481
REMARK  5 active torsions:
REMARK  status: ('A' for Active; 'I' for Inactive)
REMARK    1  A    between atoms: N_2  and  C_21
REMARK    2  A    between atoms: C_3  and  N_7
REMARK    3  A    between atoms: N_7  and  S_9
REMARK    4  A    between atoms: S_9  and  C_14
REMARK    5  A    between atoms: C_21  and  C_24
REMARK                            x       y       z     vdW  Elec       q    Type
REMARK                         _______ _______ _______ _____ _____    ______ ____
ROOT
ATOM      1  O   UNL     1      36.816 -20.559 -19.959  0.00  0.00    -0.273 OA
ATOM      2  N   UNL     1      35.468 -19.590 -21.626  0.00  0.00    -0.273 N 
ATOM      3  C   UNL     1      34.541 -21.313 -20.361  0.00  0.00    +0.153 C 
ATOM      4  C   UNL     1      33.427 -20.518 -21.033  0.00  0.00    +0.048 C 
ATOM      5  C   UNL     1      34.139 -19.787 -22.155  0.00  0.00    +0.096 C 
ATOM      6  C   UNL     1      35.766 -20.461 -20.578  0.00  0.00    +0.242 C 
ENDROOT
BRANCH   3   7
ATOM      7  N   UNL     1      34.294 -21.456 -18.922  0.00  0.00    -0.171 NA
ATOM      8  H   UNL     1      35.189 -21.333 -18.448  0.00  0.00    +0.149 HD
BRANCH   7   9
ATOM      9  S   UNL     1      33.619 -22.929 -18.361  0.00  0.00    +0.066 S 
ATOM     10  O   UNL     1      34.066 -24.014 -19.212  0.00  0.00    -0.152 OA
ATOM     11  O   UNL     1      32.212 -22.728 -18.072  0.00  0.00    -0.152 OA
BRANCH   9  14
ATOM     12  S   UNL     1      33.230 -23.871 -15.626  0.00  0.00    -0.066 S 
ATOM     13  N   UNL     1      36.804 -23.478 -14.141  0.00  0.00    -0.243 NA
ATOM     14  C   UNL     1      34.337 -23.258 -16.751  0.00  0.00    +0.153 C 
ATOM     15  C   UNL     1      35.592 -23.107 -16.272  0.00  0.00    +0.046 C 
ATOM     16  C   UNL     1      35.678 -23.511 -14.905  0.00  0.00    +0.089 C 
ATOM     17  C   UNL     1      34.448 -23.955 -14.416  0.00  0.00    +0.048 C 
ATOM     18  C   UNL     1      34.337 -24.393 -13.089  0.00  0.00    +0.010 C 
ATOM     19  C   UNL     1      35.484 -24.363 -12.305  0.00  0.00    +0.021 C 
ATOM     20  C   UNL     1      36.660 -23.907 -12.871  0.00  0.00    +0.099 C 
ENDBRANCH   9  14
ENDBRANCH   7   9
ENDBRANCH   3   7
BRANCH   2  21
ATOM     21  C   UNL     1      36.397 -18.663 -22.236  0.00  0.00    +0.135 C 
BRANCH  21  24
ATOM     22  N   UNL     1      35.556 -16.836 -23.688  0.00  0.00    -0.313 N 
ATOM     23  N   UNL     1      33.971 -13.550 -24.246  0.00  0.00    -0.241 NA
ATOM     24  C   UNL     1      35.748 -17.322 -22.437  0.00  0.00    +0.046 C 
ATOM     25  C   UNL     1      35.283 -16.435 -21.521  0.00  0.00    +0.013 C 
ATOM     26  C   UNL     1      34.767 -15.325 -22.247  0.00  0.00    +0.017 C 
ATOM     27  C   UNL     1      34.951 -15.604 -23.603  0.00  0.00    +0.068 C 
ATOM     28  C   UNL     1      34.163 -14.113 -21.887  0.00  0.00    +0.022 C 
ATOM     29  C   UNL     1      34.555 -14.720 -24.598  0.00  0.00    +0.113 C 
ATOM     30  C   UNL     1      33.792 -13.278 -22.934  0.00  0.00    +0.099 C 
ATOM     31  H   UNL     1      35.810 -17.292 -24.523  0.00  0.00    +0.152 HD
ENDBRANCH  21  24
ENDBRANCH   2  21
TORSDOF 5
ENDMDL
MODEL 4
REMARK VINA RESULT:     -10.4      2.730     10.311
REMARK  Name = 445481
REMARK  5 active torsions:
REMARK  status: ('A' for Active; 'I' for Inactive)
REMARK    1  A    between atoms: N_2  and  C_21
REMARK    2  A    between atoms: C_3  and  N_7
REMARK    3  A    between atoms: N_7  and  S_9
REMARK    4  A    between atoms: S_9  and  C_14
REMARK    5  A    between atoms: C_21  and  C_24
REMARK                            x       y       z     vdW  Elec       q    Type
REMARK                         _______ _______ _______ _____ _____    ______ ____
ROOT
ATOM      1  O   UNL     1      32.732 -20.700 -20.598  0.00  0.00    -0.273 OA
ATOM      2  N   UNL     1      34.132 -21.973 -19.200  0.00  0.00    -0.273 N 
ATOM      3  C   UNL     1      35.143 -20.743 -20.901  0.00  0.00    +0.153 C 
ATOM      4  C   UNL     1      36.183 -21.106 -19.846  0.00  0.00    +0.048 C 
ATOM      5  C   UNL     1      35.543 -22.260 -19.099  0.00  0.00    +0.096 C 
ATOM      6  C   UNL     1      33.833 -21.096 -20.242  0.00  0.00    +0.242 C 
ENDROOT
BRANCH   3   7
ATOM      7  N   UNL     1      35.169 -19.306 -21.195  0.00  0.00    -0.171 NA
ATOM      8  H   UNL     1      34.202 -19.002 -21.308  0.00  0.00    +0.149 HD
BRANCH   7   9
ATOM      9  S   UNL     1      36.032 -18.781 -22.581  0.00  0.00    +0.066 S 
ATOM     10  O   UNL     1      35.676 -19.618 -23.710  0.00  0.00    -0.152 OA
ATOM     11  O   UNL     1      37.417 -18.552 -22.220  0.00  0.00    -0.152 OA
BRANCH   9  14
ATOM     12  S   UNL     1      34.997 -16.964 -24.618  0.00  0.00    -0.066 S 
ATOM     13  N   UNL     1      34.451 -13.706 -22.563  0.00  0.00    -0.243 NA
ATOM     14  C   UNL     1      35.426 -17.144 -22.989  0.00  0.00    +0.153 C 
ATOM     15  C   UNL     1      35.250 -16.031 -22.242  0.00  0.00    +0.046 C 
ATOM     16  C   UNL     1      34.734 -14.955 -23.026  0.00  0.00    +0.089 C 
ATOM     17  C   UNL     1      34.546 -15.326 -24.358  0.00  0.00    +0.048 C 
ATOM     18  C   UNL     1      34.044 -14.397 -25.281  0.00  0.00    +0.010 C 
ATOM     19  C   UNL     1      33.753 -13.122 -24.815  0.00  0.00    +0.021 C 
ATOM     20  C   UNL     1      33.971 -12.840 -23.479  0.00  0.00    +0.099 C 
ENDBRANCH   9  14
ENDBRANCH   7   9
ENDBRANCH   3   7
BRANCH   2  21
ATOM     21  C   UNL     1      33.160 -22.647 -18.367  0.00  0.00    +0.135 C 
BRANCH  21  24
ATOM     22  N   UNL     1      32.983 -23.473 -16.034  0.00  0.00    -0.313 N 
ATOM     23  N   UNL     1      34.412 -24.395 -12.759  0.00  0.00    -0.241 NA
ATOM     24  C   UNL     1      33.767 -23.017 -17.041  0.00  0.00    +0.046 C 
ATOM     25  C   UNL     1      35.062 -22.972 -16.635  0.00  0.00    +0.013 C 
ATOM     26  C   UNL     1      35.086 -23.431 -15.288  0.00  0.00    +0.017 C 
ATOM     27  C   UNL     1      33.770 -23.738 -14.938  0.00  0.00    +0.068 C 
ATOM     28  C   UNL     1      36.095 -23.616 -14.333  0.00  0.00    +0.022 C 
ATOM     29  C   UNL     1      33.435 -24.218 -13.679  0.00  0.00    +0.113 C 
ATOM     30  C   UNL     1      35.687 -24.098 -13.096  0.00  0.00    +0.099 C 
ATOM     31  H   UNL     1      32.007 -23.594 -16.080  0.00  0.00    +0.152 HD
ENDBRANCH  21  24
ENDBRANCH   2  21
TORSDOF 5
ENDMDL
MODEL 5
REMARK VINA RESULT:     -10.3      2.467      3.346
REMARK  Name = 445481
REMARK  5 active torsions:
REMARK  status: ('A' for Active; 'I' for Inactive)
REMARK    1  A    between atoms: N_2  and  C_21
REMARK    2  A    between atoms: C_3  and  N_7
REMARK    3  A    between atoms: N_7  and  S_9
REMARK    4  A    between atoms: S_9  and  C_14
REMARK    5  A    between atoms: C_21  and  C_24
REMARK                            x       y       z     vdW  Elec       q    Type
REMARK                         _______ _______ _______ _____ _____    ______ ____
ROOT
ATOM      1  O   UNL     1      37.299 -18.612 -20.818  0.00  0.00    -0.273 OA
ATOM      2  N   UNL     1      35.667 -18.371 -22.495  0.00  0.00    -0.273 N 
ATOM      3  C   UNL     1      35.641 -20.337 -21.244  0.00  0.00    +0.153 C 
ATOM      4  C   UNL     1      34.289 -20.147 -21.925  0.00  0.00    +0.048 C 
ATOM      5  C   UNL     1      34.587 -19.161 -23.038  0.00  0.00    +0.096 C 
ATOM      6  C   UNL     1      36.329 -19.009 -21.446  0.00  0.00    +0.242 C 
ENDROOT
BRANCH   3   7
ATOM      7  N   UNL     1      35.478 -20.588 -19.808  0.00  0.00    -0.171 NA
ATOM      8  H   UNL     1      36.165 -20.013 -19.320  0.00  0.00    +0.149 HD
BRANCH   7   9
ATOM      9  S   UNL     1      35.667 -22.196 -19.243  0.00  0.00    +0.066 S 
ATOM     10  O   UNL     1      36.838 -22.268 -18.391  0.00  0.00    -0.152 OA
ATOM     11  O   UNL     1      35.485 -23.114 -20.351  0.00  0.00    -0.152 OA
BRANCH   9  14
ATOM     12  S   UNL     1      34.718 -23.130 -16.646  0.00  0.00    -0.066 S 
ATOM     13  N   UNL     1      30.862 -22.839 -17.065  0.00  0.00    -0.243 NA
ATOM     14  C   UNL     1      34.273 -22.545 -18.172  0.00  0.00    +0.153 C 
ATOM     15  C   UNL     1      32.938 -22.430 -18.356  0.00  0.00    +0.046 C 
ATOM     16  C   UNL     1      32.217 -22.838 -17.193  0.00  0.00    +0.089 C 
ATOM     17  C   UNL     1      33.071 -23.250 -16.169  0.00  0.00    +0.048 C 
ATOM     18  C   UNL     1      32.541 -23.686 -14.946  0.00  0.00    +0.010 C 
ATOM     19  C   UNL     1      31.159 -23.689 -14.810  0.00  0.00    +0.021 C 
ATOM     20  C   UNL     1      30.388 -23.265 -15.876  0.00  0.00    +0.099 C 
ENDBRANCH   9  14
ENDBRANCH   7   9
ENDBRANCH   3   7
BRANCH   2  21
ATOM     21  C   UNL     1      36.061 -17.114 -23.094  0.00  0.00    +0.135 C 
BRANCH  21  24
ATOM     22  N   UNL     1      34.689 -15.090 -23.506  0.00  0.00    -0.313 N 
ATOM     23  N   UNL     1      32.486 -12.337 -22.413  0.00  0.00    -0.241 NA
ATOM     24  C   UNL     1      35.165 -16.002 -22.624  0.00  0.00    +0.046 C 
ATOM     25  C   UNL     1      34.710 -15.720 -21.376  0.00  0.00    +0.013 C 
ATOM     26  C   UNL     1      33.897 -14.557 -21.487  0.00  0.00    +0.017 C 
ATOM     27  C   UNL     1      33.901 -14.185 -22.833  0.00  0.00    +0.068 C 
ATOM     28  C   UNL     1      33.158 -13.787 -20.579  0.00  0.00    +0.022 C 
ATOM     29  C   UNL     1      33.198 -13.079 -23.293  0.00  0.00    +0.113 C 
ATOM     30  C   UNL     1      32.481 -12.696 -21.110  0.00  0.00    +0.099 C 
ATOM     31  H   UNL     1      34.877 -15.077 -24.472  0.00  0.00    +0.152 HD
ENDBRANCH  21  24
ENDBRANCH   2  21
TORSDOF 5
ENDMDL
MODEL 6
REMARK VINA RESULT:     -10.3      2.242      2.727
REMARK  Name = 445481
REMARK  5 active torsions:
REMARK  status: ('A' for Active; 'I' for Inactive)
REMARK    1  A    between atoms: N_2  and  C_21
REMARK    2  A    between atoms: C_3  and  N_7
REMARK    3  A    between atoms: N_7  and  S_9
REMARK    4  A    between atoms: S_9  and  C_14
REMARK    5  A    between atoms: C_21  and  C_24
REMARK                            x       y       z     vdW  Elec       q    Type
REMARK                         _______ _______ _______ _____ _____    ______ ____
ROOT
ATOM      1  O   UNL     1      36.731 -20.318 -20.165  0.00  0.00    -0.273 OA
ATOM      2  N   UNL     1      35.457 -19.256 -21.833  0.00  0.00    -0.273 N 
ATOM      3  C   UNL     1      34.500 -21.084 -20.750  0.00  0.00    +0.153 C 
ATOM      4  C   UNL     1      33.408 -20.263 -21.426  0.00  0.00    +0.048 C 
ATOM      5  C   UNL     1      34.164 -19.439 -22.450  0.00  0.00    +0.096 C 
ATOM      6  C   UNL     1      35.716 -20.195 -20.834  0.00  0.00    +0.242 C 
ENDROOT
BRANCH   3   7
ATOM      7  N   UNL     1      34.176 -21.336 -19.342  0.00  0.00    -0.171 NA
ATOM      8  H   UNL     1      34.657 -20.626 -18.789  0.00  0.00    +0.149 HD
BRANCH   7   9
ATOM      9  S   UNL     1      34.590 -22.862 -18.678  0.00  0.00    +0.066 S 
ATOM     10  O   UNL     1      35.891 -22.771 -18.045  0.00  0.00    -0.152 OA
ATOM     11  O   UNL     1      34.296 -23.898 -19.650  0.00  0.00    -0.152 OA
BRANCH   9  14
ATOM     12  S   UNL     1      34.145 -23.904 -15.988  0.00  0.00    -0.066 S 
ATOM     13  N   UNL     1      30.323 -23.329 -15.544  0.00  0.00    -0.243 NA
ATOM     14  C   UNL     1      33.433 -23.190 -17.349  0.00  0.00    +0.153 C 
ATOM     15  C   UNL     1      32.102 -22.974 -17.232  0.00  0.00    +0.046 C 
ATOM     16  C   UNL     1      31.615 -23.410 -15.963  0.00  0.00    +0.089 C 
ATOM     17  C   UNL     1      32.633 -23.946 -15.172  0.00  0.00    +0.048 C 
ATOM     18  C   UNL     1      32.342 -24.428 -13.887  0.00  0.00    +0.010 C 
ATOM     19  C   UNL     1      31.025 -24.348 -13.454  0.00  0.00    +0.021 C 
ATOM     20  C   UNL     1      30.081 -23.802 -14.304  0.00  0.00    +0.099 C 
ENDBRANCH   9  14
ENDBRANCH   7   9
ENDBRANCH   3   7
BRANCH   2  21
ATOM     21  C   UNL     1      36.396 -18.270 -22.321  0.00  0.00    +0.135 C 
BRANCH  21  24
ATOM     22  N   UNL     1      35.328 -16.053 -22.634  0.00  0.00    -0.313 N 
ATOM     23  N   UNL     1      33.601 -13.496 -24.660  0.00  0.00    -0.241 NA
ATOM     24  C   UNL     1      35.694 -17.245 -23.167  0.00  0.00    +0.046 C 
ATOM     25  C   UNL     1      35.328 -17.298 -24.473  0.00  0.00    +0.013 C 
ATOM     26  C   UNL     1      34.693 -16.060 -24.774  0.00  0.00    +0.017 C 
ATOM     27  C   UNL     1      34.708 -15.300 -23.604  0.00  0.00    +0.068 C 
ATOM     28  C   UNL     1      34.110 -15.511 -25.924  0.00  0.00    +0.022 C 
ATOM     29  C   UNL     1      34.164 -14.023 -23.547  0.00  0.00    +0.113 C 
ATOM     30  C   UNL     1      33.586 -14.232 -25.794  0.00  0.00    +0.099 C 
ATOM     31  H   UNL     1      35.481 -15.773 -21.703  0.00  0.00    +0.152 HD
ENDBRANCH  21  24
ENDBRANCH   2  21
TORSDOF 5
ENDMDL
MODEL 7
REMARK VINA RESULT:     -10.1      4.944     10.128
REMARK  Name = 445481
REMARK  5 active torsions:
REMARK  status: ('A' for Active; 'I' for Inactive)
REMARK    1  A    between atoms: N_2  and  C_21
REMARK    2  A    between atoms: C_3  and  N_7
REMARK    3  A    between atoms: N_7  and  S_9
REMARK    4  A    between atoms: S_9  and  C_14
REMARK    5  A    between atoms: C_21  and  C_24
REMARK                            x       y       z     vdW  Elec       q    Type
REMARK                         _______ _______ _______ _____ _____    ______ ____
ROOT
ATOM      1  O   UNL     1      35.774 -16.243 -21.646  0.00  0.00    -0.273 OA
ATOM      2  N   UNL     1      35.974 -17.812 -23.388  0.00  0.00    -0.273 N 
ATOM      3  C   UNL     1      34.691 -15.909 -23.796  0.00  0.00    +0.153 C 
ATOM      4  C   UNL     1      35.089 -16.550 -25.122  0.00  0.00    +0.048 C 
ATOM      5  C   UNL     1      35.470 -17.965 -24.732  0.00  0.00    +0.096 C 
ATOM      6  C   UNL     1      35.546 -16.630 -22.783  0.00  0.00    +0.242 C 
ENDROOT
BRANCH   3   7
ATOM      7  N   UNL     1      35.017 -14.479 -23.781  0.00  0.00    -0.171 NA
ATOM      8  H   UNL     1      35.227 -14.227 -22.815  0.00  0.00    +0.149 HD
BRANCH   7   9
ATOM      9  S   UNL     1      33.835 -13.375 -24.350  0.00  0.00    +0.066 S 
ATOM     10  O   UNL     1      32.747 -14.113 -24.960  0.00  0.00    -0.152 OA
ATOM     11  O   UNL     1      34.496 -12.291 -25.050  0.00  0.00    -0.152 OA
BRANCH   9  14
ATOM     12  S   UNL     1      33.041 -13.579 -21.549  0.00  0.00    -0.066 S 
ATOM     13  N   UNL     1      31.634 -10.017 -20.867  0.00  0.00    -0.243 NA
ATOM     14  C   UNL     1      33.124 -12.577 -22.911  0.00  0.00    +0.153 C 
ATOM     15  C   UNL     1      32.643 -11.328 -22.713  0.00  0.00    +0.046 C 
ATOM     16  C   UNL     1      32.174 -11.159 -21.375  0.00  0.00    +0.089 C 
ATOM     17  C   UNL     1      32.331 -12.321 -20.618  0.00  0.00    +0.048 C 
ATOM     18  C   UNL     1      31.926 -12.344 -19.276  0.00  0.00    +0.010 C 
ATOM     19  C   UNL     1      31.374 -11.181 -18.752  0.00  0.00    +0.021 C 
ATOM     20  C   UNL     1      31.256 -10.076 -19.574  0.00  0.00    +0.099 C 
ENDBRANCH   9  14
ENDBRANCH   7   9
ENDBRANCH   3   7
BRANCH   2  21
ATOM     21  C   UNL     1      36.733 -18.858 -22.739  0.00  0.00    +0.135 C 
BRANCH  21  24
ATOM     22  N   UNL     1      36.405 -20.468 -20.881  0.00  0.00    -0.313 N 
ATOM     23  N   UNL     1      34.301 -22.434 -18.572  0.00  0.00    -0.241 NA
ATOM     24  C   UNL     1      35.854 -19.649 -21.810  0.00  0.00    +0.046 C 
ATOM     25  C   UNL     1      34.500 -19.696 -21.724  0.00  0.00    +0.013 C 
ATOM     26  C   UNL     1      34.187 -20.604 -20.674  0.00  0.00    +0.017 C 
ATOM     27  C   UNL     1      35.399 -21.072 -20.164  0.00  0.00    +0.068 C 
ATOM     28  C   UNL     1      32.994 -21.073 -20.107  0.00  0.00    +0.022 C 
ATOM     29  C   UNL     1      35.456 -21.983 -19.117  0.00  0.00    +0.113 C 
ATOM     30  C   UNL     1      33.127 -21.982 -19.065  0.00  0.00    +0.099 C 
ATOM     31  H   UNL     1      37.369 -20.609 -20.743  0.00  0.00    +0.152 HD
ENDBRANCH  21  24
ENDBRANCH   2  21
TORSDOF 5
ENDMDL
MODEL 8
REMARK VINA RESULT:      -9.8      6.025     12.092
REMARK  Name = 445481
REMARK  5 active torsions:
REMARK  status: ('A' for Active; 'I' for Inactive)
REMARK    1  A    between atoms: N_2  and  C_21
REMARK    2  A    between atoms: C_3  and  N_7
REMARK    3  A    between atoms: N_7  and  S_9
REMARK    4  A    between atoms: S_9  and  C_14
REMARK    5  A    between atoms: C_21  and  C_24
REMARK                            x       y       z     vdW  Elec       q    Type
REMARK                         _______ _______ _______ _____ _____    ______ ____
ROOT
ATOM      1  O   UNL     1      34.364 -13.868 -24.108  0.00  0.00    -0.273 OA
ATOM      2  N   UNL     1      34.855 -15.426 -22.416  0.00  0.00    -0.273 N 
ATOM      3  C   UNL     1      33.854 -13.422 -21.774  0.00  0.00    +0.153 C 
ATOM      4  C   UNL     1      33.671 -14.460 -20.672  0.00  0.00    +0.048 C 
ATOM      5  C   UNL     1      34.734 -15.496 -20.978  0.00  0.00    +0.096 C 
ATOM      6  C   UNL     1      34.364 -14.231 -22.941  0.00  0.00    +0.242 C 
ENDROOT
BRANCH   3   7
ATOM      7  N   UNL     1      32.575 -12.801 -22.133  0.00  0.00    -0.171 NA
ATOM      8  H   UNL     1      32.717 -12.298 -23.010  0.00  0.00    +0.149 HD
BRANCH   7   9
ATOM      9  S   UNL     1      31.872 -11.698 -21.024  0.00  0.00    +0.066 S 
ATOM     10  O   UNL     1      32.650 -11.691 -19.801  0.00  0.00    -0.152 OA
ATOM     11  O   UNL     1      30.436 -11.898 -21.002  0.00  0.00    -0.152 OA
BRANCH   9  14
ATOM     12  S   UNL     1      32.361  -8.858 -20.564  0.00  0.00    -0.066 S 
ATOM     13  N   UNL     1      32.224  -7.439 -24.183  0.00  0.00    -0.243 NA
ATOM     14  C   UNL     1      32.059 -10.058 -21.721  0.00  0.00    +0.153 C 
ATOM     15  C   UNL     1      32.005  -9.602 -22.993  0.00  0.00    +0.046 C 
ATOM     16  C   UNL     1      32.219  -8.192 -23.049  0.00  0.00    +0.089 C 
ATOM     17  C   UNL     1      32.429  -7.647 -21.782  0.00  0.00    +0.048 C 
ATOM     18  C   UNL     1      32.658  -6.271 -21.638  0.00  0.00    +0.010 C 
ATOM     19  C   UNL     1      32.664  -5.497 -22.793  0.00  0.00    +0.021 C 
ATOM     20  C   UNL     1      32.447  -6.121 -24.007  0.00  0.00    +0.099 C 
ENDBRANCH   9  14
ENDBRANCH   7   9
ENDBRANCH   3   7
BRANCH   2  21
ATOM     21  C   UNL     1      35.535 -16.456 -23.170  0.00  0.00    +0.135 C 
BRANCH  21  24
ATOM     22  N   UNL     1      34.542 -18.432 -22.045  0.00  0.00    -0.313 N 
ATOM     23  N   UNL     1      34.760 -21.532 -20.054  0.00  0.00    -0.241 NA
ATOM     24  C   UNL     1      35.650 -17.717 -22.357  0.00  0.00    +0.046 C 
ATOM     25  C   UNL     1      36.750 -18.317 -21.835  0.00  0.00    +0.013 C 
ATOM     26  C   UNL     1      36.299 -19.483 -21.154  0.00  0.00    +0.017 C 
ATOM     27  C   UNL     1      34.911 -19.529 -21.303  0.00  0.00    +0.068 C 
ATOM     28  C   UNL     1      36.931 -20.501 -20.428  0.00  0.00    +0.022 C 
ATOM     29  C   UNL     1      34.145 -20.550 -20.754  0.00  0.00    +0.113 C 
ATOM     30  C   UNL     1      36.103 -21.488 -19.908  0.00  0.00    +0.099 C 
ATOM     31  H   UNL     1      33.622 -18.202 -22.307  0.00  0.00    +0.152 HD
ENDBRANCH  21  24
ENDBRANCH   2  21
TORSDOF 5
ENDMDL
MODEL 9
REMARK VINA RESULT:      -9.7      6.125     12.028
REMARK  Name = 445481
REMARK  5 active torsions:
REMARK  status: ('A' for Active; 'I' for Inactive)
REMARK    1  A    between atoms: N_2  and  C_21
REMARK    2  A    between atoms: C_3  and  N_7
REMARK    3  A    between atoms: N_7  and  S_9
REMARK    4  A    between atoms: S_9  and  C_14
REMARK    5  A    between atoms: C_21  and  C_24
REMARK                            x       y       z     vdW  Elec       q    Type
REMARK                         _______ _______ _______ _____ _____    ______ ____
ROOT
ATOM      1  O   UNL     1      34.982 -15.205 -22.475  0.00  0.00    -0.273 OA
ATOM      2  N   UNL     1      34.534 -15.448 -24.772  0.00  0.00    -0.273 N 
ATOM      3  C   UNL     1      33.247 -13.912 -23.582  0.00  0.00    +0.153 C 
ATOM      4  C   UNL     1      33.155 -13.608 -25.073  0.00  0.00    +0.048 C 
ATOM      5  C   UNL     1      33.600 -14.901 -25.728  0.00  0.00    +0.096 C 
ATOM      6  C   UNL     1      34.371 -14.914 -23.493  0.00  0.00    +0.242 C 
ENDROOT
BRANCH   3   7
ATOM      7  N   UNL     1      33.603 -12.710 -22.819  0.00  0.00    -0.171 NA
ATOM      8  H   UNL     1      34.364 -12.966 -22.189  0.00  0.00    +0.149 HD
BRANCH   7   9
ATOM      9  S   UNL     1      32.385 -11.967 -21.868  0.00  0.00    +0.066 S 
ATOM     10  O   UNL     1      32.736 -12.085 -20.466  0.00  0.00    -0.152 OA
ATOM     11  O   UNL     1      31.083 -12.379 -22.356  0.00  0.00    -0.152 OA
BRANCH   9  14
ATOM     12  S   UNL     1      32.271  -9.232 -20.855  0.00  0.00    -0.066 S 
ATOM     13  N   UNL     1      32.671  -7.164 -24.126  0.00  0.00    -0.243 NA
ATOM     14  C   UNL     1      32.434 -10.212 -22.227  0.00  0.00    +0.153 C 
ATOM     15  C   UNL     1      32.576  -9.528 -23.386  0.00  0.00    +0.046 C 
ATOM     16  C   UNL     1      32.553  -8.118 -23.162  0.00  0.00    +0.089 C 
ATOM     17  C   UNL     1      32.390  -7.808 -21.811  0.00  0.00    +0.048 C 
ATOM     18  C   UNL     1      32.344  -6.469 -21.399  0.00  0.00    +0.010 C 
ATOM     19  C   UNL     1      32.465  -5.491 -22.378  0.00  0.00    +0.021 C 
ATOM     20  C   UNL     1      32.623  -5.888 -23.693  0.00  0.00    +0.099 C 
ENDBRANCH   9  14
ENDBRANCH   7   9
ENDBRANCH   3   7
BRANCH   2  21
ATOM     21  C   UNL     1      35.435 -16.524 -25.122  0.00  0.00    +0.135 C 
BRANCH  21  24
ATOM     22  N   UNL     1      36.577 -17.533 -23.166  0.00  0.00    -0.313 N 
ATOM     23  N   UNL     1      36.830 -19.977 -20.411  0.00  0.00    -0.241 NA
ATOM     24  C   UNL     1      35.514 -17.530 -24.007  0.00  0.00    +0.046 C 
ATOM     25  C   UNL     1      34.647 -18.515 -23.662  0.00  0.00    +0.013 C 
ATOM     26  C   UNL     1      35.205 -19.176 -22.531  0.00  0.00    +0.017 C 
ATOM     27  C   UNL     1      36.413 -18.540 -22.242  0.00  0.00    +0.068 C 
ATOM     28  C   UNL     1      34.802 -20.250 -21.725  0.00  0.00    +0.022 C 
ATOM     29  C   UNL     1      37.223 -18.939 -21.186  0.00  0.00    +0.113 C 
ATOM     30  C   UNL     1      35.660 -20.594 -20.689  0.00  0.00    +0.099 C 
ATOM     31  H   UNL     1      37.342 -16.916 -23.209  0.00  0.00    +0.152 HD
ENDBRANCH  21  24
ENDBRANCH   2  21
TORSDOF 5
ENDMDL
