MODEL 1
REMARK VINA RESULT:     -11.6      0.000      0.000
REMARK  Name = 11524144
REMARK  6 active torsions:
REMARK  status: ('A' for Active; 'I' for Inactive)
REMARK    1  A    between atoms: C_1  and  O_22
REMARK    2  A    between atoms: C_2  and  C_10
REMARK    3  A    between atoms: C_12  and  C_17
REMARK    4  A    between atoms: O_22  and  C_23
REMARK    5  A    between atoms: C_23  and  C_24
REMARK    6  A    between atoms: C_24  and  N_25
REMARK                            x       y       z     vdW  Elec       q    Type
REMARK                         _______ _______ _______ _____ _____    ______ ____
ROOT
ATOM      1  C   UNL     1      34.218 -23.839 -16.386  0.00  0.00    +0.138 C 
ATOM      2  C   UNL     1      34.800 -22.164 -18.526  0.00  0.00    -0.001 C 
ATOM      3  C   UNL     1      33.257 -23.615 -17.365  0.00  0.00    +0.037 C 
ATOM      4  C   UNL     1      35.467 -23.235 -16.467  0.00  0.00    +0.037 C 
ATOM      5  C   UNL     1      33.549 -22.774 -18.439  0.00  0.00    +0.003 C 
ATOM      6  C   UNL     1      35.758 -22.394 -17.540  0.00  0.00    +0.003 C 
ENDROOT
BRANCH   2  10
ATOM      7  N   UNL     1      36.551 -19.942 -20.999  0.00  0.00    -0.193 N 
ATOM      8  N   UNL     1      34.237 -20.012 -21.640  0.00  0.00    -0.231 NA
ATOM      9  N   UNL     1      37.726 -19.378 -21.384  0.00  0.00    -0.179 NA
ATOM     10  C   UNL     1      35.107 -21.276 -19.658  0.00  0.00    +0.019 C 
ATOM     11  C   UNL     1      35.506 -19.564 -21.840  0.00  0.00    +0.137 C 
ATOM     12  C   UNL     1      36.053 -18.731 -22.789  0.00  0.00    +0.121 C 
ATOM     13  C   UNL     1      36.333 -20.794 -19.919  0.00  0.00    +0.145 C 
ATOM     14  C   UNL     1      34.065 -20.805 -20.625  0.00  0.00    +0.097 C 
ATOM     15  C   UNL     1      37.412 -18.654 -22.459  0.00  0.00    +0.103 C 
BRANCH  12  17
ATOM     16  N   UNL     1      33.869 -16.917 -25.927  0.00  0.00    -0.242 NA
ATOM     17  C   UNL     1      35.314 -18.117 -23.850  0.00  0.00    -0.007 C 
ATOM     18  C   UNL     1      34.538 -18.894 -24.707  0.00  0.00    +0.017 C 
ATOM     19  C   UNL     1      35.365 -16.738 -24.035  0.00  0.00    +0.017 C 
ATOM     20  C   UNL     1      33.842 -18.252 -25.719  0.00  0.00    +0.099 C 
ATOM     21  C   UNL     1      34.631 -16.192 -25.077  0.00  0.00    +0.099 C 
ENDBRANCH  12  17
ENDBRANCH   2  10
BRANCH   1  22
ATOM     22  O   UNL     1      33.931 -24.666 -15.331  0.00  0.00    -0.478 OA
BRANCH  22  23
ATOM     23  C   UNL     1      33.136 -24.121 -14.287  0.00  0.00    +0.183 C 
BRANCH  23  24
ATOM     24  C   UNL     1      31.988 -25.076 -13.997  0.00  0.00    -0.029 C 
BRANCH  24  25
ATOM     25  N   UNL     1      30.729 -24.542 -14.516  0.00  0.00    +0.389 N 
ATOM     26  C   UNL     1      30.849 -23.100 -14.771  0.00  0.00    -0.077 C 
ATOM     27  C   UNL     1      30.327 -25.265 -15.730  0.00  0.00    -0.077 C 
ATOM     28  C   UNL     1      29.526 -22.515 -15.268  0.00  0.00    -0.023 C 
ATOM     29  C   UNL     1      28.986 -24.751 -16.258  0.00  0.00    -0.023 C 
ATOM     30  C   UNL     1      29.027 -23.248 -16.509  0.00  0.00    -0.004 C 
ATOM     31  H   UNL     1      30.003 -24.677 -13.813  0.00  0.00    -0.080 HD
ENDBRANCH  24  25
ENDBRANCH  23  24
ENDBRANCH  22  23
ENDBRANCH   1  22
TORSDOF 6
ENDMDL
MODEL 2
REMARK VINA RESULT:     -11.2      3.691     10.159
REMARK  Name = 11524144
REMARK  6 active torsions:
REMARK  status: ('A' for Active; 'I' for Inactive)
REMARK    1  A    between atoms: C_1  and  O_22
REMARK    2  A    between atoms: C_2  and  C_10
REMARK    3  A    between atoms: C_12  and  C_17
REMARK    4  A    between atoms: O_22  and  C_23
REMARK    5  A    between atoms: C_23  and  C_24
REMARK    6  A    between atoms: C_24  and  N_25
REMARK                            x       y       z     vdW  Elec       q    Type
REMARK                         _______ _______ _______ _____ _____    ______ ____
ROOT
ATOM      1  C   UNL     1      36.114 -18.976 -22.608  0.00  0.00    +0.138 C 
ATOM      2  C   UNL     1      36.127 -20.533 -20.305  0.00  0.00    -0.001 C 
ATOM      3  C   UNL     1      34.989 -19.721 -22.275  0.00  0.00    +0.037 C 
ATOM      4  C   UNL     1      37.246 -19.001 -21.800  0.00  0.00    +0.037 C 
ATOM      5  C   UNL     1      34.995 -20.502 -21.120  0.00  0.00    +0.003 C 
ATOM      6  C   UNL     1      37.252 -19.782 -20.645  0.00  0.00    +0.003 C 
ENDROOT
BRANCH   2  10
ATOM      7  N   UNL     1      35.183 -22.897 -17.541  0.00  0.00    -0.193 N 
ATOM      8  N   UNL     1      37.370 -22.049 -17.019  0.00  0.00    -0.231 NA
ATOM      9  N   UNL     1      34.241 -23.739 -17.041  0.00  0.00    -0.179 NA
ATOM     10  C   UNL     1      36.134 -21.357 -19.087  0.00  0.00    +0.019 C 
ATOM     11  C   UNL     1      36.301 -22.834 -16.712  0.00  0.00    +0.137 C 
ATOM     12  C   UNL     1      36.045 -23.673 -15.651  0.00  0.00    +0.121 C 
ATOM     13  C   UNL     1      35.118 -22.154 -18.718  0.00  0.00    +0.145 C 
ATOM     14  C   UNL     1      37.279 -21.369 -18.123  0.00  0.00    +0.097 C 
ATOM     15  C   UNL     1      34.772 -24.197 -15.907  0.00  0.00    +0.103 C 
BRANCH  12  17
ATOM     16  N   UNL     1      38.708 -24.337 -12.430  0.00  0.00    -0.242 NA
ATOM     17  C   UNL     1      36.946 -23.898 -14.561  0.00  0.00    -0.007 C 
ATOM     18  C   UNL     1      36.797 -23.192 -13.370  0.00  0.00    +0.017 C 
ATOM     19  C   UNL     1      37.979 -24.824 -14.684  0.00  0.00    +0.017 C 
ATOM     20  C   UNL     1      37.695 -23.446 -12.346  0.00  0.00    +0.099 C 
ATOM     21  C   UNL     1      38.824 -25.004 -13.600  0.00  0.00    +0.099 C 
ENDBRANCH  12  17
ENDBRANCH   2  10
BRANCH   1  22
ATOM     22  O   UNL     1      36.108 -18.207 -23.743  0.00  0.00    -0.478 OA
BRANCH  22  23
ATOM     23  C   UNL     1      34.988 -17.354 -23.933  0.00  0.00    +0.183 C 
BRANCH  23  24
ATOM     24  C   UNL     1      35.485 -15.984 -24.366  0.00  0.00    -0.029 C 
BRANCH  24  25
ATOM     25  N   UNL     1      35.030 -14.952 -23.435  0.00  0.00    +0.389 N 
ATOM     26  C   UNL     1      33.801 -14.317 -23.932  0.00  0.00    -0.077 C 
ATOM     27  C   UNL     1      34.829 -15.522 -22.096  0.00  0.00    -0.077 C 
ATOM     28  C   UNL     1      33.337 -13.202 -22.993  0.00  0.00    -0.023 C 
ATOM     29  C   UNL     1      34.399 -14.446 -21.097  0.00  0.00    -0.023 C 
ATOM     30  C   UNL     1      33.147 -13.717 -21.571  0.00  0.00    -0.004 C 
ATOM     31  H   UNL     1      35.749 -14.233 -23.366  0.00  0.00    -0.080 HD
ENDBRANCH  24  25
ENDBRANCH  23  24
ENDBRANCH  22  23
ENDBRANCH   1  22
TORSDOF 6
ENDMDL
MODEL 3
REMARK VINA RESULT:     -11.1      2.165      3.887
REMARK  Name = 11524144
REMARK  6 active torsions:
REMARK  status: ('A' for Active; 'I' for Inactive)
REMARK    1  A    between atoms: C_1  and  O_22
REMARK    2  A    between atoms: C_2  and  C_10
REMARK    3  A    between atoms: C_12  and  C_17
REMARK    4  A    between atoms: O_22  and  C_23
REMARK    5  A    between atoms: C_23  and  C_24
REMARK    6  A    between atoms: C_24  and  N_25
REMARK                            x       y       z     vdW  Elec       q    Type
REMARK                         _______ _______ _______ _____ _____    ______ ____
ROOT
ATOM      1  C   UNL     1      34.438 -23.800 -16.411  0.00  0.00    +0.138 C 
ATOM      2  C   UNL     1      34.957 -22.115 -18.561  0.00  0.00    -0.001 C 
ATOM      3  C   UNL     1      35.680 -23.185 -16.520  0.00  0.00    +0.037 C 
ATOM      4  C   UNL     1      33.453 -23.580 -17.367  0.00  0.00    +0.037 C 
ATOM      5  C   UNL     1      35.941 -22.340 -17.598  0.00  0.00    +0.003 C 
ATOM      6  C   UNL     1      33.713 -22.735 -18.446  0.00  0.00    +0.003 C 
ENDROOT
BRANCH   2  10
ATOM      7  N   UNL     1      36.632 -19.868 -21.064  0.00  0.00    -0.193 N 
ATOM      8  N   UNL     1      34.310 -19.983 -21.671  0.00  0.00    -0.231 NA
ATOM      9  N   UNL     1      37.791 -19.284 -21.466  0.00  0.00    -0.179 NA
ATOM     10  C   UNL     1      35.232 -21.225 -19.699  0.00  0.00    +0.019 C 
ATOM     11  C   UNL     1      35.568 -19.512 -21.890  0.00  0.00    +0.137 C 
ATOM     12  C   UNL     1      36.086 -18.671 -22.849  0.00  0.00    +0.121 C 
ATOM     13  C   UNL     1      36.444 -20.721 -19.978  0.00  0.00    +0.145 C 
ATOM     14  C   UNL     1      34.167 -20.776 -20.652  0.00  0.00    +0.097 C 
ATOM     15  C   UNL     1      37.448 -18.569 -22.538  0.00  0.00    +0.103 C 
BRANCH  12  17
ATOM     16  N   UNL     1      33.824 -16.901 -25.956  0.00  0.00    -0.242 NA
ATOM     17  C   UNL     1      35.321 -18.073 -23.901  0.00  0.00    -0.007 C 
ATOM     18  C   UNL     1      35.379 -16.698 -24.116  0.00  0.00    +0.017 C 
ATOM     19  C   UNL     1      34.512 -18.860 -24.716  0.00  0.00    +0.017 C 
ATOM     20  C   UNL     1      34.619 -16.167 -25.146  0.00  0.00    +0.099 C 
ATOM     21  C   UNL     1      33.791 -18.232 -25.719  0.00  0.00    +0.099 C 
ENDBRANCH  12  17
ENDBRANCH   2  10
BRANCH   1  22
ATOM     22  O   UNL     1      34.182 -24.630 -15.351  0.00  0.00    -0.478 OA
BRANCH  22  23
ATOM     23  C   UNL     1      33.709 -24.019 -14.158  0.00  0.00    +0.183 C 
BRANCH  23  24
ATOM     24  C   UNL     1      34.475 -24.594 -12.977  0.00  0.00    -0.029 C 
BRANCH  24  25
ATOM     25  N   UNL     1      35.893 -24.250 -13.066  0.00  0.00    +0.389 N 
ATOM     26  C   UNL     1      36.336 -23.573 -11.838  0.00  0.00    -0.077 C 
ATOM     27  C   UNL     1      36.697 -25.451 -13.329  0.00  0.00    -0.077 C 
ATOM     28  C   UNL     1      37.806 -23.163 -11.933  0.00  0.00    -0.023 C 
ATOM     29  C   UNL     1      38.180 -25.102 -13.473  0.00  0.00    -0.023 C 
ATOM     30  C   UNL     1      38.697 -24.360 -12.247  0.00  0.00    -0.004 C 
ATOM     31  H   UNL     1      36.026 -23.606 -13.845  0.00  0.00    -0.080 HD
ENDBRANCH  24  25
ENDBRANCH  23  24
ENDBRANCH  22  23
ENDBRANCH   1  22
TORSDOF 6
ENDMDL
MODEL 4
REMARK VINA RESULT:     -11.0      3.423     10.373
REMARK  Name = 11524144
REMARK  6 active torsions:
REMARK  status: ('A' for Active; 'I' for Inactive)
REMARK    1  A    between atoms: C_1  and  O_22
REMARK    2  A    between atoms: C_2  and  C_10
REMARK    3  A    between atoms: C_12  and  C_17
REMARK    4  A    between atoms: O_22  and  C_23
REMARK    5  A    between atoms: C_23  and  C_24
REMARK    6  A    between atoms: C_24  and  N_25
REMARK                            x       y       z     vdW  Elec       q    Type
REMARK                         _______ _______ _______ _____ _____    ______ ____
ROOT
ATOM      1  C   UNL     1      35.046 -19.926 -21.809  0.00  0.00    +0.138 C 
ATOM      2  C   UNL     1      35.037 -21.432 -19.472  0.00  0.00    -0.001 C 
ATOM      3  C   UNL     1      36.249 -20.242 -21.190  0.00  0.00    +0.037 C 
ATOM      4  C   UNL     1      33.838 -20.356 -21.273  0.00  0.00    +0.037 C 
ATOM      5  C   UNL     1      36.245 -20.997 -20.017  0.00  0.00    +0.003 C 
ATOM      6  C   UNL     1      33.834 -21.111 -20.100  0.00  0.00    +0.003 C 
ENDROOT
BRANCH   2  10
ATOM      7  N   UNL     1      33.995 -23.518 -16.527  0.00  0.00    -0.193 N 
ATOM      8  N   UNL     1      36.358 -23.140 -16.314  0.00  0.00    -0.231 NA
ATOM      9  N   UNL     1      32.973 -24.140 -15.881  0.00  0.00    -0.179 NA
ATOM     10  C   UNL     1      35.032 -22.227 -18.236  0.00  0.00    +0.019 C 
ATOM     11  C   UNL     1      35.200 -23.681 -15.846  0.00  0.00    +0.137 C 
ATOM     12  C   UNL     1      34.918 -24.437 -14.731  0.00  0.00    +0.121 C 
ATOM     13  C   UNL     1      33.931 -22.791 -17.713  0.00  0.00    +0.145 C 
ATOM     14  C   UNL     1      36.267 -22.468 -17.423  0.00  0.00    +0.097 C 
ATOM     15  C   UNL     1      33.541 -24.687 -14.807  0.00  0.00    +0.103 C 
BRANCH  12  17
ATOM     16  N   UNL     1      37.783 -25.609 -11.846  0.00  0.00    -0.242 NA
ATOM     17  C   UNL     1      35.887 -24.834 -13.756  0.00  0.00    -0.007 C 
ATOM     18  C   UNL     1      35.942 -24.193 -12.520  0.00  0.00    +0.017 C 
ATOM     19  C   UNL     1      36.783 -25.863 -14.033  0.00  0.00    +0.017 C 
ATOM     20  C   UNL     1      36.898 -24.614 -11.610  0.00  0.00    +0.099 C 
ATOM     21  C   UNL     1      37.701 -26.209 -13.055  0.00  0.00    +0.099 C 
ENDBRANCH  12  17
ENDBRANCH   2  10
BRANCH   1  22
ATOM     22  O   UNL     1      35.050 -19.184 -22.962  0.00  0.00    -0.478 OA
BRANCH  22  23
ATOM     23  C   UNL     1      35.974 -18.106 -23.027  0.00  0.00    +0.183 C 
BRANCH  23  24
ATOM     24  C   UNL     1      35.427 -17.051 -23.977  0.00  0.00    -0.029 C 
BRANCH  24  25
ATOM     25  N   UNL     1      35.249 -15.776 -23.284  0.00  0.00    +0.389 N 
ATOM     26  C   UNL     1      34.227 -14.963 -23.959  0.00  0.00    -0.077 C 
ATOM     27  C   UNL     1      34.901 -16.002 -21.875  0.00  0.00    -0.077 C 
ATOM     28  C   UNL     1      34.063 -13.604 -23.276  0.00  0.00    -0.023 C 
ATOM     29  C   UNL     1      34.759 -14.678 -21.123  0.00  0.00    -0.023 C 
ATOM     30  C   UNL     1      33.739 -13.765 -21.794  0.00  0.00    -0.004 C 
ATOM     31  H   UNL     1      36.129 -15.262 -23.313  0.00  0.00    -0.080 HD
ENDBRANCH  24  25
ENDBRANCH  23  24
ENDBRANCH  22  23
ENDBRANCH   1  22
TORSDOF 6
ENDMDL
MODEL 5
REMARK VINA RESULT:     -11.0      5.973      9.692
REMARK  Name = 11524144
REMARK  6 active torsions:
REMARK  status: ('A' for Active; 'I' for Inactive)
REMARK    1  A    between atoms: C_1  and  O_22
REMARK    2  A    between atoms: C_2  and  C_10
REMARK    3  A    between atoms: C_12  and  C_17
REMARK    4  A    between atoms: O_22  and  C_23
REMARK    5  A    between atoms: C_23  and  C_24
REMARK    6  A    between atoms: C_24  and  N_25
REMARK                            x       y       z     vdW  Elec       q    Type
REMARK                         _______ _______ _______ _____ _____    ______ ____
ROOT
ATOM      1  C   UNL     1      35.301 -17.120 -23.782  0.00  0.00    +0.138 C 
ATOM      2  C   UNL     1      34.387 -14.505 -23.546  0.00  0.00    -0.001 C 
ATOM      3  C   UNL     1      35.267 -16.513 -22.532  0.00  0.00    +0.037 C 
ATOM      4  C   UNL     1      34.881 -16.433 -24.915  0.00  0.00    +0.037 C 
ATOM      5  C   UNL     1      34.809 -15.201 -22.414  0.00  0.00    +0.003 C 
ATOM      6  C   UNL     1      34.423 -15.121 -24.797  0.00  0.00    +0.003 C 
ENDROOT
BRANCH   2  10
ATOM      7  N   UNL     1      32.489 -11.420 -22.547  0.00  0.00    -0.193 N 
ATOM      8  N   UNL     1      34.105 -10.744 -24.191  0.00  0.00    -0.231 NA
ATOM      9  N   UNL     1      31.500 -10.897 -21.775  0.00  0.00    -0.179 NA
ATOM     10  C   UNL     1      33.905 -13.121 -23.422  0.00  0.00    +0.019 C 
ATOM     11  C   UNL     1      33.088 -10.442 -23.338  0.00  0.00    +0.137 C 
ATOM     12  C   UNL     1      32.448  -9.259 -23.046  0.00  0.00    +0.121 C 
ATOM     13  C   UNL     1      32.908 -12.748 -22.604  0.00  0.00    +0.145 C 
ATOM     14  C   UNL     1      34.474 -11.990 -24.221  0.00  0.00    +0.097 C 
ATOM     15  C   UNL     1      31.487  -9.600 -22.085  0.00  0.00    +0.103 C 
BRANCH  12  17
ATOM     16  N   UNL     1      33.377  -5.531 -24.818  0.00  0.00    -0.242 NA
ATOM     17  C   UNL     1      32.762  -7.999 -23.646  0.00  0.00    -0.007 C 
ATOM     18  C   UNL     1      34.044  -7.466 -23.531  0.00  0.00    +0.017 C 
ATOM     19  C   UNL     1      31.789  -7.293 -24.349  0.00  0.00    +0.017 C 
ATOM     20  C   UNL     1      34.297  -6.242 -24.130  0.00  0.00    +0.099 C 
ATOM     21  C   UNL     1      32.143  -6.077 -24.911  0.00  0.00    +0.099 C 
ENDBRANCH  12  17
ENDBRANCH   2  10
BRANCH   1  22
ATOM     22  O   UNL     1      35.751 -18.409 -23.898  0.00  0.00    -0.478 OA
BRANCH  22  23
ATOM     23  C   UNL     1      35.200 -19.364 -23.001  0.00  0.00    +0.183 C 
BRANCH  23  24
ATOM     24  C   UNL     1      36.083 -19.439 -21.765  0.00  0.00    -0.029 C 
BRANCH  24  25
ATOM     25  N   UNL     1      35.381 -20.107 -20.669  0.00  0.00    +0.389 N 
ATOM     26  C   UNL     1      33.983 -20.369 -21.039  0.00  0.00    -0.077 C 
ATOM     27  C   UNL     1      36.074 -21.348 -20.297  0.00  0.00    -0.077 C 
ATOM     28  C   UNL     1      33.221 -21.024 -19.886  0.00  0.00    -0.023 C 
ATOM     29  C   UNL     1      35.380 -22.035 -19.119  0.00  0.00    -0.023 C 
ATOM     30  C   UNL     1      33.910 -22.302 -19.420  0.00  0.00    -0.004 C 
ATOM     31  H   UNL     1      35.381 -19.491 -19.857  0.00  0.00    -0.080 HD
ENDBRANCH  24  25
ENDBRANCH  23  24
ENDBRANCH  22  23
ENDBRANCH   1  22
TORSDOF 6
ENDMDL
MODEL 6
REMARK VINA RESULT:     -10.7      7.206     13.321
REMARK  Name = 11524144
REMARK  6 active torsions:
REMARK  status: ('A' for Active; 'I' for Inactive)
REMARK    1  A    between atoms: C_1  and  O_22
REMARK    2  A    between atoms: C_2  and  C_10
REMARK    3  A    between atoms: C_12  and  C_17
REMARK    4  A    between atoms: O_22  and  C_23
REMARK    5  A    between atoms: C_23  and  C_24
REMARK    6  A    between atoms: C_24  and  N_25
REMARK                            x       y       z     vdW  Elec       q    Type
REMARK                         _______ _______ _______ _____ _____    ______ ____
ROOT
ATOM      1  C   UNL     1      32.178  -9.560 -22.889  0.00  0.00    +0.138 C 
ATOM      2  C   UNL     1      33.244 -12.124 -23.011  0.00  0.00    -0.001 C 
ATOM      3  C   UNL     1      33.194  -9.840 -23.796  0.00  0.00    +0.037 C 
ATOM      4  C   UNL     1      31.689 -10.549 -22.044  0.00  0.00    +0.037 C 
ATOM      5  C   UNL     1      33.729 -11.127 -23.857  0.00  0.00    +0.003 C 
ATOM      6  C   UNL     1      32.225 -11.836 -22.105  0.00  0.00    +0.003 C 
ENDROOT
BRANCH   2  10
ATOM      7  N   UNL     1      34.546 -15.440 -24.208  0.00  0.00    -0.193 N 
ATOM      8  N   UNL     1      34.673 -15.464 -21.809  0.00  0.00    -0.231 NA
ATOM      9  N   UNL     1      34.812 -16.235 -25.278  0.00  0.00    -0.179 NA
ATOM     10  C   UNL     1      33.809 -13.481 -23.075  0.00  0.00    +0.019 C 
ATOM     11  C   UNL     1      34.861 -16.077 -23.010  0.00  0.00    +0.137 C 
ATOM     12  C   UNL     1      35.346 -17.320 -23.346  0.00  0.00    +0.121 C 
ATOM     13  C   UNL     1      34.022 -14.149 -24.220  0.00  0.00    +0.145 C 
ATOM     14  C   UNL     1      34.185 -14.260 -21.853  0.00  0.00    +0.097 C 
ATOM     15  C   UNL     1      35.292 -17.359 -24.746  0.00  0.00    +0.103 C 
BRANCH  12  17
ATOM     16  N   UNL     1      36.652 -20.219 -20.554  0.00  0.00    -0.242 NA
ATOM     17  C   UNL     1      35.787 -18.301 -22.401  0.00  0.00    -0.007 C 
ATOM     18  C   UNL     1      37.110 -18.310 -21.966  0.00  0.00    +0.017 C 
ATOM     19  C   UNL     1      34.898 -19.253 -21.911  0.00  0.00    +0.017 C 
ATOM     20  C   UNL     1      37.488 -19.280 -21.051  0.00  0.00    +0.099 C 
ATOM     21  C   UNL     1      35.375 -20.181 -20.998  0.00  0.00    +0.099 C 
ENDBRANCH  12  17
ENDBRANCH   2  10
BRANCH   1  22
ATOM     22  O   UNL     1      31.652  -8.296 -22.829  0.00  0.00    -0.478 OA
BRANCH  22  23
ATOM     23  C   UNL     1      32.205  -7.416 -21.860  0.00  0.00    +0.183 C 
BRANCH  23  24
ATOM     24  C   UNL     1      32.207  -6.004 -22.426  0.00  0.00    -0.029 C 
BRANCH  24  25
ATOM     25  N   UNL     1      32.791  -5.987 -23.767  0.00  0.00    +0.389 N 
ATOM     26  C   UNL     1      32.559  -4.687 -24.412  0.00  0.00    -0.077 C 
ATOM     27  C   UNL     1      34.225  -6.301 -23.706  0.00  0.00    -0.077 C 
ATOM     28  C   UNL     1      33.121  -4.667 -25.834  0.00  0.00    -0.023 C 
ATOM     29  C   UNL     1      34.841  -6.335 -25.105  0.00  0.00    -0.023 C 
ATOM     30  C   UNL     1      34.603  -5.027 -25.849  0.00  0.00    -0.004 C 
ATOM     31  H   UNL     1      32.335  -6.703 -24.332  0.00  0.00    -0.080 HD
ENDBRANCH  24  25
ENDBRANCH  23  24
ENDBRANCH  22  23
ENDBRANCH   1  22
TORSDOF 6
ENDMDL
MODEL 7
REMARK VINA RESULT:     -10.5      3.329     10.665
REMARK  Name = 11524144
REMARK  6 active torsions:
REMARK  status: ('A' for Active; 'I' for Inactive)
REMARK    1  A    between atoms: C_1  and  O_22
REMARK    2  A    between atoms: C_2  and  C_10
REMARK    3  A    between atoms: C_12  and  C_17
REMARK    4  A    between atoms: O_22  and  C_23
REMARK    5  A    between atoms: C_23  and  C_24
REMARK    6  A    between atoms: C_24  and  N_25
REMARK                            x       y       z     vdW  Elec       q    Type
REMARK                         _______ _______ _______ _____ _____    ______ ____
ROOT
ATOM      1  C   UNL     1      35.849 -18.767 -22.980  0.00  0.00    +0.138 C 
ATOM      2  C   UNL     1      35.609 -20.415 -20.754  0.00  0.00    -0.001 C 
ATOM      3  C   UNL     1      36.919 -18.900 -22.104  0.00  0.00    +0.037 C 
ATOM      4  C   UNL     1      34.659 -19.450 -22.755  0.00  0.00    +0.037 C 
ATOM      5  C   UNL     1      36.799 -19.727 -20.987  0.00  0.00    +0.003 C 
ATOM      6  C   UNL     1      34.539 -20.276 -21.637  0.00  0.00    +0.003 C 
ENDROOT
BRANCH   2  10
ATOM      7  N   UNL     1      34.286 -22.698 -18.079  0.00  0.00    -0.193 N 
ATOM      8  N   UNL     1      36.600 -22.296 -17.573  0.00  0.00    -0.231 NA
ATOM      9  N   UNL     1      33.211 -23.374 -17.594  0.00  0.00    -0.179 NA
ATOM     10  C   UNL     1      35.481 -21.286 -19.576  0.00  0.00    +0.019 C 
ATOM     11  C   UNL     1      35.409 -22.883 -17.276  0.00  0.00    +0.137 C 
ATOM     12  C   UNL     1      35.019 -23.712 -16.248  0.00  0.00    +0.121 C 
ATOM     13  C   UNL     1      34.341 -21.898 -19.218  0.00  0.00    +0.145 C 
ATOM     14  C   UNL     1      36.620 -21.558 -18.642  0.00  0.00    +0.097 C 
ATOM     15  C   UNL     1      33.666 -23.978 -16.496  0.00  0.00    +0.103 C 
BRANCH  12  17
ATOM     16  N   UNL     1      37.561 -25.017 -13.127  0.00  0.00    -0.242 NA
ATOM     17  C   UNL     1      35.879 -24.154 -15.193  0.00  0.00    -0.007 C 
ATOM     18  C   UNL     1      35.378 -24.326 -13.904  0.00  0.00    +0.017 C 
ATOM     19  C   UNL     1      37.223 -24.414 -15.445  0.00  0.00    +0.017 C 
ATOM     20  C   UNL     1      36.252 -24.755 -12.918  0.00  0.00    +0.099 C 
ATOM     21  C   UNL     1      38.014 -24.840 -14.388  0.00  0.00    +0.099 C 
ENDBRANCH  12  17
ENDBRANCH   2  10
BRANCH   1  22
ATOM     22  O   UNL     1      35.967 -17.954 -24.078  0.00  0.00    -0.478 OA
BRANCH  22  23
ATOM     23  C   UNL     1      35.276 -16.713 -24.035  0.00  0.00    +0.183 C 
BRANCH  23  24
ATOM     24  C   UNL     1      34.440 -16.576 -25.298  0.00  0.00    -0.029 C 
BRANCH  24  25
ATOM     25  N   UNL     1      33.880 -15.229 -25.401  0.00  0.00    +0.389 N 
ATOM     26  C   UNL     1      34.569 -14.313 -24.481  0.00  0.00    -0.077 C 
ATOM     27  C   UNL     1      33.956 -14.746 -26.787  0.00  0.00    -0.077 C 
ATOM     28  C   UNL     1      33.963 -12.910 -24.541  0.00  0.00    -0.023 C 
ATOM     29  C   UNL     1      33.330 -13.358 -26.923  0.00  0.00    -0.023 C 
ATOM     30  C   UNL     1      33.973 -12.362 -25.964  0.00  0.00    -0.004 C 
ATOM     31  H   UNL     1      32.896 -15.262 -25.134  0.00  0.00    -0.080 HD
ENDBRANCH  24  25
ENDBRANCH  23  24
ENDBRANCH  22  23
ENDBRANCH   1  22
TORSDOF 6
ENDMDL
MODEL 8
REMARK VINA RESULT:     -10.3      6.917     12.664
REMARK  Name = 11524144
REMARK  6 active torsions:
REMARK  status: ('A' for Active; 'I' for Inactive)
REMARK    1  A    between atoms: C_1  and  O_22
REMARK    2  A    between atoms: C_2  and  C_10
REMARK    3  A    between atoms: C_12  and  C_17
REMARK    4  A    between atoms: O_22  and  C_23
REMARK    5  A    between atoms: C_23  and  C_24
REMARK    6  A    between atoms: C_24  and  N_25
REMARK                            x       y       z     vdW  Elec       q    Type
REMARK                         _______ _______ _______ _____ _____    ______ ____
ROOT
ATOM      1  C   UNL     1      33.158 -10.686 -23.519  0.00  0.00    +0.138 C 
ATOM      2  C   UNL     1      33.973 -13.322 -23.177  0.00  0.00    -0.001 C 
ATOM      3  C   UNL     1      32.623 -11.442 -22.483  0.00  0.00    +0.037 C 
ATOM      4  C   UNL     1      34.097 -11.234 -24.386  0.00  0.00    +0.037 C 
ATOM      5  C   UNL     1      33.031 -12.765 -22.311  0.00  0.00    +0.003 C 
ATOM      6  C   UNL     1      34.505 -12.557 -24.214  0.00  0.00    +0.003 C 
ENDROOT
BRANCH   2  10
ATOM      7  N   UNL     1      34.997 -16.889 -23.767  0.00  0.00    -0.193 N 
ATOM      8  N   UNL     1      35.000 -16.545 -21.389  0.00  0.00    -0.231 NA
ATOM      9  N   UNL     1      35.237 -17.863 -24.684  0.00  0.00    -0.179 NA
ATOM     10  C   UNL     1      34.402 -14.717 -22.997  0.00  0.00    +0.019 C 
ATOM     11  C   UNL     1      35.186 -17.354 -22.468  0.00  0.00    +0.137 C 
ATOM     12  C   UNL     1      35.562 -18.674 -22.579  0.00  0.00    +0.121 C 
ATOM     13  C   UNL     1      34.606 -15.574 -24.010  0.00  0.00    +0.145 C 
ATOM     14  C   UNL     1      34.636 -15.324 -21.648  0.00  0.00    +0.097 C 
ATOM     15  C   UNL     1      35.575 -18.928 -23.956  0.00  0.00    +0.103 C 
BRANCH  12  17
ATOM     16  N   UNL     1      36.425 -21.200 -19.296  0.00  0.00    -0.242 NA
ATOM     17  C   UNL     1      35.854 -19.529 -21.469  0.00  0.00    -0.007 C 
ATOM     18  C   UNL     1      34.880 -20.390 -20.969  0.00  0.00    +0.017 C 
ATOM     19  C   UNL     1      37.114 -19.506 -20.878  0.00  0.00    +0.017 C 
ATOM     20  C   UNL     1      35.212 -21.196 -19.893  0.00  0.00    +0.099 C 
ATOM     21  C   UNL     1      37.347 -20.353 -19.805  0.00  0.00    +0.099 C 
ENDBRANCH  12  17
ENDBRANCH   2  10
BRANCH   1  22
ATOM     22  O   UNL     1      32.757  -9.386 -23.688  0.00  0.00    -0.478 OA
BRANCH  22  23
ATOM     23  C   UNL     1      33.748  -8.382 -23.518  0.00  0.00    +0.183 C 
BRANCH  23  24
ATOM     24  C   UNL     1      33.505  -7.674 -22.194  0.00  0.00    -0.029 C 
BRANCH  24  25
ATOM     25  N   UNL     1      32.903  -6.360 -22.416  0.00  0.00    +0.389 N 
ATOM     26  C   UNL     1      33.165  -5.898 -23.786  0.00  0.00    -0.077 C 
ATOM     27  C   UNL     1      31.461  -6.402 -22.136  0.00  0.00    -0.077 C 
ATOM     28  C   UNL     1      32.583  -4.503 -24.020  0.00  0.00    -0.023 C 
ATOM     29  C   UNL     1      30.824  -5.023 -22.315  0.00  0.00    -0.023 C 
ATOM     30  C   UNL     1      31.091  -4.465 -23.708  0.00  0.00    -0.004 C 
ATOM     31  H   UNL     1      33.329  -5.692 -21.773  0.00  0.00    -0.080 HD
ENDBRANCH  24  25
ENDBRANCH  23  24
ENDBRANCH  22  23
ENDBRANCH   1  22
TORSDOF 6
ENDMDL
MODEL 9
REMARK VINA RESULT:     -10.0      2.868     10.259
REMARK  Name = 11524144
REMARK  6 active torsions:
REMARK  status: ('A' for Active; 'I' for Inactive)
REMARK    1  A    between atoms: C_1  and  O_22
REMARK    2  A    between atoms: C_2  and  C_10
REMARK    3  A    between atoms: C_12  and  C_17
REMARK    4  A    between atoms: O_22  and  C_23
REMARK    5  A    between atoms: C_23  and  C_24
REMARK    6  A    between atoms: C_24  and  N_25
REMARK                            x       y       z     vdW  Elec       q    Type
REMARK                         _______ _______ _______ _____ _____    ______ ____
ROOT
ATOM      1  C   UNL     1      35.880 -19.177 -22.548  0.00  0.00    +0.138 C 
ATOM      2  C   UNL     1      35.047 -20.730 -20.397  0.00  0.00    -0.001 C 
ATOM      3  C   UNL     1      34.549 -19.567 -22.455  0.00  0.00    +0.037 C 
ATOM      4  C   UNL     1      36.799 -19.555 -21.575  0.00  0.00    +0.037 C 
ATOM      5  C   UNL     1      34.131 -20.346 -21.377  0.00  0.00    +0.003 C 
ATOM      6  C   UNL     1      36.381 -20.334 -20.497  0.00  0.00    +0.003 C 
ENDROOT
BRANCH   2  10
ATOM      7  N   UNL     1      34.962 -22.936 -17.358  0.00  0.00    -0.193 N 
ATOM      8  N   UNL     1      32.680 -22.536 -17.994  0.00  0.00    -0.231 NA
ATOM      9  N   UNL     1      35.684 -23.605 -16.420  0.00  0.00    -0.179 NA
ATOM     10  C   UNL     1      34.607 -21.552 -19.261  0.00  0.00    +0.019 C 
ATOM     11  C   UNL     1      33.593 -23.116 -17.169  0.00  0.00    +0.137 C 
ATOM     12  C   UNL     1      33.456 -23.929 -16.066  0.00  0.00    +0.121 C 
ATOM     13  C   UNL     1      35.447 -22.156 -18.405  0.00  0.00    +0.145 C 
ATOM     14  C   UNL     1      33.163 -21.813 -18.961  0.00  0.00    +0.097 C 
ATOM     15  C   UNL     1      34.768 -24.195 -15.652  0.00  0.00    +0.103 C 
BRANCH  12  17
ATOM     16  N   UNL     1      29.750 -25.208 -14.476  0.00  0.00    -0.242 NA
ATOM     17  C   UNL     1      32.202 -24.360 -15.529  0.00  0.00    -0.007 C 
ATOM     18  C   UNL     1      32.044 -24.516 -14.153  0.00  0.00    +0.017 C 
ATOM     19  C   UNL     1      31.131 -24.630 -16.375  0.00  0.00    +0.017 C 
ATOM     20  C   UNL     1      30.811 -24.937 -13.683  0.00  0.00    +0.099 C 
ATOM     21  C   UNL     1      29.938 -25.046 -15.805  0.00  0.00    +0.099 C 
ENDBRANCH  12  17
ENDBRANCH   2  10
BRANCH   1  22
ATOM     22  O   UNL     1      36.291 -18.410 -23.607  0.00  0.00    -0.478 OA
BRANCH  22  23
ATOM     23  C   UNL     1      35.309 -17.585 -24.220  0.00  0.00    +0.183 C 
BRANCH  23  24
ATOM     24  C   UNL     1      35.297 -16.236 -23.518  0.00  0.00    -0.029 C 
BRANCH  24  25
ATOM     25  N   UNL     1      34.406 -15.304 -24.207  0.00  0.00    +0.389 N 
ATOM     26  C   UNL     1      34.741 -13.917 -23.856  0.00  0.00    -0.077 C 
ATOM     27  C   UNL     1      34.467 -15.514 -25.660  0.00  0.00    -0.077 C 
ATOM     28  C   UNL     1      33.787 -12.930 -24.530  0.00  0.00    -0.023 C 
ATOM     29  C   UNL     1      33.504 -14.579 -26.394  0.00  0.00    -0.023 C 
ATOM     30  C   UNL     1      33.771 -13.120 -26.043  0.00  0.00    -0.004 C 
ATOM     31  H   UNL     1      33.448 -15.482 -23.904  0.00  0.00    -0.080 HD
ENDBRANCH  24  25
ENDBRANCH  23  24
ENDBRANCH  22  23
ENDBRANCH   1  22
TORSDOF 6
ENDMDL
