MODEL 1
REMARK VINA RESULT:     -11.4      0.000      0.000
REMARK  Name = 11998575
REMARK  7 active torsions:
REMARK  status: ('A' for Active; 'I' for Inactive)
REMARK    1  A    between atoms: C_6  and  C_18
REMARK    2  A    between atoms: C_14  and  O_22
REMARK    3  A    between atoms: C_15  and  O_16
REMARK    4  A    between atoms: C_18  and  O_20
REMARK    5  A    between atoms: O_22  and  C_23
REMARK    6  A    between atoms: C_23  and  C_24
REMARK    7  A    between atoms: C_29  and  O_30
REMARK                            x       y       z     vdW  Elec       q    Type
REMARK                         _______ _______ _______ _____ _____    ______ ____
ROOT
ATOM      1  O   UNL     1      32.939 -22.133 -19.197  0.00  0.00    -0.421 OA
ATOM      2  O   UNL     1      32.408 -20.945 -21.069  0.00  0.00    -0.244 OA
ATOM      3  C   UNL     1      35.630 -21.294 -19.426  0.00  0.00    +0.009 A 
ATOM      4  C   UNL     1      35.221 -22.175 -18.325  0.00  0.00    +0.038 A 
ATOM      5  C   UNL     1      34.673 -20.872 -20.365  0.00  0.00    +0.076 A 
ATOM      6  C   UNL     1      36.337 -19.595 -21.579  0.00  0.00    +0.004 C 
ATOM      7  C   UNL     1      33.884 -22.569 -18.243  0.00  0.00    +0.152 A 
ATOM      8  C   UNL     1      35.024 -20.029 -21.432  0.00  0.00    +0.004 C 
ATOM      9  C   UNL     1      36.952 -20.838 -19.601  0.00  0.00    +0.000 C 
ATOM     10  C   UNL     1      36.082 -22.663 -17.329  0.00  0.00    +0.043 C 
ATOM     11  C   UNL     1      37.300 -19.999 -20.664  0.00  0.00    -0.002 C 
ATOM     12  C   UNL     1      33.257 -21.301 -20.263  0.00  0.00    +0.346 A 
ATOM     13  C   UNL     1      33.398 -23.406 -17.234  0.00  0.00    +0.078 C 
ATOM     14  C   UNL     1      34.273 -23.873 -16.263  0.00  0.00    +0.176 C 
ATOM     15  C   UNL     1      35.614 -23.503 -16.309  0.00  0.00    +0.173 C 
ENDROOT
BRANCH  15  16
ATOM     16  O   UNL     1      36.486 -23.953 -15.363  0.00  0.00    -0.468 OA
ATOM     17  C   UNL     1      37.818 -23.446 -15.418  0.00  0.00    +0.253 C 
ENDBRANCH  15  16
BRANCH   6  18
ATOM     18  C   UNL     1      36.709 -18.702 -22.713  0.00  0.00    +0.133 C 
ATOM     19  C   UNL     1      35.890 -17.407 -22.741  0.00  0.00    +0.037 C 
BRANCH  18  20
ATOM     20  O   UNL     1      38.098 -18.358 -22.631  0.00  0.00    -0.380 OA
ATOM     21  H   UNL     1      38.185 -17.418 -22.412  0.00  0.00    +0.211 HD
ENDBRANCH  18  20
ENDBRANCH   6  18
BRANCH  14  22
ATOM     22  O   UNL     1      33.811 -24.690 -15.276  0.00  0.00    -0.467 OA
BRANCH  22  23
ATOM     23  C   UNL     1      33.007 -24.090 -14.261  0.00  0.00    +0.232 C 
BRANCH  23  24
ATOM     24  C   UNL     1      31.594 -23.982 -14.755  0.00  0.00    +0.021 C 
ATOM     25  C   UNL     1      31.026 -22.729 -14.949  0.00  0.00    +0.002 C 
ATOM     26  C   UNL     1      30.865 -25.139 -15.013  0.00  0.00    +0.002 C 
ATOM     27  C   UNL     1      29.712 -22.630 -15.409  0.00  0.00    +0.037 C 
ATOM     28  C   UNL     1      29.552 -25.040 -15.472  0.00  0.00    +0.037 C 
ATOM     29  C   UNL     1      28.976 -23.785 -15.669  0.00  0.00    +0.139 C 
BRANCH  29  30
ATOM     30  O   UNL     1      27.694 -23.688 -16.118  0.00  0.00    -0.471 OA
ATOM     31  C   UNL     1      27.091 -22.396 -16.086  0.00  0.00    +0.252 C 
ENDBRANCH  29  30
ENDBRANCH  23  24
ENDBRANCH  22  23
ENDBRANCH  14  22
TORSDOF 7
ENDMDL
MODEL 2
REMARK VINA RESULT:     -11.2      2.905      9.070
REMARK  Name = 11998575
REMARK  7 active torsions:
REMARK  status: ('A' for Active; 'I' for Inactive)
REMARK    1  A    between atoms: C_6  and  C_18
REMARK    2  A    between atoms: C_14  and  O_22
REMARK    3  A    between atoms: C_15  and  O_16
REMARK    4  A    between atoms: C_18  and  O_20
REMARK    5  A    between atoms: O_22  and  C_23
REMARK    6  A    between atoms: C_23  and  C_24
REMARK    7  A    between atoms: C_29  and  O_30
REMARK                            x       y       z     vdW  Elec       q    Type
REMARK                         _______ _______ _______ _____ _____    ______ ____
ROOT
ATOM      1  O   UNL     1      37.586 -22.115 -17.748  0.00  0.00    -0.421 OA
ATOM      2  O   UNL     1      38.745 -22.832 -15.920  0.00  0.00    -0.244 OA
ATOM      3  C   UNL     1      35.178 -23.034 -16.583  0.00  0.00    +0.009 A 
ATOM      4  C   UNL     1      35.164 -22.395 -17.905  0.00  0.00    +0.038 A 
ATOM      5  C   UNL     1      36.398 -23.185 -15.902  0.00  0.00    +0.076 A 
ATOM      6  C   UNL     1      35.292 -24.255 -14.031  0.00  0.00    +0.004 C 
ATOM      7  C   UNL     1      36.372 -21.953 -18.449  0.00  0.00    +0.152 A 
ATOM      8  C   UNL     1      36.454 -23.790 -14.636  0.00  0.00    +0.004 C 
ATOM      9  C   UNL     1      34.018 -23.515 -15.945  0.00  0.00    +0.000 C 
ATOM     10  C   UNL     1      34.013 -22.189 -18.681  0.00  0.00    +0.043 C 
ATOM     11  C   UNL     1      34.074 -24.118 -14.684  0.00  0.00    -0.002 C 
ATOM     12  C   UNL     1      37.672 -22.710 -16.496  0.00  0.00    +0.346 A 
ATOM     13  C   UNL     1      36.462 -21.335 -19.700  0.00  0.00    +0.078 C 
ATOM     14  C   UNL     1      35.306 -21.145 -20.445  0.00  0.00    +0.176 C 
ATOM     15  C   UNL     1      34.082 -21.571 -19.938  0.00  0.00    +0.173 C 
ENDROOT
BRANCH  15  16
ATOM     16  O   UNL     1      32.938 -21.392 -20.657  0.00  0.00    -0.468 OA
ATOM     17  C   UNL     1      32.552 -20.048 -20.936  0.00  0.00    +0.253 C 
ENDBRANCH  15  16
BRANCH   6  18
ATOM     18  C   UNL     1      35.352 -24.899 -12.687  0.00  0.00    +0.133 C 
ATOM     19  C   UNL     1      36.751 -25.420 -12.342  0.00  0.00    +0.037 C 
BRANCH  18  20
ATOM     20  O   UNL     1      34.953 -23.964 -11.677  0.00  0.00    -0.380 OA
ATOM     21  H   UNL     1      34.752 -23.110 -12.090  0.00  0.00    +0.211 HD
ENDBRANCH  18  20
ENDBRANCH   6  18
BRANCH  14  22
ATOM     22  O   UNL     1      35.382 -20.545 -21.665  0.00  0.00    -0.467 OA
BRANCH  22  23
ATOM     23  C   UNL     1      35.964 -19.243 -21.712  0.00  0.00    +0.232 C 
BRANCH  23  24
ATOM     24  C   UNL     1      35.484 -18.537 -22.947  0.00  0.00    +0.021 C 
ATOM     25  C   UNL     1      34.858 -19.261 -23.954  0.00  0.00    +0.002 C 
ATOM     26  C   UNL     1      35.673 -17.164 -23.072  0.00  0.00    +0.002 C 
ATOM     27  C   UNL     1      34.412 -18.605 -25.103  0.00  0.00    +0.037 C 
ATOM     28  C   UNL     1      35.228 -16.508 -24.220  0.00  0.00    +0.037 C 
ATOM     29  C   UNL     1      34.597 -17.229 -25.235  0.00  0.00    +0.139 C 
BRANCH  29  30
ATOM     30  O   UNL     1      34.162 -16.589 -26.354  0.00  0.00    -0.471 OA
ATOM     31  C   UNL     1      33.735 -15.236 -26.205  0.00  0.00    +0.252 C 
ENDBRANCH  29  30
ENDBRANCH  23  24
ENDBRANCH  22  23
ENDBRANCH  14  22
TORSDOF 7
ENDMDL
MODEL 3
REMARK VINA RESULT:     -10.9      5.733      9.648
REMARK  Name = 11998575
REMARK  7 active torsions:
REMARK  status: ('A' for Active; 'I' for Inactive)
REMARK    1  A    between atoms: C_6  and  C_18
REMARK    2  A    between atoms: C_14  and  O_22
REMARK    3  A    between atoms: C_15  and  O_16
REMARK    4  A    between atoms: C_18  and  O_20
REMARK    5  A    between atoms: O_22  and  C_23
REMARK    6  A    between atoms: C_23  and  C_24
REMARK    7  A    between atoms: C_29  and  O_30
REMARK                            x       y       z     vdW  Elec       q    Type
REMARK                         _______ _______ _______ _____ _____    ______ ____
ROOT
ATOM      1  O   UNL     1      32.841 -13.642 -20.063  0.00  0.00    -0.421 OA
ATOM      2  O   UNL     1      31.568 -11.912 -19.297  0.00  0.00    -0.244 OA
ATOM      3  C   UNL     1      33.260 -12.259 -22.494  0.00  0.00    +0.009 A 
ATOM      4  C   UNL     1      33.858 -13.583 -22.282  0.00  0.00    +0.038 A 
ATOM      5  C   UNL     1      32.478 -11.685 -21.477  0.00  0.00    +0.076 A 
ATOM      6  C   UNL     1      32.072  -9.710 -22.820  0.00  0.00    +0.004 C 
ATOM      7  C   UNL     1      33.630 -14.237 -21.070  0.00  0.00    +0.152 A 
ATOM      8  C   UNL     1      31.889 -10.421 -21.639  0.00  0.00    +0.004 C 
ATOM      9  C   UNL     1      33.428 -11.515 -23.678  0.00  0.00    +0.000 C 
ATOM     10  C   UNL     1      34.656 -14.259 -23.220  0.00  0.00    +0.043 C 
ATOM     11  C   UNL     1      32.841 -10.256 -23.839  0.00  0.00    -0.002 C 
ATOM     12  C   UNL     1      32.246 -12.394 -20.195  0.00  0.00    +0.346 A 
ATOM     13  C   UNL     1      34.154 -15.499 -20.775  0.00  0.00    +0.078 C 
ATOM     14  C   UNL     1      34.940 -16.143 -21.722  0.00  0.00    +0.176 C 
ATOM     15  C   UNL     1      35.191 -15.525 -22.944  0.00  0.00    +0.173 C 
ENDROOT
BRANCH  15  16
ATOM     16  O   UNL     1      35.959 -16.144 -23.884  0.00  0.00    -0.468 OA
ATOM     17  C   UNL     1      35.326 -16.483 -25.116  0.00  0.00    +0.253 C 
ENDBRANCH  15  16
BRANCH   6  18
ATOM     18  C   UNL     1      31.446  -8.368 -22.993  0.00  0.00    +0.133 C 
ATOM     19  C   UNL     1      31.913  -7.356 -21.941  0.00  0.00    +0.037 C 
BRANCH  18  20
ATOM     20  O   UNL     1      31.751  -7.847 -24.292  0.00  0.00    -0.380 OA
ATOM     21  H   UNL     1      32.705  -7.683 -24.357  0.00  0.00    +0.211 HD
ENDBRANCH  18  20
ENDBRANCH   6  18
BRANCH  14  22
ATOM     22  O   UNL     1      35.454 -17.373 -21.446  0.00  0.00    -0.467 OA
BRANCH  22  23
ATOM     23  C   UNL     1      34.900 -18.482 -22.154  0.00  0.00    +0.232 C 
BRANCH  23  24
ATOM     24  C   UNL     1      34.883 -19.680 -21.250  0.00  0.00    +0.021 C 
ATOM     25  C   UNL     1      36.081 -20.218 -20.797  0.00  0.00    +0.002 C 
ATOM     26  C   UNL     1      33.666 -20.242 -20.876  0.00  0.00    +0.002 C 
ATOM     27  C   UNL     1      36.065 -21.333 -19.957  0.00  0.00    +0.037 C 
ATOM     28  C   UNL     1      33.650 -21.356 -20.036  0.00  0.00    +0.037 C 
ATOM     29  C   UNL     1      34.849 -21.901 -19.577  0.00  0.00    +0.139 C 
BRANCH  29  30
ATOM     30  O   UNL     1      34.833 -22.987 -18.757  0.00  0.00    -0.471 OA
ATOM     31  C   UNL     1      33.663 -23.186 -17.965  0.00  0.00    +0.252 C 
ENDBRANCH  29  30
ENDBRANCH  23  24
ENDBRANCH  22  23
ENDBRANCH  14  22
TORSDOF 7
ENDMDL
MODEL 4
REMARK VINA RESULT:     -10.4      2.660      8.932
REMARK  Name = 11998575
REMARK  7 active torsions:
REMARK  status: ('A' for Active; 'I' for Inactive)
REMARK    1  A    between atoms: C_6  and  C_18
REMARK    2  A    between atoms: C_14  and  O_22
REMARK    3  A    between atoms: C_15  and  O_16
REMARK    4  A    between atoms: C_18  and  O_20
REMARK    5  A    between atoms: O_22  and  C_23
REMARK    6  A    between atoms: C_23  and  C_24
REMARK    7  A    between atoms: C_29  and  O_30
REMARK                            x       y       z     vdW  Elec       q    Type
REMARK                         _______ _______ _______ _____ _____    ______ ____
ROOT
ATOM      1  O   UNL     1      33.064 -22.410 -18.779  0.00  0.00    -0.421 OA
ATOM      2  O   UNL     1      32.421 -23.706 -17.016  0.00  0.00    -0.244 OA
ATOM      3  C   UNL     1      35.708 -22.358 -17.778  0.00  0.00    +0.009 A 
ATOM      4  C   UNL     1      35.372 -21.651 -19.021  0.00  0.00    +0.038 A 
ATOM      5  C   UNL     1      34.703 -23.061 -17.091  0.00  0.00    +0.076 A 
ATOM      6  C   UNL     1      36.272 -23.748 -15.377  0.00  0.00    +0.004 C 
ATOM      7  C   UNL     1      34.056 -21.698 -19.485  0.00  0.00    +0.152 A 
ATOM      8  C   UNL     1      34.984 -23.751 -15.901  0.00  0.00    +0.004 C 
ATOM      9  C   UNL     1      37.003 -22.374 -17.224  0.00  0.00    +0.000 C 
ATOM     10  C   UNL     1      36.285 -20.916 -19.794  0.00  0.00    +0.043 C 
ATOM     11  C   UNL     1      37.281 -23.060 -16.038  0.00  0.00    -0.002 C 
ATOM     12  C   UNL     1      33.311 -23.100 -17.599  0.00  0.00    +0.346 A 
ATOM     13  C   UNL     1      33.639 -21.057 -20.655  0.00  0.00    +0.078 C 
ATOM     14  C   UNL     1      34.564 -20.337 -21.399  0.00  0.00    +0.176 C 
ATOM     15  C   UNL     1      35.886 -20.266 -20.970  0.00  0.00    +0.173 C 
ENDROOT
BRANCH  15  16
ATOM     16  O   UNL     1      36.807 -19.563 -21.689  0.00  0.00    -0.468 OA
ATOM     17  C   UNL     1      37.638 -18.658 -20.965  0.00  0.00    +0.253 C 
ENDBRANCH  15  16
BRANCH   6  18
ATOM     18  C   UNL     1      36.569 -24.479 -14.112  0.00  0.00    +0.133 C 
ATOM     19  C   UNL     1      36.806 -23.539 -12.926  0.00  0.00    +0.037 C 
BRANCH  18  20
ATOM     20  O   UNL     1      35.483 -25.356 -13.786  0.00  0.00    -0.380 OA
ATOM     21  H   UNL     1      34.941 -24.953 -13.090  0.00  0.00    +0.211 HD
ENDBRANCH  18  20
ENDBRANCH   6  18
BRANCH  14  22
ATOM     22  O   UNL     1      34.168 -19.707 -22.539  0.00  0.00    -0.467 OA
BRANCH  22  23
ATOM     23  C   UNL     1      35.174 -19.439 -23.516  0.00  0.00    +0.232 C 
BRANCH  23  24
ATOM     24  C   UNL     1      34.944 -18.072 -24.092  0.00  0.00    +0.021 C 
ATOM     25  C   UNL     1      34.361 -17.943 -25.347  0.00  0.00    +0.002 C 
ATOM     26  C   UNL     1      35.318 -16.947 -23.364  0.00  0.00    +0.002 C 
ATOM     27  C   UNL     1      34.148 -16.673 -25.883  0.00  0.00    +0.037 C 
ATOM     28  C   UNL     1      35.105 -15.677 -23.900  0.00  0.00    +0.037 C 
ATOM     29  C   UNL     1      34.520 -15.540 -25.159  0.00  0.00    +0.139 C 
BRANCH  29  30
ATOM     30  O   UNL     1      34.311 -14.300 -25.681  0.00  0.00    -0.471 OA
ATOM     31  C   UNL     1      33.431 -14.206 -26.799  0.00  0.00    +0.252 C 
ENDBRANCH  29  30
ENDBRANCH  23  24
ENDBRANCH  22  23
ENDBRANCH  14  22
TORSDOF 7
ENDMDL
MODEL 5
REMARK VINA RESULT:     -10.4      1.890      8.975
REMARK  Name = 11998575
REMARK  7 active torsions:
REMARK  status: ('A' for Active; 'I' for Inactive)
REMARK    1  A    between atoms: C_6  and  C_18
REMARK    2  A    between atoms: C_14  and  O_22
REMARK    3  A    between atoms: C_15  and  O_16
REMARK    4  A    between atoms: C_18  and  O_20
REMARK    5  A    between atoms: O_22  and  C_23
REMARK    6  A    between atoms: C_23  and  C_24
REMARK    7  A    between atoms: C_29  and  O_30
REMARK                            x       y       z     vdW  Elec       q    Type
REMARK                         _______ _______ _______ _____ _____    ______ ____
ROOT
ATOM      1  O   UNL     1      36.385 -22.855 -17.165  0.00  0.00    -0.421 OA
ATOM      2  O   UNL     1      36.426 -24.023 -15.208  0.00  0.00    -0.244 OA
ATOM      3  C   UNL     1      33.561 -23.015 -17.204  0.00  0.00    +0.009 A 
ATOM      4  C   UNL     1      34.279 -22.324 -18.283  0.00  0.00    +0.038 A 
ATOM      5  C   UNL     1      34.291 -23.596 -16.153  0.00  0.00    +0.076 A 
ATOM      6  C   UNL     1      32.256 -24.365 -15.086  0.00  0.00    +0.004 C 
ATOM      7  C   UNL     1      35.673 -22.264 -18.231  0.00  0.00    +0.152 A 
ATOM      8  C   UNL     1      33.642 -24.266 -15.102  0.00  0.00    +0.004 C 
ATOM      9  C   UNL     1      32.158 -23.132 -17.160  0.00  0.00    +0.000 C 
ATOM     10  C   UNL     1      33.664 -21.706 -19.384  0.00  0.00    +0.043 C 
ATOM     11  C   UNL     1      31.514 -23.800 -16.114  0.00  0.00    -0.002 C 
ATOM     12  C   UNL     1      35.771 -23.524 -16.114  0.00  0.00    +0.346 A 
ATOM     13  C   UNL     1      36.445 -21.631 -19.209  0.00  0.00    +0.078 C 
ATOM     14  C   UNL     1      35.809 -21.029 -20.288  0.00  0.00    +0.176 C 
ATOM     15  C   UNL     1      34.420 -21.066 -20.376  0.00  0.00    +0.173 C 
ENDROOT
BRANCH  15  16
ATOM     16  O   UNL     1      33.781 -20.481 -21.428  0.00  0.00    -0.468 OA
ATOM     17  C   UNL     1      32.412 -20.130 -21.239  0.00  0.00    +0.253 C 
ENDBRANCH  15  16
BRANCH   6  18
ATOM     18  C   UNL     1      31.568 -25.077 -13.971  0.00  0.00    +0.133 C 
ATOM     19  C   UNL     1      30.867 -24.121 -13.000  0.00  0.00    +0.037 C 
BRANCH  18  20
ATOM     20  O   UNL     1      30.593 -25.986 -14.497  0.00  0.00    -0.380 OA
ATOM     21  H   UNL     1      30.492 -26.737 -13.891  0.00  0.00    +0.211 HD
ENDBRANCH  18  20
ENDBRANCH   6  18
BRANCH  14  22
ATOM     22  O   UNL     1      36.550 -20.410 -21.247  0.00  0.00    -0.467 OA
BRANCH  22  23
ATOM     23  C   UNL     1      36.599 -18.984 -21.211  0.00  0.00    +0.232 C 
BRANCH  23  24
ATOM     24  C   UNL     1      36.007 -18.443 -22.480  0.00  0.00    +0.021 C 
ATOM     25  C   UNL     1      35.795 -17.076 -22.612  0.00  0.00    +0.002 C 
ATOM     26  C   UNL     1      35.675 -19.315 -23.512  0.00  0.00    +0.002 C 
ATOM     27  C   UNL     1      35.245 -16.572 -23.791  0.00  0.00    +0.037 C 
ATOM     28  C   UNL     1      35.124 -18.812 -24.690  0.00  0.00    +0.037 C 
ATOM     29  C   UNL     1      34.909 -17.441 -24.830  0.00  0.00    +0.139 C 
BRANCH  29  30
ATOM     30  O   UNL     1      34.373 -16.950 -25.980  0.00  0.00    -0.471 OA
ATOM     31  C   UNL     1      33.801 -15.644 -25.925  0.00  0.00    +0.252 C 
ENDBRANCH  29  30
ENDBRANCH  23  24
ENDBRANCH  22  23
ENDBRANCH  14  22
TORSDOF 7
ENDMDL
MODEL 6
REMARK VINA RESULT:     -10.3      9.886     14.588
REMARK  Name = 11998575
REMARK  7 active torsions:
REMARK  status: ('A' for Active; 'I' for Inactive)
REMARK    1  A    between atoms: C_6  and  C_18
REMARK    2  A    between atoms: C_14  and  O_22
REMARK    3  A    between atoms: C_15  and  O_16
REMARK    4  A    between atoms: C_18  and  O_20
REMARK    5  A    between atoms: O_22  and  C_23
REMARK    6  A    between atoms: C_23  and  C_24
REMARK    7  A    between atoms: C_29  and  O_30
REMARK                            x       y       z     vdW  Elec       q    Type
REMARK                         _______ _______ _______ _____ _____    ______ ____
ROOT
ATOM      1  O   UNL     1      34.155  -8.101 -24.387  0.00  0.00    -0.421 OA
ATOM      2  O   UNL     1      34.801  -6.063 -25.180  0.00  0.00    -0.244 OA
ATOM      3  C   UNL     1      31.985  -6.890 -23.037  0.00  0.00    +0.009 A 
ATOM      4  C   UNL     1      32.195  -8.341 -22.950  0.00  0.00    +0.038 A 
ATOM      5  C   UNL     1      32.872  -6.109 -23.797  0.00  0.00    +0.076 A 
ATOM      6  C   UNL     1      31.650  -4.087 -23.258  0.00  0.00    +0.004 C 
ATOM      7  C   UNL     1      33.277  -8.904 -23.629  0.00  0.00    +0.152 A 
ATOM      8  C   UNL     1      32.705  -4.719 -23.907  0.00  0.00    +0.004 C 
ATOM      9  C   UNL     1      30.926  -6.222 -22.391  0.00  0.00    +0.000 C 
ATOM     10  C   UNL     1      31.381  -9.225 -22.224  0.00  0.00    +0.043 C 
ATOM     11  C   UNL     1      30.761  -4.838 -22.500  0.00  0.00    -0.002 C 
ATOM     12  C   UNL     1      34.016  -6.724 -24.512  0.00  0.00    +0.346 A 
ATOM     13  C   UNL     1      33.561 -10.273 -23.606  0.00  0.00    +0.078 C 
ATOM     14  C   UNL     1      32.738 -11.122 -22.878  0.00  0.00    +0.176 C 
ATOM     15  C   UNL     1      31.649 -10.600 -22.187  0.00  0.00    +0.173 C 
ENDROOT
BRANCH  15  16
ATOM     16  O   UNL     1      30.831 -11.420 -21.468  0.00  0.00    -0.468 OA
ATOM     17  C   UNL     1      30.771 -11.201 -20.061  0.00  0.00    +0.253 C 
ENDBRANCH  15  16
BRANCH   6  18
ATOM     18  C   UNL     1      31.475  -2.611 -23.373  0.00  0.00    +0.133 C 
ATOM     19  C   UNL     1      31.167  -2.161 -24.805  0.00  0.00    +0.037 C 
BRANCH  18  20
ATOM     20  O   UNL     1      30.408  -2.176 -22.521  0.00  0.00    -0.380 OA
ATOM     21  H   UNL     1      30.767  -1.615 -21.816  0.00  0.00    +0.211 HD
ENDBRANCH  18  20
ENDBRANCH   6  18
BRANCH  14  22
ATOM     22  O   UNL     1      33.006 -12.457 -22.848  0.00  0.00    -0.467 OA
BRANCH  22  23
ATOM     23  C   UNL     1      34.209 -12.892 -23.482  0.00  0.00    +0.232 C 
BRANCH  23  24
ATOM     24  C   UNL     1      34.610 -14.220 -22.910  0.00  0.00    +0.021 C 
ATOM     25  C   UNL     1      34.513 -14.439 -21.541  0.00  0.00    +0.002 C 
ATOM     26  C   UNL     1      35.076 -15.221 -23.757  0.00  0.00    +0.002 C 
ATOM     27  C   UNL     1      34.887 -15.674 -21.010  0.00  0.00    +0.037 C 
ATOM     28  C   UNL     1      35.449 -16.456 -23.227  0.00  0.00    +0.037 C 
ATOM     29  C   UNL     1      35.354 -16.682 -21.853  0.00  0.00    +0.139 C 
BRANCH  29  30
ATOM     30  O   UNL     1      35.718 -17.887 -21.335  0.00  0.00    -0.471 OA
ATOM     31  C   UNL     1      35.435 -19.044 -22.120  0.00  0.00    +0.252 C 
ENDBRANCH  29  30
ENDBRANCH  23  24
ENDBRANCH  22  23
ENDBRANCH  14  22
TORSDOF 7
ENDMDL
MODEL 7
REMARK VINA RESULT:     -10.1      2.762      9.010
REMARK  Name = 11998575
REMARK  7 active torsions:
REMARK  status: ('A' for Active; 'I' for Inactive)
REMARK    1  A    between atoms: C_6  and  C_18
REMARK    2  A    between atoms: C_14  and  O_22
REMARK    3  A    between atoms: C_15  and  O_16
REMARK    4  A    between atoms: C_18  and  O_20
REMARK    5  A    between atoms: O_22  and  C_23
REMARK    6  A    between atoms: C_23  and  C_24
REMARK    7  A    between atoms: C_29  and  O_30
REMARK                            x       y       z     vdW  Elec       q    Type
REMARK                         _______ _______ _______ _____ _____    ______ ____
ROOT
ATOM      1  O   UNL     1      32.954 -21.947 -19.465  0.00  0.00    -0.421 OA
ATOM      2  O   UNL     1      32.175 -23.217 -17.740  0.00  0.00    -0.244 OA
ATOM      3  C   UNL     1      35.549 -22.010 -18.344  0.00  0.00    +0.009 A 
ATOM      4  C   UNL     1      35.302 -21.286 -19.597  0.00  0.00    +0.038 A 
ATOM      5  C   UNL     1      34.485 -22.670 -17.707  0.00  0.00    +0.076 A 
ATOM      6  C   UNL     1      35.941 -23.427 -15.924  0.00  0.00    +0.004 C 
ATOM      7  C   UNL     1      34.008 -21.276 -20.122  0.00  0.00    +0.152 A 
ATOM      8  C   UNL     1      34.680 -23.373 -16.507  0.00  0.00    +0.004 C 
ATOM      9  C   UNL     1      36.815 -22.082 -17.730  0.00  0.00    +0.000 C 
ATOM     10  C   UNL     1      36.280 -20.590 -20.325  0.00  0.00    +0.043 C 
ATOM     11  C   UNL     1      37.008 -22.782 -16.535  0.00  0.00    -0.002 C 
ATOM     12  C   UNL     1      33.117 -22.648 -18.278  0.00  0.00    +0.346 A 
ATOM     13  C   UNL     1      33.673 -20.616 -21.308  0.00  0.00    +0.078 C 
ATOM     14  C   UNL     1      34.662 -19.935 -22.006  0.00  0.00    +0.176 C 
ATOM     15  C   UNL     1      35.965 -19.921 -21.516  0.00  0.00    +0.173 C 
ENDROOT
BRANCH  15  16
ATOM     16  O   UNL     1      36.947 -19.257 -22.188  0.00  0.00    -0.468 OA
ATOM     17  C   UNL     1      37.925 -18.580 -21.402  0.00  0.00    +0.253 C 
ENDBRANCH  15  16
BRANCH   6  18
ATOM     18  C   UNL     1      36.147 -24.173 -14.649  0.00  0.00    +0.133 C 
ATOM     19  C   UNL     1      37.517 -24.856 -14.578  0.00  0.00    +0.037 C 
BRANCH  18  20
ATOM     20  O   UNL     1      36.026 -23.281 -13.535  0.00  0.00    -0.380 OA
ATOM     21  H   UNL     1      35.995 -23.795 -12.713  0.00  0.00    +0.211 HD
ENDBRANCH  18  20
ENDBRANCH   6  18
BRANCH  14  22
ATOM     22  O   UNL     1      34.346 -19.287 -23.161  0.00  0.00    -0.467 OA
BRANCH  22  23
ATOM     23  C   UNL     1      35.414 -18.649 -23.860  0.00  0.00    +0.232 C 
BRANCH  23  24
ATOM     24  C   UNL     1      34.989 -17.260 -24.239  0.00  0.00    +0.021 C 
ATOM     25  C   UNL     1      35.211 -16.207 -23.359  0.00  0.00    +0.002 C 
ATOM     26  C   UNL     1      34.376 -17.040 -25.468  0.00  0.00    +0.002 C 
ATOM     27  C   UNL     1      34.815 -14.916 -23.712  0.00  0.00    +0.037 C 
ATOM     28  C   UNL     1      33.980 -15.749 -25.821  0.00  0.00    +0.037 C 
ATOM     29  C   UNL     1      34.200 -14.688 -24.943  0.00  0.00    +0.139 C 
BRANCH  29  30
ATOM     30  O   UNL     1      33.815 -13.429 -25.287  0.00  0.00    -0.471 OA
ATOM     31  C   UNL     1      34.217 -12.367 -24.423  0.00  0.00    +0.252 C 
ENDBRANCH  29  30
ENDBRANCH  23  24
ENDBRANCH  22  23
ENDBRANCH  14  22
TORSDOF 7
ENDMDL
MODEL 8
REMARK VINA RESULT:     -10.1      7.497     12.405
REMARK  Name = 11998575
REMARK  7 active torsions:
REMARK  status: ('A' for Active; 'I' for Inactive)
REMARK    1  A    between atoms: C_6  and  C_18
REMARK    2  A    between atoms: C_14  and  O_22
REMARK    3  A    between atoms: C_15  and  O_16
REMARK    4  A    between atoms: C_18  and  O_20
REMARK    5  A    between atoms: O_22  and  C_23
REMARK    6  A    between atoms: C_23  and  C_24
REMARK    7  A    between atoms: C_29  and  O_30
REMARK                            x       y       z     vdW  Elec       q    Type
REMARK                         _______ _______ _______ _____ _____    ______ ____
ROOT
ATOM      1  O   UNL     1      32.329 -11.894 -21.422  0.00  0.00    -0.421 OA
ATOM      2  O   UNL     1      31.553 -10.390 -19.894  0.00  0.00    -0.244 OA
ATOM      3  C   UNL     1      32.932  -9.780 -23.201  0.00  0.00    +0.009 A 
ATOM      4  C   UNL     1      33.205 -11.171 -23.584  0.00  0.00    +0.038 A 
ATOM      5  C   UNL     1      32.368  -9.509 -21.942  0.00  0.00    +0.076 A 
ATOM      6  C   UNL     1      32.375  -7.127 -22.384  0.00  0.00    +0.004 C 
ATOM      7  C   UNL     1      32.895 -12.189 -22.681  0.00  0.00    +0.152 A 
ATOM      8  C   UNL     1      32.093  -8.193 -21.537  0.00  0.00    +0.004 C 
ATOM      9  C   UNL     1      33.208  -8.680 -24.036  0.00  0.00    +0.000 C 
ATOM     10  C   UNL     1      33.764 -11.568 -24.810  0.00  0.00    +0.043 C 
ATOM     11  C   UNL     1      32.932  -7.369 -23.632  0.00  0.00    -0.002 C 
ATOM     12  C   UNL     1      32.044 -10.604 -20.996  0.00  0.00    +0.346 A 
ATOM     13  C   UNL     1      33.116 -13.542 -22.954  0.00  0.00    +0.078 C 
ATOM     14  C   UNL     1      33.669 -13.904 -24.175  0.00  0.00    +0.176 C 
ATOM     15  C   UNL     1      33.993 -12.919 -25.103  0.00  0.00    +0.173 C 
ENDROOT
BRANCH  15  16
ATOM     16  O   UNL     1      34.537 -13.257 -26.306  0.00  0.00    -0.468 OA
ATOM     17  C   UNL     1      33.644 -13.363 -27.412  0.00  0.00    +0.253 C 
ENDBRANCH  15  16
BRANCH   6  18
ATOM     18  C   UNL     1      32.081  -5.730 -21.954  0.00  0.00    +0.133 C 
ATOM     19  C   UNL     1      30.579  -5.449 -21.840  0.00  0.00    +0.037 C 
BRANCH  18  20
ATOM     20  O   UNL     1      32.690  -5.468 -20.684  0.00  0.00    -0.380 OA
ATOM     21  H   UNL     1      32.703  -6.284 -20.159  0.00  0.00    +0.211 HD
ENDBRANCH  18  20
ENDBRANCH   6  18
BRANCH  14  22
ATOM     22  O   UNL     1      33.887 -15.219 -24.452  0.00  0.00    -0.467 OA
BRANCH  22  23
ATOM     23  C   UNL     1      35.233 -15.687 -24.362  0.00  0.00    +0.232 C 
BRANCH  23  24
ATOM     24  C   UNL     1      35.252 -16.977 -23.595  0.00  0.00    +0.021 C 
ATOM     25  C   UNL     1      34.994 -18.173 -24.253  0.00  0.00    +0.002 C 
ATOM     26  C   UNL     1      35.525 -16.962 -22.230  0.00  0.00    +0.002 C 
ATOM     27  C   UNL     1      35.011 -19.373 -23.540  0.00  0.00    +0.037 C 
ATOM     28  C   UNL     1      35.542 -18.161 -21.517  0.00  0.00    +0.037 C 
ATOM     29  C   UNL     1      35.285 -19.366 -22.172  0.00  0.00    +0.139 C 
BRANCH  29  30
ATOM     30  O   UNL     1      35.302 -20.535 -21.476  0.00  0.00    -0.471 OA
ATOM     31  C   UNL     1      36.233 -20.638 -20.400  0.00  0.00    +0.252 C 
ENDBRANCH  29  30
ENDBRANCH  23  24
ENDBRANCH  22  23
ENDBRANCH  14  22
TORSDOF 7
ENDMDL
MODEL 9
REMARK VINA RESULT:     -10.0      7.816     13.356
REMARK  Name = 11998575
REMARK  7 active torsions:
REMARK  status: ('A' for Active; 'I' for Inactive)
REMARK    1  A    between atoms: C_6  and  C_18
REMARK    2  A    between atoms: C_14  and  O_22
REMARK    3  A    between atoms: C_15  and  O_16
REMARK    4  A    between atoms: C_18  and  O_20
REMARK    5  A    between atoms: O_22  and  C_23
REMARK    6  A    between atoms: C_23  and  C_24
REMARK    7  A    between atoms: C_29  and  O_30
REMARK                            x       y       z     vdW  Elec       q    Type
REMARK                         _______ _______ _______ _____ _____    ______ ____
ROOT
ATOM      1  O   UNL     1      33.414 -13.117 -24.421  0.00  0.00    -0.421 OA
ATOM      2  O   UNL     1      34.252 -14.654 -25.881  0.00  0.00    -0.244 OA
ATOM      3  C   UNL     1      34.250 -14.722 -22.248  0.00  0.00    +0.009 A 
ATOM      4  C   UNL     1      33.564 -13.447 -22.005  0.00  0.00    +0.038 A 
ATOM      5  C   UNL     1      34.486 -15.138 -23.570  0.00  0.00    +0.076 A 
ATOM      6  C   UNL     1      35.566 -17.168 -22.803  0.00  0.00    +0.004 C 
ATOM      7  C   UNL     1      33.166 -12.680 -23.102  0.00  0.00    +0.152 A 
ATOM      8  C   UNL     1      35.140 -16.351 -23.844  0.00  0.00    +0.004 C 
ATOM      9  C   UNL     1      34.693 -15.571 -21.214  0.00  0.00    +0.000 C 
ATOM     10  C   UNL     1      33.271 -12.926 -20.735  0.00  0.00    +0.043 C 
ATOM     11  C   UNL     1      35.343 -16.778 -21.489  0.00  0.00    -0.002 C 
ATOM     12  C   UNL     1      34.055 -14.311 -24.722  0.00  0.00    +0.346 A 
ATOM     13  C   UNL     1      32.506 -11.454 -22.974  0.00  0.00    +0.078 C 
ATOM     14  C   UNL     1      32.229 -10.964 -21.704  0.00  0.00    +0.176 C 
ATOM     15  C   UNL     1      32.610 -11.699 -20.585  0.00  0.00    +0.173 C 
ENDROOT
BRANCH  15  16
ATOM     16  O   UNL     1      32.346 -11.232 -19.332  0.00  0.00    -0.468 OA
ATOM     17  C   UNL     1      30.987 -11.268 -18.902  0.00  0.00    +0.253 C 
ENDBRANCH  15  16
BRANCH   6  18
ATOM     18  C   UNL     1      36.258 -18.456 -23.095  0.00  0.00    +0.133 C 
ATOM     19  C   UNL     1      37.223 -18.875 -21.981  0.00  0.00    +0.037 C 
BRANCH  18  20
ATOM     20  O   UNL     1      35.294 -19.500 -23.277  0.00  0.00    -0.380 OA
ATOM     21  H   UNL     1      35.713 -20.252 -23.724  0.00  0.00    +0.211 HD
ENDBRANCH  18  20
ENDBRANCH   6  18
BRANCH  14  22
ATOM     22  O   UNL     1      31.586  -9.772 -21.568  0.00  0.00    -0.467 OA
BRANCH  22  23
ATOM     23  C   UNL     1      32.373  -8.653 -21.163  0.00  0.00    +0.232 C 
BRANCH  23  24
ATOM     24  C   UNL     1      32.673  -7.805 -22.365  0.00  0.00    +0.021 C 
ATOM     25  C   UNL     1      31.646  -7.449 -23.230  0.00  0.00    +0.002 C 
ATOM     26  C   UNL     1      33.979  -7.386 -22.603  0.00  0.00    +0.002 C 
ATOM     27  C   UNL     1      31.925  -6.661 -24.347  0.00  0.00    +0.037 C 
ATOM     28  C   UNL     1      34.258  -6.599 -23.720  0.00  0.00    +0.037 C 
ATOM     29  C   UNL     1      33.231  -6.237 -24.592  0.00  0.00    +0.139 C 
BRANCH  29  30
ATOM     30  O   UNL     1      33.504  -5.468 -25.682  0.00  0.00    -0.471 OA
ATOM     31  C   UNL     1      34.878  -5.259 -26.002  0.00  0.00    +0.252 C 
ENDBRANCH  29  30
ENDBRANCH  23  24
ENDBRANCH  22  23
ENDBRANCH  14  22
TORSDOF 7
ENDMDL
