MODEL 1
REMARK VINA RESULT:     -11.9      0.000      0.000
REMARK  Name = 44129624
REMARK  6 active torsions:
REMARK  status: ('A' for Active; 'I' for Inactive)
REMARK    1  A    between atoms: C_1  and  O_20
REMARK    2  A    between atoms: C_4  and  C_8
REMARK    3  A    between atoms: C_8  and  C_9
REMARK    4  A    between atoms: C_10  and  C_16
REMARK    5  A    between atoms: O_20  and  C_21
REMARK    6  A    between atoms: C_21  and  C_23
REMARK                            x       y       z     vdW  Elec       q    Type
REMARK                         _______ _______ _______ _____ _____    ______ ____
ROOT
ATOM      1  C   UNL     1      33.870 -21.985 -19.478  0.00  0.00    +0.138 C 
ATOM      2  C   UNL     1      33.328 -21.024 -20.330  0.00  0.00    +0.037 C 
ATOM      3  C   UNL     1      35.250 -22.050 -19.287  0.00  0.00    +0.037 C 
ATOM      4  C   UNL     1      35.546 -20.191 -20.801  0.00  0.00    +0.039 C 
ATOM      5  C   UNL     1      34.165 -20.127 -20.991  0.00  0.00    +0.006 C 
ATOM      6  C   UNL     1      36.088 -21.152 -19.948  0.00  0.00    +0.006 C 
ENDROOT
BRANCH   4   8
ATOM      7  O   UNL     1      37.650 -19.352 -21.382  0.00  0.00    -0.287 OA
ATOM      8  C   UNL     1      36.419 -19.253 -21.489  0.00  0.00    +0.196 C 
BRANCH   8   9
ATOM      9  C   UNL     1      35.891 -18.145 -22.342  0.00  0.00    +0.039 C 
ATOM     10  C   UNL     1      34.908 -16.078 -23.935  0.00  0.00    +0.001 C 
ATOM     11  C   UNL     1      35.585 -16.911 -21.770  0.00  0.00    +0.003 C 
ATOM     12  C   UNL     1      35.706 -18.347 -23.710  0.00  0.00    +0.003 C 
ATOM     13  C   UNL     1      35.093 -15.877 -22.568  0.00  0.00    +0.000 C 
ATOM     14  C   UNL     1      35.214 -17.313 -24.506  0.00  0.00    +0.000 C 
BRANCH  10  16
ATOM     15  S   UNL     1      33.410 -13.830 -26.808  0.00  0.00    -0.086 S 
ATOM     16  C   UNL     1      34.403 -15.012 -24.754  0.00  0.00    +0.007 C 
ATOM     17  C   UNL     1      34.284 -13.637 -24.400  0.00  0.00    +0.007 C 
ATOM     18  C   UNL     1      33.964 -15.256 -26.037  0.00  0.00    +0.035 C 
ATOM     19  C   UNL     1      33.758 -12.882 -25.425  0.00  0.00    +0.035 C 
ENDBRANCH  10  16
ENDBRANCH   8   9
ENDBRANCH   4   8
BRANCH   1  20
ATOM     20  O   UNL     1      33.046 -22.870 -18.826  0.00  0.00    -0.478 OA
BRANCH  20  21
ATOM     21  C   UNL     1      33.366 -23.171 -17.478  0.00  0.00    +0.184 C 
BRANCH  21  23
ATOM     22  N   UNL     1      30.934 -22.752 -17.230  0.00  0.00    +0.388 N 
ATOM     23  C   UNL     1      32.086 -23.522 -16.737  0.00  0.00    -0.017 C 
ATOM     24  C   UNL     1      32.136 -23.162 -15.260  0.00  0.00    -0.020 C 
ATOM     25  C   UNL     1      30.674 -23.009 -14.868  0.00  0.00    -0.025 C 
ATOM     26  C   UNL     1      29.916 -22.898 -16.184  0.00  0.00    -0.082 C 
ATOM     27  H   UNL     1      30.598 -23.135 -18.114  0.00  0.00    -0.084 HD
ATOM     28  H   UNL     1      31.170 -21.776 -17.408  0.00  0.00    -0.084 HD
ENDBRANCH  21  23
ENDBRANCH  20  21
ENDBRANCH   1  20
TORSDOF 6
ENDMDL
MODEL 2
REMARK VINA RESULT:     -10.8      4.473      8.986
REMARK  Name = 44129624
REMARK  6 active torsions:
REMARK  status: ('A' for Active; 'I' for Inactive)
REMARK    1  A    between atoms: C_1  and  O_20
REMARK    2  A    between atoms: C_4  and  C_8
REMARK    3  A    between atoms: C_8  and  C_9
REMARK    4  A    between atoms: C_10  and  C_16
REMARK    5  A    between atoms: O_20  and  C_21
REMARK    6  A    between atoms: C_21  and  C_23
REMARK                            x       y       z     vdW  Elec       q    Type
REMARK                         _______ _______ _______ _____ _____    ______ ____
ROOT
ATOM      1  C   UNL     1      34.715 -14.757 -22.647  0.00  0.00    +0.138 C 
ATOM      2  C   UNL     1      34.909 -15.419 -23.858  0.00  0.00    +0.037 C 
ATOM      3  C   UNL     1      34.884 -15.441 -21.443  0.00  0.00    +0.037 C 
ATOM      4  C   UNL     1      35.442 -17.450 -22.664  0.00  0.00    +0.039 C 
ATOM      5  C   UNL     1      35.272 -16.765 -23.868  0.00  0.00    +0.006 C 
ATOM      6  C   UNL     1      35.248 -16.788 -21.452  0.00  0.00    +0.006 C 
ENDROOT
BRANCH   4   8
ATOM      7  O   UNL     1      36.439 -19.326 -23.641  0.00  0.00    -0.287 OA
ATOM      8  C   UNL     1      35.824 -18.853 -22.674  0.00  0.00    +0.196 C 
BRANCH   8   9
ATOM      9  C   UNL     1      35.503 -19.779 -21.545  0.00  0.00    +0.039 C 
ATOM     10  C   UNL     1      34.905 -21.508 -19.439  0.00  0.00    +0.001 C 
ATOM     11  C   UNL     1      34.176 -20.103 -21.266  0.00  0.00    +0.003 C 
ATOM     12  C   UNL     1      36.531 -20.317 -20.771  0.00  0.00    +0.003 C 
ATOM     13  C   UNL     1      33.877 -20.968 -20.213  0.00  0.00    +0.000 C 
ATOM     14  C   UNL     1      36.232 -21.182 -19.719  0.00  0.00    +0.000 C 
BRANCH  10  16
ATOM     15  S   UNL     1      34.914 -23.734 -16.184  0.00  0.00    -0.086 S 
ATOM     16  C   UNL     1      34.596 -22.398 -18.356  0.00  0.00    +0.007 C 
ATOM     17  C   UNL     1      33.384 -23.119 -18.155  0.00  0.00    +0.007 C 
ATOM     18  C   UNL     1      35.514 -22.641 -17.358  0.00  0.00    +0.035 C 
ATOM     19  C   UNL     1      33.421 -23.885 -17.010  0.00  0.00    +0.035 C 
ENDBRANCH  10  16
ENDBRANCH   8   9
ENDBRANCH   4   8
BRANCH   1  20
ATOM     20  O   UNL     1      34.356 -13.432 -22.637  0.00  0.00    -0.478 OA
BRANCH  20  21
ATOM     21  C   UNL     1      33.065 -13.113 -23.129  0.00  0.00    +0.184 C 
BRANCH  21  23
ATOM     22  N   UNL     1      31.281 -11.722 -22.113  0.00  0.00    +0.388 N 
ATOM     23  C   UNL     1      32.126 -12.914 -21.950  0.00  0.00    -0.017 C 
ATOM     24  C   UNL     1      32.859 -12.642 -20.646  0.00  0.00    -0.020 C 
ATOM     25  C   UNL     1      31.838 -11.902 -19.796  0.00  0.00    -0.025 C 
ATOM     26  C   UNL     1      30.757 -11.453 -20.770  0.00  0.00    -0.082 C 
ATOM     27  H   UNL     1      30.519 -11.908 -22.765  0.00  0.00    -0.084 HD
ATOM     28  H   UNL     1      31.799 -10.930 -22.492  0.00  0.00    -0.084 HD
ENDBRANCH  21  23
ENDBRANCH  20  21
ENDBRANCH   1  20
TORSDOF 6
ENDMDL
MODEL 3
REMARK VINA RESULT:     -10.7      4.564      9.101
REMARK  Name = 44129624
REMARK  6 active torsions:
REMARK  status: ('A' for Active; 'I' for Inactive)
REMARK    1  A    between atoms: C_1  and  O_20
REMARK    2  A    between atoms: C_4  and  C_8
REMARK    3  A    between atoms: C_8  and  C_9
REMARK    4  A    between atoms: C_10  and  C_16
REMARK    5  A    between atoms: O_20  and  C_21
REMARK    6  A    between atoms: C_21  and  C_23
REMARK                            x       y       z     vdW  Elec       q    Type
REMARK                         _______ _______ _______ _____ _____    ______ ____
ROOT
ATOM      1  C   UNL     1      34.561 -14.624 -22.641  0.00  0.00    +0.138 C 
ATOM      2  C   UNL     1      34.776 -15.279 -21.429  0.00  0.00    +0.037 C 
ATOM      3  C   UNL     1      34.836 -15.275 -23.844  0.00  0.00    +0.037 C 
ATOM      4  C   UNL     1      35.539 -17.236 -22.621  0.00  0.00    +0.039 C 
ATOM      5  C   UNL     1      35.264 -16.584 -21.418  0.00  0.00    +0.006 C 
ATOM      6  C   UNL     1      35.325 -16.581 -23.833  0.00  0.00    +0.006 C 
ENDROOT
BRANCH   4   8
ATOM      7  O   UNL     1      36.799 -18.992 -23.513  0.00  0.00    -0.287 OA
ATOM      8  C   UNL     1      36.047 -18.599 -22.610  0.00  0.00    +0.196 C 
BRANCH   8   9
ATOM      9  C   UNL     1      35.698 -19.575 -21.534  0.00  0.00    +0.039 C 
ATOM     10  C   UNL     1      35.045 -21.398 -19.525  0.00  0.00    +0.001 C 
ATOM     11  C   UNL     1      36.703 -20.123 -20.737  0.00  0.00    +0.003 C 
ATOM     12  C   UNL     1      34.367 -19.939 -21.327  0.00  0.00    +0.003 C 
ATOM     13  C   UNL     1      36.376 -21.034 -19.732  0.00  0.00    +0.000 C 
ATOM     14  C   UNL     1      34.041 -20.850 -20.323  0.00  0.00    +0.000 C 
BRANCH  10  16
ATOM     15  S   UNL     1      34.965 -23.739 -16.353  0.00  0.00    -0.086 S 
ATOM     16  C   UNL     1      34.711 -22.335 -18.490  0.00  0.00    +0.007 C 
ATOM     17  C   UNL     1      33.513 -23.097 -18.373  0.00  0.00    +0.007 C 
ATOM     18  C   UNL     1      35.588 -22.588 -17.458  0.00  0.00    +0.035 C 
ATOM     19  C   UNL     1      33.518 -23.902 -17.255  0.00  0.00    +0.035 C 
ENDBRANCH  10  16
ENDBRANCH   8   9
ENDBRANCH   4   8
BRANCH   1  20
ATOM     20  O   UNL     1      34.080 -13.339 -22.653  0.00  0.00    -0.478 OA
BRANCH  20  21
ATOM     21  C   UNL     1      32.755 -13.154 -23.122  0.00  0.00    +0.184 C 
BRANCH  21  23
ATOM     22  N   UNL     1      32.313 -10.952 -22.067  0.00  0.00    +0.388 N 
ATOM     23  C   UNL     1      31.967 -12.382 -22.075  0.00  0.00    -0.017 C 
ATOM     24  C   UNL     1      32.280 -12.821 -20.653  0.00  0.00    -0.020 C 
ATOM     25  C   UNL     1      31.914 -11.612 -19.805  0.00  0.00    -0.025 C 
ATOM     26  C   UNL     1      31.799 -10.454 -20.787  0.00  0.00    -0.082 C 
ATOM     27  H   UNL     1      31.865 -10.471 -22.846  0.00  0.00    -0.084 HD
ATOM     28  H   UNL     1      33.315 -10.797 -22.168  0.00  0.00    -0.084 HD
ENDBRANCH  21  23
ENDBRANCH  20  21
ENDBRANCH   1  20
TORSDOF 6
ENDMDL
MODEL 4
REMARK VINA RESULT:     -10.7      1.714      2.551
REMARK  Name = 44129624
REMARK  6 active torsions:
REMARK  status: ('A' for Active; 'I' for Inactive)
REMARK    1  A    between atoms: C_1  and  O_20
REMARK    2  A    between atoms: C_4  and  C_8
REMARK    3  A    between atoms: C_8  and  C_9
REMARK    4  A    between atoms: C_10  and  C_16
REMARK    5  A    between atoms: O_20  and  C_21
REMARK    6  A    between atoms: C_21  and  C_23
REMARK                            x       y       z     vdW  Elec       q    Type
REMARK                         _______ _______ _______ _____ _____    ______ ____
ROOT
ATOM      1  C   UNL     1      35.114 -21.510 -19.726  0.00  0.00    +0.138 C 
ATOM      2  C   UNL     1      36.457 -21.146 -19.826  0.00  0.00    +0.037 C 
ATOM      3  C   UNL     1      34.159 -20.878 -20.523  0.00  0.00    +0.037 C 
ATOM      4  C   UNL     1      35.891 -19.521 -21.521  0.00  0.00    +0.039 C 
ATOM      5  C   UNL     1      36.846 -20.153 -20.723  0.00  0.00    +0.006 C 
ATOM      6  C   UNL     1      34.549 -19.884 -21.421  0.00  0.00    +0.006 C 
ENDROOT
BRANCH   4   8
ATOM      7  O   UNL     1      37.239 -18.687 -23.240  0.00  0.00    -0.287 OA
ATOM      8  C   UNL     1      36.298 -18.487 -22.458  0.00  0.00    +0.196 C 
BRANCH   8   9
ATOM      9  C   UNL     1      35.618 -17.158 -22.530  0.00  0.00    +0.039 C 
ATOM     10  C   UNL     1      34.348 -14.677 -22.662  0.00  0.00    +0.001 C 
ATOM     11  C   UNL     1      35.329 -16.588 -23.770  0.00  0.00    +0.003 C 
ATOM     12  C   UNL     1      35.273 -16.486 -21.356  0.00  0.00    +0.003 C 
ATOM     13  C   UNL     1      34.694 -15.348 -23.836  0.00  0.00    +0.000 C 
ATOM     14  C   UNL     1      34.639 -15.246 -21.423  0.00  0.00    +0.000 C 
BRANCH  10  16
ATOM     15  S   UNL     1      32.084 -11.495 -22.120  0.00  0.00    -0.086 S 
ATOM     16  C   UNL     1      33.694 -13.401 -22.733  0.00  0.00    +0.007 C 
ATOM     17  C   UNL     1      33.938 -12.360 -23.674  0.00  0.00    +0.007 C 
ATOM     18  C   UNL     1      32.709 -13.063 -21.830  0.00  0.00    +0.035 C 
ATOM     19  C   UNL     1      33.131 -11.265 -23.455  0.00  0.00    +0.035 C 
ENDBRANCH  10  16
ENDBRANCH   8   9
ENDBRANCH   4   8
BRANCH   1  20
ATOM     20  O   UNL     1      34.730 -22.487 -18.842  0.00  0.00    -0.478 OA
BRANCH  20  21
ATOM     21  C   UNL     1      33.344 -22.590 -18.562  0.00  0.00    +0.184 C 
BRANCH  21  23
ATOM     22  N   UNL     1      31.953 -23.078 -16.567  0.00  0.00    +0.388 N 
ATOM     23  C   UNL     1      33.157 -23.453 -17.324  0.00  0.00    -0.017 C 
ATOM     24  C   UNL     1      34.273 -23.281 -16.305  0.00  0.00    -0.020 C 
ATOM     25  C   UNL     1      33.636 -23.696 -14.987  0.00  0.00    -0.025 C 
ATOM     26  C   UNL     1      32.137 -23.695 -15.249  0.00  0.00    -0.082 C 
ATOM     27  H   UNL     1      31.115 -23.442 -17.021  0.00  0.00    -0.084 HD
ATOM     28  H   UNL     1      31.834 -22.067 -16.508  0.00  0.00    -0.084 HD
ENDBRANCH  21  23
ENDBRANCH  20  21
ENDBRANCH   1  20
TORSDOF 6
ENDMDL
MODEL 5
REMARK VINA RESULT:     -10.4      4.101      6.215
REMARK  Name = 44129624
REMARK  6 active torsions:
REMARK  status: ('A' for Active; 'I' for Inactive)
REMARK    1  A    between atoms: C_1  and  O_20
REMARK    2  A    between atoms: C_4  and  C_8
REMARK    3  A    between atoms: C_8  and  C_9
REMARK    4  A    between atoms: C_10  and  C_16
REMARK    5  A    between atoms: O_20  and  C_21
REMARK    6  A    between atoms: C_21  and  C_23
REMARK                            x       y       z     vdW  Elec       q    Type
REMARK                         _______ _______ _______ _____ _____    ______ ____
ROOT
ATOM      1  C   UNL     1      35.991 -23.331 -14.337  0.00  0.00    +0.138 C 
ATOM      2  C   UNL     1      36.687 -22.796 -15.420  0.00  0.00    +0.037 C 
ATOM      3  C   UNL     1      34.710 -23.853 -14.519  0.00  0.00    +0.037 C 
ATOM      4  C   UNL     1      34.822 -23.303 -16.869  0.00  0.00    +0.039 C 
ATOM      5  C   UNL     1      36.103 -22.781 -16.686  0.00  0.00    +0.006 C 
ATOM      6  C   UNL     1      34.126 -23.838 -15.786  0.00  0.00    +0.006 C 
ENDROOT
BRANCH   4   8
ATOM      7  O   UNL     1      33.463 -24.211 -18.541  0.00  0.00    -0.287 OA
ATOM      8  C   UNL     1      34.215 -23.290 -18.190  0.00  0.00    +0.196 C 
BRANCH   8   9
ATOM      9  C   UNL     1      34.458 -22.191 -19.174  0.00  0.00    +0.039 C 
ATOM     10  C   UNL     1      34.913 -20.140 -21.009  0.00  0.00    +0.001 C 
ATOM     11  C   UNL     1      33.381 -21.491 -19.717  0.00  0.00    +0.003 C 
ATOM     12  C   UNL     1      35.762 -21.867 -19.549  0.00  0.00    +0.003 C 
ATOM     13  C   UNL     1      33.609 -20.465 -20.634  0.00  0.00    +0.000 C 
ATOM     14  C   UNL     1      35.989 -20.841 -20.467  0.00  0.00    +0.000 C 
BRANCH  10  16
ATOM     15  S   UNL     1      35.286 -17.880 -24.219  0.00  0.00    -0.086 S 
ATOM     16  C   UNL     1      35.145 -19.083 -21.953  0.00  0.00    +0.007 C 
ATOM     17  C   UNL     1      35.587 -17.759 -21.670  0.00  0.00    +0.007 C 
ATOM     18  C   UNL     1      34.943 -19.285 -23.301  0.00  0.00    +0.035 C 
ATOM     19  C   UNL     1      35.706 -16.998 -22.813  0.00  0.00    +0.035 C 
ENDBRANCH  10  16
ENDBRANCH   8   9
ENDBRANCH   4   8
BRANCH   1  20
ATOM     20  O   UNL     1      36.564 -23.345 -13.090  0.00  0.00    -0.478 OA
BRANCH  20  21
ATOM     21  C   UNL     1      36.465 -24.552 -12.352  0.00  0.00    +0.184 C 
BRANCH  21  23
ATOM     22  N   UNL     1      38.838 -24.697 -13.062  0.00  0.00    +0.388 N 
ATOM     23  C   UNL     1      37.622 -25.460 -12.739  0.00  0.00    -0.017 C 
ATOM     24  C   UNL     1      37.359 -26.247 -14.014  0.00  0.00    -0.020 C 
ATOM     25  C   UNL     1      38.749 -26.575 -14.538  0.00  0.00    -0.025 C 
ATOM     26  C   UNL     1      39.691 -25.649 -13.782  0.00  0.00    -0.082 C 
ATOM     27  H   UNL     1      39.296 -24.376 -12.210  0.00  0.00    -0.084 HD
ATOM     28  H   UNL     1      38.635 -23.865 -13.614  0.00  0.00    -0.084 HD
ENDBRANCH  21  23
ENDBRANCH  20  21
ENDBRANCH   1  20
TORSDOF 6
ENDMDL
MODEL 6
REMARK VINA RESULT:     -10.2      4.821     10.253
REMARK  Name = 44129624
REMARK  6 active torsions:
REMARK  status: ('A' for Active; 'I' for Inactive)
REMARK    1  A    between atoms: C_1  and  O_20
REMARK    2  A    between atoms: C_4  and  C_8
REMARK    3  A    between atoms: C_8  and  C_9
REMARK    4  A    between atoms: C_10  and  C_16
REMARK    5  A    between atoms: O_20  and  C_21
REMARK    6  A    between atoms: C_21  and  C_23
REMARK                            x       y       z     vdW  Elec       q    Type
REMARK                         _______ _______ _______ _____ _____    ______ ____
ROOT
ATOM      1  C   UNL     1      35.976 -19.364 -21.413  0.00  0.00    +0.138 C 
ATOM      2  C   UNL     1      36.819 -20.184 -20.663  0.00  0.00    +0.037 C 
ATOM      3  C   UNL     1      34.598 -19.574 -21.392  0.00  0.00    +0.037 C 
ATOM      4  C   UNL     1      34.904 -21.426 -19.871  0.00  0.00    +0.039 C 
ATOM      5  C   UNL     1      36.283 -21.215 -19.893  0.00  0.00    +0.006 C 
ATOM      6  C   UNL     1      34.062 -20.605 -20.621  0.00  0.00    +0.006 C 
ENDROOT
BRANCH   4   8
ATOM      7  O   UNL     1      33.446 -23.221 -19.522  0.00  0.00    -0.287 OA
ATOM      8  C   UNL     1      34.346 -22.500 -19.065  0.00  0.00    +0.196 C 
BRANCH   8   9
ATOM      9  C   UNL     1      34.815 -22.786 -17.676  0.00  0.00    +0.039 C 
ATOM     10  C   UNL     1      35.689 -23.320 -15.081  0.00  0.00    +0.001 C 
ATOM     11  C   UNL     1      36.098 -22.410 -17.282  0.00  0.00    +0.003 C 
ATOM     12  C   UNL     1      33.968 -23.431 -16.773  0.00  0.00    +0.003 C 
ATOM     13  C   UNL     1      36.536 -22.677 -15.984  0.00  0.00    +0.000 C 
ATOM     14  C   UNL     1      34.406 -23.698 -15.476  0.00  0.00    +0.000 C 
BRANCH  10  16
ATOM     15  S   UNL     1      36.070 -24.409 -11.310  0.00  0.00    -0.086 S 
ATOM     16  C   UNL     1      36.141 -23.594 -13.746  0.00  0.00    +0.007 C 
ATOM     17  C   UNL     1      37.426 -23.315 -13.199  0.00  0.00    +0.007 C 
ATOM     18  C   UNL     1      35.305 -24.189 -12.826  0.00  0.00    +0.035 C 
ATOM     19  C   UNL     1      37.524 -23.708 -11.882  0.00  0.00    +0.035 C 
ENDBRANCH  10  16
ENDBRANCH   8   9
ENDBRANCH   4   8
BRANCH   1  20
ATOM     20  O   UNL     1      36.503 -18.349 -22.172  0.00  0.00    -0.478 OA
BRANCH  20  21
ATOM     21  C   UNL     1      35.729 -17.904 -23.274  0.00  0.00    +0.184 C 
BRANCH  21  23
ATOM     22  N   UNL     1      34.944 -15.890 -22.057  0.00  0.00    +0.388 N 
ATOM     23  C   UNL     1      35.659 -16.385 -23.243  0.00  0.00    -0.017 C 
ATOM     24  C   UNL     1      34.858 -15.803 -24.397  0.00  0.00    -0.020 C 
ATOM     25  C   UNL     1      34.402 -14.446 -23.883  0.00  0.00    -0.025 C 
ATOM     26  C   UNL     1      34.618 -14.496 -22.377  0.00  0.00    -0.082 C 
ATOM     27  H   UNL     1      35.541 -15.939 -21.231  0.00  0.00    -0.084 HD
ATOM     28  H   UNL     1      34.113 -16.443 -21.848  0.00  0.00    -0.084 HD
ENDBRANCH  21  23
ENDBRANCH  20  21
ENDBRANCH   1  20
TORSDOF 6
ENDMDL
MODEL 7
REMARK VINA RESULT:     -10.2      3.977      6.735
REMARK  Name = 44129624
REMARK  6 active torsions:
REMARK  status: ('A' for Active; 'I' for Inactive)
REMARK    1  A    between atoms: C_1  and  O_20
REMARK    2  A    between atoms: C_4  and  C_8
REMARK    3  A    between atoms: C_8  and  C_9
REMARK    4  A    between atoms: C_10  and  C_16
REMARK    5  A    between atoms: O_20  and  C_21
REMARK    6  A    between atoms: C_21  and  C_23
REMARK                            x       y       z     vdW  Elec       q    Type
REMARK                         _______ _______ _______ _____ _____    ______ ____
ROOT
ATOM      1  C   UNL     1      35.447 -16.817 -21.878  0.00  0.00    +0.138 C 
ATOM      2  C   UNL     1      34.896 -15.663 -21.324  0.00  0.00    +0.037 C 
ATOM      3  C   UNL     1      35.511 -16.964 -23.264  0.00  0.00    +0.037 C 
ATOM      4  C   UNL     1      34.474 -14.800 -23.540  0.00  0.00    +0.039 C 
ATOM      5  C   UNL     1      34.410 -14.654 -22.154  0.00  0.00    +0.006 C 
ATOM      6  C   UNL     1      35.025 -15.955 -24.094  0.00  0.00    +0.006 C 
ENDROOT
BRANCH   4   8
ATOM      7  O   UNL     1      33.830 -13.950 -25.621  0.00  0.00    -0.287 OA
ATOM      8  C   UNL     1      33.968 -13.747 -24.406  0.00  0.00    +0.196 C 
BRANCH   8   9
ATOM      9  C   UNL     1      33.596 -12.395 -23.890  0.00  0.00    +0.039 C 
ATOM     10  C   UNL     1      32.902  -9.870 -22.927  0.00  0.00    +0.001 C 
ATOM     11  C   UNL     1      32.641 -12.272 -22.881  0.00  0.00    +0.003 C 
ATOM     12  C   UNL     1      34.203 -11.255 -24.418  0.00  0.00    +0.003 C 
ATOM     13  C   UNL     1      32.294 -11.010 -22.399  0.00  0.00    +0.000 C 
ATOM     14  C   UNL     1      33.856  -9.993 -23.936  0.00  0.00    +0.000 C 
BRANCH  10  16
ATOM     15  S   UNL     1      31.383  -6.282 -22.319  0.00  0.00    -0.086 S 
ATOM     16  C   UNL     1      32.544  -8.572 -22.429  0.00  0.00    +0.007 C 
ATOM     17  C   UNL     1      33.024  -7.943 -21.244  0.00  0.00    +0.007 C 
ATOM     18  C   UNL     1      31.646  -7.779 -23.109  0.00  0.00    +0.035 C 
ATOM     19  C   UNL     1      32.474  -6.693 -21.063  0.00  0.00    +0.035 C 
ENDBRANCH  10  16
ENDBRANCH   8   9
ENDBRANCH   4   8
BRANCH   1  20
ATOM     20  O   UNL     1      35.926 -17.811 -21.061  0.00  0.00    -0.478 OA
BRANCH  20  21
ATOM     21  C   UNL     1      36.519 -18.932 -21.695  0.00  0.00    +0.184 C 
BRANCH  21  23
ATOM     22  N   UNL     1      34.335 -19.843 -20.953  0.00  0.00    +0.388 N 
ATOM     23  C   UNL     1      35.711 -20.174 -21.353  0.00  0.00    -0.017 C 
ATOM     24  C   UNL     1      36.253 -20.921 -20.144  0.00  0.00    -0.020 C 
ATOM     25  C   UNL     1      35.051 -21.693 -19.619  0.00  0.00    -0.025 C 
ATOM     26  C   UNL     1      33.842 -21.054 -20.287  0.00  0.00    -0.082 C 
ATOM     27  H   UNL     1      33.766 -19.625 -21.770  0.00  0.00    -0.084 HD
ATOM     28  H   UNL     1      34.296 -19.025 -20.345  0.00  0.00    -0.084 HD
ENDBRANCH  21  23
ENDBRANCH  20  21
ENDBRANCH   1  20
TORSDOF 6
ENDMDL
MODEL 8
REMARK VINA RESULT:     -10.2      3.111      5.794
REMARK  Name = 44129624
REMARK  6 active torsions:
REMARK  status: ('A' for Active; 'I' for Inactive)
REMARK    1  A    between atoms: C_1  and  O_20
REMARK    2  A    between atoms: C_4  and  C_8
REMARK    3  A    between atoms: C_8  and  C_9
REMARK    4  A    between atoms: C_10  and  C_16
REMARK    5  A    between atoms: O_20  and  C_21
REMARK    6  A    between atoms: C_21  and  C_23
REMARK                            x       y       z     vdW  Elec       q    Type
REMARK                         _______ _______ _______ _____ _____    ______ ____
ROOT
ATOM      1  C   UNL     1      35.334 -18.562 -23.576  0.00  0.00    +0.138 C 
ATOM      2  C   UNL     1      34.562 -18.742 -24.723  0.00  0.00    +0.037 C 
ATOM      3  C   UNL     1      35.690 -17.276 -23.168  0.00  0.00    +0.037 C 
ATOM      4  C   UNL     1      34.501 -16.350 -25.056  0.00  0.00    +0.039 C 
ATOM      5  C   UNL     1      34.145 -17.637 -25.463  0.00  0.00    +0.006 C 
ATOM      6  C   UNL     1      35.272 -16.170 -23.909  0.00  0.00    +0.006 C 
ENDROOT
BRANCH   4   8
ATOM      7  O   UNL     1      33.806 -15.315 -27.035  0.00  0.00    -0.287 OA
ATOM      8  C   UNL     1      34.064 -15.197 -25.828  0.00  0.00    +0.196 C 
BRANCH   8   9
ATOM      9  C   UNL     1      33.904 -13.841 -25.221  0.00  0.00    +0.039 C 
ATOM     10  C   UNL     1      33.608 -11.309 -24.089  0.00  0.00    +0.001 C 
ATOM     11  C   UNL     1      33.386 -13.710 -23.933  0.00  0.00    +0.003 C 
ATOM     12  C   UNL     1      34.273 -12.706 -25.944  0.00  0.00    +0.003 C 
ATOM     13  C   UNL     1      33.238 -12.443 -23.367  0.00  0.00    +0.000 C 
ATOM     14  C   UNL     1      34.125 -11.440 -25.378  0.00  0.00    +0.000 C 
BRANCH  10  16
ATOM     15  S   UNL     1      32.490  -8.139 -22.026  0.00  0.00    -0.086 S 
ATOM     16  C   UNL     1      33.455 -10.006 -23.505  0.00  0.00    +0.007 C 
ATOM     17  C   UNL     1      34.237  -8.846 -23.772  0.00  0.00    +0.007 C 
ATOM     18  C   UNL     1      32.469  -9.762 -22.574  0.00  0.00    +0.035 C 
ATOM     19  C   UNL     1      33.820  -7.759 -23.036  0.00  0.00    +0.035 C 
ENDBRANCH  10  16
ENDBRANCH   8   9
ENDBRANCH   4   8
BRANCH   1  20
ATOM     20  O   UNL     1      35.746 -19.650 -22.846  0.00  0.00    -0.478 OA
BRANCH  20  21
ATOM     21  C   UNL     1      35.661 -19.545 -21.435  0.00  0.00    +0.184 C 
BRANCH  21  23
ATOM     22  N   UNL     1      33.825 -20.729 -20.259  0.00  0.00    +0.388 N 
ATOM     23  C   UNL     1      35.154 -20.865 -20.874  0.00  0.00    -0.017 C 
ATOM     24  C   UNL     1      36.011 -21.394 -19.735  0.00  0.00    -0.020 C 
ATOM     25  C   UNL     1      35.069 -22.300 -18.956  0.00  0.00    -0.025 C 
ATOM     26  C   UNL     1      33.672 -21.936 -19.440  0.00  0.00    -0.082 C 
ATOM     27  H   UNL     1      33.101 -20.686 -20.975  0.00  0.00    -0.084 HD
ATOM     28  H   UNL     1      33.740 -19.875 -19.709  0.00  0.00    -0.084 HD
ENDBRANCH  21  23
ENDBRANCH  20  21
ENDBRANCH   1  20
TORSDOF 6
ENDMDL
MODEL 9
REMARK VINA RESULT:     -10.1      3.877      5.627
REMARK  Name = 44129624
REMARK  6 active torsions:
REMARK  status: ('A' for Active; 'I' for Inactive)
REMARK    1  A    between atoms: C_1  and  O_20
REMARK    2  A    between atoms: C_4  and  C_8
REMARK    3  A    between atoms: C_8  and  C_9
REMARK    4  A    between atoms: C_10  and  C_16
REMARK    5  A    between atoms: O_20  and  C_21
REMARK    6  A    between atoms: C_21  and  C_23
REMARK                            x       y       z     vdW  Elec       q    Type
REMARK                         _______ _______ _______ _____ _____    ______ ____
ROOT
ATOM      1  C   UNL     1      37.199 -23.233 -15.384  0.00  0.00    +0.138 C 
ATOM      2  C   UNL     1      37.499 -22.421 -16.477  0.00  0.00    +0.037 C 
ATOM      3  C   UNL     1      35.955 -23.859 -15.301  0.00  0.00    +0.037 C 
ATOM      4  C   UNL     1      35.312 -22.859 -17.404  0.00  0.00    +0.039 C 
ATOM      5  C   UNL     1      36.557 -22.234 -17.487  0.00  0.00    +0.006 C 
ATOM      6  C   UNL     1      35.012 -23.672 -16.311  0.00  0.00    +0.006 C 
ENDROOT
BRANCH   4   8
ATOM      7  O   UNL     1      33.295 -23.349 -18.481  0.00  0.00    -0.287 OA
ATOM      8  C   UNL     1      34.330 -22.666 -18.459  0.00  0.00    +0.196 C 
BRANCH   8   9
ATOM      9  C   UNL     1      34.510 -21.658 -19.547  0.00  0.00    +0.039 C 
ATOM     10  C   UNL     1      34.846 -19.776 -21.579  0.00  0.00    +0.001 C 
ATOM     11  C   UNL     1      35.793 -21.320 -19.978  0.00  0.00    +0.003 C 
ATOM     12  C   UNL     1      33.396 -21.054 -20.130  0.00  0.00    +0.003 C 
ATOM     13  C   UNL     1      35.960 -20.379 -20.995  0.00  0.00    +0.000 C 
ATOM     14  C   UNL     1      33.564 -20.114 -21.146  0.00  0.00    +0.000 C 
BRANCH  10  16
ATOM     15  S   UNL     1      35.626 -16.582 -23.755  0.00  0.00    -0.086 S 
ATOM     16  C   UNL     1      35.021 -18.808 -22.625  0.00  0.00    +0.007 C 
ATOM     17  C   UNL     1      34.739 -18.980 -24.011  0.00  0.00    +0.007 C 
ATOM     18  C   UNL     1      35.509 -17.550 -22.348  0.00  0.00    +0.035 C 
ATOM     19  C   UNL     1      35.022 -17.846 -24.741  0.00  0.00    +0.035 C 
ENDBRANCH  10  16
ENDBRANCH   8   9
ENDBRANCH   4   8
BRANCH   1  20
ATOM     20  O   UNL     1      38.127 -23.418 -14.389  0.00  0.00    -0.478 OA
BRANCH  20  21
ATOM     21  C   UNL     1      38.280 -24.737 -13.892  0.00  0.00    +0.184 C 
BRANCH  21  23
ATOM     22  N   UNL     1      36.418 -25.383 -12.387  0.00  0.00    +0.388 N 
ATOM     23  C   UNL     1      37.760 -24.786 -12.464  0.00  0.00    -0.017 C 
ATOM     24  C   UNL     1      37.560 -23.406 -11.856  0.00  0.00    -0.020 C 
ATOM     25  C   UNL     1      36.525 -23.631 -10.765  0.00  0.00    -0.025 C 
ATOM     26  C   UNL     1      35.915 -24.994 -11.065  0.00  0.00    -0.082 C 
ATOM     27  H   UNL     1      36.472 -26.399 -12.466  0.00  0.00    -0.084 HD
ATOM     28  H   UNL     1      35.810 -25.065 -13.141  0.00  0.00    -0.084 HD
ENDBRANCH  21  23
ENDBRANCH  20  21
ENDBRANCH   1  20
TORSDOF 6
ENDMDL
