MODEL 1
REMARK VINA RESULT:     -11.7      0.000      0.000
REMARK  Name = 213049
REMARK  9 active torsions:
REMARK  status: ('A' for Active; 'I' for Inactive)
REMARK    1  A    between atoms: C_3  and  C_13
REMARK    2  A    between atoms: C_4  and  N_25
REMARK    3  A    between atoms: C_16  and  C_17
REMARK    4  A    between atoms: C_17  and  O_18
REMARK    5  A    between atoms: C_17  and  C_20
REMARK    6  A    between atoms: C_20  and  O_21
REMARK    7  A    between atoms: C_26  and  C_29
REMARK    8  A    between atoms: C_29  and  O_30
REMARK    9  A    between atoms: O_30  and  C_33
REMARK                            x       y       z     vdW  Elec       q    Type
REMARK                         _______ _______ _______ _____ _____    ______ ____
ROOT
ATOM      1  F   UNL     1      37.306 -19.901 -21.001  0.00  0.00    -0.204 F 
ATOM      2  F   UNL     1      32.574 -20.087 -21.433  0.00  0.00    -0.204 F 
ATOM      3  C   UNL     1      34.941 -19.968 -21.250  0.00  0.00    +0.051 C 
ATOM      4  C   UNL     1      34.818 -21.765 -19.120  0.00  0.00    +0.062 C 
ATOM      5  C   UNL     1      36.112 -20.370 -20.607  0.00  0.00    +0.143 C 
ATOM      6  C   UNL     1      33.708 -20.465 -20.827  0.00  0.00    +0.143 C 
ATOM      7  C   UNL     1      36.051 -21.268 -19.542  0.00  0.00    +0.045 C 
ATOM      8  C   UNL     1      33.646 -21.363 -19.763  0.00  0.00    +0.045 C 
ENDROOT
BRANCH   3  13
ATOM      9  O   UNL     1      33.807 -16.661 -26.527  0.00  0.00    -0.272 OA
ATOM     10  N   UNL     1      34.935 -17.191 -24.562  0.00  0.00    -0.273 N 
ATOM     11  C   UNL     1      34.415 -19.436 -23.704  0.00  0.00    +0.048 C 
ATOM     12  C   UNL     1      34.982 -18.621 -24.862  0.00  0.00    +0.098 C 
ATOM     13  C   UNL     1      35.007 -19.014 -22.382  0.00  0.00    -0.019 C 
ATOM     14  C   UNL     1      35.629 -16.764 -23.339  0.00  0.00    +0.120 C 
ATOM     15  C   UNL     1      35.560 -17.793 -22.247  0.00  0.00    -0.009 C 
ATOM     16  C   UNL     1      34.389 -16.309 -25.498  0.00  0.00    +0.255 C 
BRANCH  16  17
ATOM     17  C   UNL     1      34.533 -14.838 -25.196  0.00  0.00    +0.217 C 
BRANCH  17  18
ATOM     18  O   UNL     1      33.978 -14.167 -26.309  0.00  0.00    -0.374 OA
ATOM     19  H   UNL     1      33.101 -13.825 -26.078  0.00  0.00    +0.211 HD
ENDBRANCH  17  18
BRANCH  17  20
ATOM     20  C   UNL     1      33.757 -14.472 -23.950  0.00  0.00    +0.176 C 
BRANCH  20  21
ATOM     21  O   UNL     1      34.450 -13.459 -23.235  0.00  0.00    -0.379 OA
ATOM     22  H   UNL     1      35.260 -13.223 -23.713  0.00  0.00    +0.211 HD
ENDBRANCH  20  21
ENDBRANCH  17  20
ENDBRANCH  16  17
ENDBRANCH   3  13
BRANCH   4  25
ATOM     23  O   UNL     1      35.227 -23.807 -16.133  0.00  0.00    -0.432 OA
ATOM     24  O   UNL     1      36.668 -22.163 -16.738  0.00  0.00    -0.226 OA
ATOM     25  N   UNL     1      34.755 -22.681 -18.031  0.00  0.00    -0.221 N 
ATOM     26  C   UNL     1      33.912 -24.225 -16.527  0.00  0.00    +0.234 C 
ATOM     27  C   UNL     1      33.772 -23.728 -17.949  0.00  0.00    +0.149 C 
ATOM     28  C   UNL     1      35.645 -22.794 -16.966  0.00  0.00    +0.409 C 
BRANCH  26  29
ATOM     29  C   UNL     1      32.896 -23.612 -15.575  0.00  0.00    +0.252 C 
BRANCH  29  30
ATOM     30  O   UNL     1      31.737 -24.429 -15.559  0.00  0.00    -0.454 OA
BRANCH  30  33
ATOM     31  O   UNL     1      29.378 -22.499 -17.205  0.00  0.00    -0.347 OA
ATOM     32  N   UNL     1      30.690 -22.827 -16.884  0.00  0.00    -0.039 NA
ATOM     33  C   UNL     1      30.592 -23.870 -16.055  0.00  0.00    +0.264 C 
ATOM     34  C   UNL     1      29.257 -24.242 -15.820  0.00  0.00    +0.104 C 
ATOM     35  C   UNL     1      28.534 -23.349 -16.566  0.00  0.00    +0.217 C 
ENDBRANCH  30  33
ENDBRANCH  29  30
ENDBRANCH  26  29
ENDBRANCH   4  25
TORSDOF 9
ENDMDL
MODEL 2
REMARK VINA RESULT:     -11.3      2.561      4.469
REMARK  Name = 213049
REMARK  9 active torsions:
REMARK  status: ('A' for Active; 'I' for Inactive)
REMARK    1  A    between atoms: C_3  and  C_13
REMARK    2  A    between atoms: C_4  and  N_25
REMARK    3  A    between atoms: C_16  and  C_17
REMARK    4  A    between atoms: C_17  and  O_18
REMARK    5  A    between atoms: C_17  and  C_20
REMARK    6  A    between atoms: C_20  and  O_21
REMARK    7  A    between atoms: C_26  and  C_29
REMARK    8  A    between atoms: C_29  and  O_30
REMARK    9  A    between atoms: O_30  and  C_33
REMARK                            x       y       z     vdW  Elec       q    Type
REMARK                         _______ _______ _______ _____ _____    ______ ____
ROOT
ATOM      1  F   UNL     1      37.378 -20.452 -20.348  0.00  0.00    -0.204 F 
ATOM      2  F   UNL     1      32.643 -20.576 -20.774  0.00  0.00    -0.204 F 
ATOM      3  C   UNL     1      35.012 -20.491 -20.596  0.00  0.00    +0.051 C 
ATOM      4  C   UNL     1      34.854 -22.130 -18.344  0.00  0.00    +0.062 C 
ATOM      5  C   UNL     1      36.175 -20.869 -19.924  0.00  0.00    +0.143 C 
ATOM      6  C   UNL     1      33.770 -20.932 -20.141  0.00  0.00    +0.143 C 
ATOM      7  C   UNL     1      36.096 -21.688 -18.798  0.00  0.00    +0.045 C 
ATOM      8  C   UNL     1      33.690 -21.752 -19.015  0.00  0.00    +0.045 C 
ENDROOT
BRANCH   3  13
ATOM      9  O   UNL     1      34.034 -17.656 -26.170  0.00  0.00    -0.272 OA
ATOM     10  N   UNL     1      35.064 -17.971 -24.107  0.00  0.00    -0.273 N 
ATOM     11  C   UNL     1      34.614 -20.174 -23.110  0.00  0.00    +0.048 C 
ATOM     12  C   UNL     1      35.208 -19.414 -24.292  0.00  0.00    +0.098 C 
ATOM     13  C   UNL     1      35.097 -19.620 -21.792  0.00  0.00    -0.019 C 
ATOM     14  C   UNL     1      35.654 -17.415 -22.882  0.00  0.00    +0.120 C 
ATOM     15  C   UNL     1      35.573 -18.363 -21.719  0.00  0.00    -0.009 C 
ATOM     16  C   UNL     1      34.530 -17.195 -25.139  0.00  0.00    +0.255 C 
BRANCH  16  17
ATOM     17  C   UNL     1      34.573 -15.699 -24.944  0.00  0.00    +0.217 C 
BRANCH  17  18
ATOM     18  O   UNL     1      35.913 -15.400 -24.610  0.00  0.00    -0.374 OA
ATOM     19  H   UNL     1      36.116 -14.488 -24.870  0.00  0.00    +0.211 HD
ENDBRANCH  17  18
BRANCH  17  20
ATOM     20  C   UNL     1      34.201 -14.984 -26.223  0.00  0.00    +0.176 C 
BRANCH  20  21
ATOM     21  O   UNL     1      32.790 -14.998 -26.387  0.00  0.00    -0.379 OA
ATOM     22  H   UNL     1      32.505 -15.883 -26.662  0.00  0.00    +0.211 HD
ENDBRANCH  20  21
ENDBRANCH  17  20
ENDBRANCH  16  17
ENDBRANCH   3  13
BRANCH   4  25
ATOM     23  O   UNL     1      34.020 -24.398 -15.619  0.00  0.00    -0.432 OA
ATOM     24  O   UNL     1      32.589 -23.871 -17.298  0.00  0.00    -0.226 OA
ATOM     25  N   UNL     1      34.773 -22.965 -17.193  0.00  0.00    -0.221 N 
ATOM     26  C   UNL     1      35.422 -24.229 -15.367  0.00  0.00    +0.234 C 
ATOM     27  C   UNL     1      35.812 -23.029 -16.201  0.00  0.00    +0.149 C 
ATOM     28  C   UNL     1      33.692 -23.744 -16.787  0.00  0.00    +0.409 C 
BRANCH  26  29
ATOM     29  C   UNL     1      36.150 -25.503 -15.772  0.00  0.00    +0.252 C 
BRANCH  29  30
ATOM     30  O   UNL     1      36.713 -26.093 -14.612  0.00  0.00    -0.454 OA
BRANCH  30  33
ATOM     31  O   UNL     1      40.070 -26.925 -14.799  0.00  0.00    -0.347 OA
ATOM     32  N   UNL     1      38.723 -27.200 -15.001  0.00  0.00    -0.039 NA
ATOM     33  C   UNL     1      38.078 -26.122 -14.546  0.00  0.00    +0.264 C 
ATOM     34  C   UNL     1      38.957 -25.144 -14.050  0.00  0.00    +0.104 C 
ATOM     35  C   UNL     1      40.197 -25.697 -14.231  0.00  0.00    +0.217 C 
ENDBRANCH  30  33
ENDBRANCH  29  30
ENDBRANCH  26  29
ENDBRANCH   4  25
TORSDOF 9
ENDMDL
MODEL 3
REMARK VINA RESULT:     -11.1      1.123      2.022
REMARK  Name = 213049
REMARK  9 active torsions:
REMARK  status: ('A' for Active; 'I' for Inactive)
REMARK    1  A    between atoms: C_3  and  C_13
REMARK    2  A    between atoms: C_4  and  N_25
REMARK    3  A    between atoms: C_16  and  C_17
REMARK    4  A    between atoms: C_17  and  O_18
REMARK    5  A    between atoms: C_17  and  C_20
REMARK    6  A    between atoms: C_20  and  O_21
REMARK    7  A    between atoms: C_26  and  C_29
REMARK    8  A    between atoms: C_29  and  O_30
REMARK    9  A    between atoms: O_30  and  C_33
REMARK                            x       y       z     vdW  Elec       q    Type
REMARK                         _______ _______ _______ _____ _____    ______ ____
ROOT
ATOM      1  F   UNL     1      32.662 -20.232 -21.241  0.00  0.00    -0.204 F 
ATOM      2  F   UNL     1      37.387 -19.815 -20.905  0.00  0.00    -0.204 F 
ATOM      3  C   UNL     1      35.025 -19.995 -21.104  0.00  0.00    +0.051 C 
ATOM      4  C   UNL     1      35.034 -21.820 -18.993  0.00  0.00    +0.062 C 
ATOM      5  C   UNL     1      33.827 -20.558 -20.661  0.00  0.00    +0.143 C 
ATOM      6  C   UNL     1      36.227 -20.345 -20.490  0.00  0.00    +0.143 C 
ATOM      7  C   UNL     1      33.832 -21.470 -19.607  0.00  0.00    +0.045 C 
ATOM      8  C   UNL     1      36.233 -21.257 -19.435  0.00  0.00    +0.045 C 
ENDROOT
BRANCH   3  13
ATOM      9  O   UNL     1      33.822 -16.881 -26.481  0.00  0.00    -0.272 OA
ATOM     10  N   UNL     1      34.818 -17.213 -24.405  0.00  0.00    -0.273 N 
ATOM     11  C   UNL     1      34.666 -19.533 -23.602  0.00  0.00    +0.048 C 
ATOM     12  C   UNL     1      35.180 -18.600 -24.694  0.00  0.00    +0.098 C 
ATOM     13  C   UNL     1      35.019 -19.026 -22.224  0.00  0.00    -0.019 C 
ATOM     14  C   UNL     1      35.280 -16.681 -23.116  0.00  0.00    +0.120 C 
ATOM     15  C   UNL     1      35.301 -17.723 -22.034  0.00  0.00    -0.009 C 
ATOM     16  C   UNL     1      34.210 -16.440 -25.398  0.00  0.00    +0.255 C 
BRANCH  16  17
ATOM     17  C   UNL     1      34.025 -14.975 -25.086  0.00  0.00    +0.217 C 
BRANCH  17  18
ATOM     18  O   UNL     1      35.326 -14.467 -24.872  0.00  0.00    -0.374 OA
ATOM     19  H   UNL     1      35.412 -14.172 -23.952  0.00  0.00    +0.211 HD
ENDBRANCH  17  18
BRANCH  17  20
ATOM     20  C   UNL     1      33.390 -14.257 -26.256  0.00  0.00    +0.176 C 
BRANCH  20  21
ATOM     21  O   UNL     1      34.207 -14.406 -27.409  0.00  0.00    -0.379 OA
ATOM     22  H   UNL     1      33.972 -15.227 -27.868  0.00  0.00    +0.211 HD
ENDBRANCH  20  21
ENDBRANCH  17  20
ENDBRANCH  16  17
ENDBRANCH   3  13
BRANCH   4  25
ATOM     23  O   UNL     1      35.663 -23.955 -16.111  0.00  0.00    -0.432 OA
ATOM     24  O   UNL     1      37.142 -22.418 -16.883  0.00  0.00    -0.226 OA
ATOM     25  N   UNL     1      35.040 -22.752 -17.917  0.00  0.00    -0.221 N 
ATOM     26  C   UNL     1      34.278 -24.257 -16.333  0.00  0.00    +0.234 C 
ATOM     27  C   UNL     1      33.993 -23.719 -17.717  0.00  0.00    +0.149 C 
ATOM     28  C   UNL     1      36.050 -22.959 -16.981  0.00  0.00    +0.409 C 
BRANCH  26  29
ATOM     29  C   UNL     1      33.450 -23.586 -15.246  0.00  0.00    +0.252 C 
BRANCH  29  30
ATOM     30  O   UNL     1      32.672 -24.575 -14.592  0.00  0.00    -0.454 OA
BRANCH  30  33
ATOM     31  O   UNL     1      29.358 -25.474 -15.050  0.00  0.00    -0.347 OA
ATOM     32  N   UNL     1      30.628 -25.686 -14.526  0.00  0.00    -0.039 NA
ATOM     33  C   UNL     1      31.355 -24.650 -14.953  0.00  0.00    +0.264 C 
ATOM     34  C   UNL     1      30.605 -23.759 -15.741  0.00  0.00    +0.104 C 
ATOM     35  C   UNL     1      29.357 -24.323 -15.772  0.00  0.00    +0.217 C 
ENDBRANCH  30  33
ENDBRANCH  29  30
ENDBRANCH  26  29
ENDBRANCH   4  25
TORSDOF 9
ENDMDL
MODEL 4
REMARK VINA RESULT:     -11.0      2.197     10.504
REMARK  Name = 213049
REMARK  9 active torsions:
REMARK  status: ('A' for Active; 'I' for Inactive)
REMARK    1  A    between atoms: C_3  and  C_13
REMARK    2  A    between atoms: C_4  and  N_25
REMARK    3  A    between atoms: C_16  and  C_17
REMARK    4  A    between atoms: C_17  and  O_18
REMARK    5  A    between atoms: C_17  and  C_20
REMARK    6  A    between atoms: C_20  and  O_21
REMARK    7  A    between atoms: C_26  and  C_29
REMARK    8  A    between atoms: C_29  and  O_30
REMARK    9  A    between atoms: O_30  and  C_33
REMARK                            x       y       z     vdW  Elec       q    Type
REMARK                         _______ _______ _______ _____ _____    ______ ____
ROOT
ATOM      1  F   UNL     1      32.485 -20.891 -19.606  0.00  0.00    -0.204 F 
ATOM      2  F   UNL     1      37.154 -21.793 -19.554  0.00  0.00    -0.204 F 
ATOM      3  C   UNL     1      34.815 -21.369 -19.548  0.00  0.00    +0.051 C 
ATOM      4  C   UNL     1      35.171 -19.648 -21.716  0.00  0.00    +0.062 C 
ATOM      5  C   UNL     1      33.718 -20.709 -20.104  0.00  0.00    +0.143 C 
ATOM      6  C   UNL     1      36.090 -21.168 -20.077  0.00  0.00    +0.143 C 
ATOM      7  C   UNL     1      33.896 -19.849 -21.187  0.00  0.00    +0.045 C 
ATOM      8  C   UNL     1      36.268 -20.308 -21.161  0.00  0.00    +0.045 C 
ENDROOT
BRANCH   3  13
ATOM      9  O   UNL     1      34.913 -24.112 -13.845  0.00  0.00    -0.272 OA
ATOM     10  N   UNL     1      34.277 -23.879 -16.071  0.00  0.00    -0.273 N 
ATOM     11  C   UNL     1      35.706 -22.335 -17.345  0.00  0.00    +0.048 C 
ATOM     12  C   UNL     1      35.640 -23.625 -16.534  0.00  0.00    +0.098 C 
ATOM     13  C   UNL     1      34.625 -22.283 -18.398  0.00  0.00    -0.019 C 
ATOM     14  C   UNL     1      33.245 -23.960 -17.114  0.00  0.00    +0.120 C 
ATOM     15  C   UNL     1      33.519 -23.039 -18.270  0.00  0.00    -0.009 C 
ATOM     16  C   UNL     1      34.051 -24.178 -14.725  0.00  0.00    +0.255 C 
BRANCH  16  17
ATOM     17  C   UNL     1      32.649 -24.597 -14.357  0.00  0.00    +0.217 C 
BRANCH  17  18
ATOM     18  O   UNL     1      32.794 -25.502 -13.283  0.00  0.00    -0.374 OA
ATOM     19  H   UNL     1      32.166 -25.275 -12.580  0.00  0.00    +0.211 HD
ENDBRANCH  17  18
BRANCH  17  20
ATOM     20  C   UNL     1      31.838 -23.403 -13.904  0.00  0.00    +0.176 C 
BRANCH  20  21
ATOM     21  O   UNL     1      32.315 -22.951 -12.645  0.00  0.00    -0.379 OA
ATOM     22  H   UNL     1      32.825 -23.658 -12.220  0.00  0.00    +0.211 HD
ENDBRANCH  20  21
ENDBRANCH  17  20
ENDBRANCH  16  17
ENDBRANCH   3  13
BRANCH   4  25
ATOM     23  O   UNL     1      35.284 -17.862 -24.887  0.00  0.00    -0.432 OA
ATOM     24  O   UNL     1      34.256 -19.864 -24.609  0.00  0.00    -0.226 OA
ATOM     25  N   UNL     1      35.353 -18.769 -22.821  0.00  0.00    -0.221 N 
ATOM     26  C   UNL     1      35.823 -16.849 -24.025  0.00  0.00    +0.234 C 
ATOM     27  C   UNL     1      36.169 -17.587 -22.750  0.00  0.00    +0.149 C 
ATOM     28  C   UNL     1      34.889 -18.938 -24.123  0.00  0.00    +0.409 C 
BRANCH  26  29
ATOM     29  C   UNL     1      34.772 -15.766 -23.824  0.00  0.00    +0.252 C 
BRANCH  29  30
ATOM     30  O   UNL     1      33.807 -15.873 -24.856  0.00  0.00    -0.454 OA
BRANCH  30  33
ATOM     31  O   UNL     1      33.936 -14.016 -27.777  0.00  0.00    -0.347 OA
ATOM     32  N   UNL     1      33.976 -15.220 -27.084  0.00  0.00    -0.039 NA
ATOM     33  C   UNL     1      33.813 -14.885 -25.801  0.00  0.00    +0.264 C 
ATOM     34  C   UNL     1      33.666 -13.498 -25.625  0.00  0.00    +0.104 C 
ATOM     35  C   UNL     1      33.751 -12.997 -26.898  0.00  0.00    +0.217 C 
ENDBRANCH  30  33
ENDBRANCH  29  30
ENDBRANCH  26  29
ENDBRANCH   4  25
TORSDOF 9
ENDMDL
MODEL 5
REMARK VINA RESULT:     -10.9      2.167      9.912
REMARK  Name = 213049
REMARK  9 active torsions:
REMARK  status: ('A' for Active; 'I' for Inactive)
REMARK    1  A    between atoms: C_3  and  C_13
REMARK    2  A    between atoms: C_4  and  N_25
REMARK    3  A    between atoms: C_16  and  C_17
REMARK    4  A    between atoms: C_17  and  O_18
REMARK    5  A    between atoms: C_17  and  C_20
REMARK    6  A    between atoms: C_20  and  O_21
REMARK    7  A    between atoms: C_26  and  C_29
REMARK    8  A    between atoms: C_29  and  O_30
REMARK    9  A    between atoms: O_30  and  C_33
REMARK                            x       y       z     vdW  Elec       q    Type
REMARK                         _______ _______ _______ _____ _____    ______ ____
ROOT
ATOM      1  F   UNL     1      32.413 -20.734 -19.812  0.00  0.00    -0.204 F 
ATOM      2  F   UNL     1      37.069 -21.700 -19.773  0.00  0.00    -0.204 F 
ATOM      3  C   UNL     1      34.736 -21.244 -19.761  0.00  0.00    +0.051 C 
ATOM      4  C   UNL     1      35.114 -19.505 -21.909  0.00  0.00    +0.062 C 
ATOM      5  C   UNL     1      33.648 -20.564 -20.308  0.00  0.00    +0.143 C 
ATOM      6  C   UNL     1      36.013 -21.055 -20.289  0.00  0.00    +0.143 C 
ATOM      7  C   UNL     1      33.837 -19.694 -21.382  0.00  0.00    +0.045 C 
ATOM      8  C   UNL     1      36.203 -20.186 -21.362  0.00  0.00    +0.045 C 
ENDROOT
BRANCH   3  13
ATOM      9  O   UNL     1      34.732 -24.012 -14.069  0.00  0.00    -0.272 OA
ATOM     10  N   UNL     1      34.156 -23.783 -16.312  0.00  0.00    -0.273 N 
ATOM     11  C   UNL     1      35.584 -22.199 -17.536  0.00  0.00    +0.048 C 
ATOM     12  C   UNL     1      35.526 -23.495 -16.733  0.00  0.00    +0.098 C 
ATOM     13  C   UNL     1      34.535 -22.168 -18.620  0.00  0.00    -0.019 C 
ATOM     14  C   UNL     1      33.159 -23.884 -17.385  0.00  0.00    +0.120 C 
ATOM     15  C   UNL     1      33.444 -22.952 -18.528  0.00  0.00    -0.009 C 
ATOM     16  C   UNL     1      33.899 -24.094 -14.974  0.00  0.00    +0.255 C 
BRANCH  16  17
ATOM     17  C   UNL     1      32.496 -24.549 -14.650  0.00  0.00    +0.217 C 
BRANCH  17  18
ATOM     18  O   UNL     1      32.649 -25.698 -13.842  0.00  0.00    -0.374 OA
ATOM     19  H   UNL     1      32.089 -25.616 -13.054  0.00  0.00    +0.211 HD
ENDBRANCH  17  18
BRANCH  17  20
ATOM     20  C   UNL     1      31.756 -23.482 -13.874  0.00  0.00    +0.176 C 
BRANCH  20  21
ATOM     21  O   UNL     1      32.512 -23.111 -12.730  0.00  0.00    -0.379 OA
ATOM     22  H   UNL     1      33.372 -22.760 -13.010  0.00  0.00    +0.211 HD
ENDBRANCH  20  21
ENDBRANCH  17  20
ENDBRANCH  16  17
ENDBRANCH   3  13
BRANCH   4  25
ATOM     23  O   UNL     1      35.324 -17.723 -25.078  0.00  0.00    -0.432 OA
ATOM     24  O   UNL     1      34.449 -19.805 -24.863  0.00  0.00    -0.226 OA
ATOM     25  N   UNL     1      35.307 -18.616 -23.005  0.00  0.00    -0.221 N 
ATOM     26  C   UNL     1      35.707 -16.666 -24.186  0.00  0.00    +0.234 C 
ATOM     27  C   UNL     1      36.014 -17.370 -22.882  0.00  0.00    +0.149 C 
ATOM     28  C   UNL     1      34.963 -18.827 -24.338  0.00  0.00    +0.409 C 
BRANCH  26  29
ATOM     29  C   UNL     1      34.557 -15.675 -24.077  0.00  0.00    +0.252 C 
BRANCH  29  30
ATOM     30  O   UNL     1      34.920 -14.658 -23.158  0.00  0.00    -0.454 OA
BRANCH  30  33
ATOM     31  O   UNL     1      32.127 -13.139 -21.782  0.00  0.00    -0.347 OA
ATOM     32  N   UNL     1      32.965 -13.432 -22.851  0.00  0.00    -0.039 NA
ATOM     33  C   UNL     1      33.928 -14.200 -22.335  0.00  0.00    +0.264 C 
ATOM     34  C   UNL     1      33.752 -14.425 -20.959  0.00  0.00    +0.104 C 
ATOM     35  C   UNL     1      32.607 -13.736 -20.660  0.00  0.00    +0.217 C 
ENDBRANCH  30  33
ENDBRANCH  29  30
ENDBRANCH  26  29
ENDBRANCH   4  25
TORSDOF 9
ENDMDL
MODEL 6
REMARK VINA RESULT:     -10.9      2.284      4.217
REMARK  Name = 213049
REMARK  9 active torsions:
REMARK  status: ('A' for Active; 'I' for Inactive)
REMARK    1  A    between atoms: C_3  and  C_13
REMARK    2  A    between atoms: C_4  and  N_25
REMARK    3  A    between atoms: C_16  and  C_17
REMARK    4  A    between atoms: C_17  and  O_18
REMARK    5  A    between atoms: C_17  and  C_20
REMARK    6  A    between atoms: C_20  and  O_21
REMARK    7  A    between atoms: C_26  and  C_29
REMARK    8  A    between atoms: C_29  and  O_30
REMARK    9  A    between atoms: O_30  and  C_33
REMARK                            x       y       z     vdW  Elec       q    Type
REMARK                         _______ _______ _______ _____ _____    ______ ____
ROOT
ATOM      1  F   UNL     1      32.697 -20.263 -21.194  0.00  0.00    -0.204 F 
ATOM      2  F   UNL     1      37.442 -20.031 -20.964  0.00  0.00    -0.204 F 
ATOM      3  C   UNL     1      35.070 -20.121 -21.112  0.00  0.00    +0.051 C 
ATOM      4  C   UNL     1      35.043 -21.791 -18.878  0.00  0.00    +0.062 C 
ATOM      5  C   UNL     1      33.859 -20.598 -20.611  0.00  0.00    +0.143 C 
ATOM      6  C   UNL     1      36.269 -20.479 -20.495  0.00  0.00    +0.143 C 
ATOM      7  C   UNL     1      33.845 -21.433 -19.495  0.00  0.00    +0.045 C 
ATOM      8  C   UNL     1      36.255 -21.314 -19.378  0.00  0.00    +0.045 C 
ENDROOT
BRANCH   3  13
ATOM      9  O   UNL     1      33.637 -17.029 -26.446  0.00  0.00    -0.272 OA
ATOM     10  N   UNL     1      34.914 -17.526 -24.565  0.00  0.00    -0.273 N 
ATOM     11  C   UNL     1      34.346 -19.686 -23.534  0.00  0.00    +0.048 C 
ATOM     12  C   UNL     1      34.848 -18.970 -24.784  0.00  0.00    +0.098 C 
ATOM     13  C   UNL     1      35.085 -19.233 -22.298  0.00  0.00    -0.019 C 
ATOM     14  C   UNL     1      35.744 -17.082 -23.438  0.00  0.00    +0.120 C 
ATOM     15  C   UNL     1      35.719 -18.045 -22.286  0.00  0.00    -0.009 C 
ATOM     16  C   UNL     1      34.334 -16.662 -25.498  0.00  0.00    +0.255 C 
BRANCH  16  17
ATOM     17  C   UNL     1      34.592 -15.189 -25.296  0.00  0.00    +0.217 C 
BRANCH  17  18
ATOM     18  O   UNL     1      34.038 -14.549 -26.427  0.00  0.00    -0.374 OA
ATOM     19  H   UNL     1      34.183 -13.593 -26.363  0.00  0.00    +0.211 HD
ENDBRANCH  17  18
BRANCH  17  20
ATOM     20  C   UNL     1      33.899 -14.693 -24.046  0.00  0.00    +0.176 C 
BRANCH  20  21
ATOM     21  O   UNL     1      34.711 -13.723 -23.401  0.00  0.00    -0.379 OA
ATOM     22  H   UNL     1      35.305 -14.164 -22.773  0.00  0.00    +0.211 HD
ENDBRANCH  20  21
ENDBRANCH  17  20
ENDBRANCH  16  17
ENDBRANCH   3  13
BRANCH   4  25
ATOM     23  O   UNL     1      34.651 -24.392 -16.359  0.00  0.00    -0.432 OA
ATOM     24  O   UNL     1      33.801 -24.536 -18.457  0.00  0.00    -0.226 OA
ATOM     25  N   UNL     1      35.029 -22.645 -17.738  0.00  0.00    -0.221 N 
ATOM     26  C   UNL     1      35.592 -23.546 -15.682  0.00  0.00    +0.234 C 
ATOM     27  C   UNL     1      35.557 -22.249 -16.461  0.00  0.00    +0.149 C 
ATOM     28  C   UNL     1      34.441 -23.903 -17.630  0.00  0.00    +0.409 C 
BRANCH  26  29
ATOM     29  C   UNL     1      36.957 -24.219 -15.697  0.00  0.00    +0.252 C 
BRANCH  29  30
ATOM     30  O   UNL     1      37.857 -23.435 -14.932  0.00  0.00    -0.454 OA
BRANCH  30  33
ATOM     31  O   UNL     1      37.867 -23.135 -11.481  0.00  0.00    -0.347 OA
ATOM     32  N   UNL     1      37.878 -22.595 -12.762  0.00  0.00    -0.039 NA
ATOM     33  C   UNL     1      37.855 -23.649 -13.581  0.00  0.00    +0.264 C 
ATOM     34  C   UNL     1      37.828 -24.869 -12.883  0.00  0.00    +0.104 C 
ATOM     35  C   UNL     1      37.838 -24.490 -11.566  0.00  0.00    +0.217 C 
ENDBRANCH  30  33
ENDBRANCH  29  30
ENDBRANCH  26  29
ENDBRANCH   4  25
TORSDOF 9
ENDMDL
MODEL 7
REMARK VINA RESULT:     -10.8      2.392      3.774
REMARK  Name = 213049
REMARK  9 active torsions:
REMARK  status: ('A' for Active; 'I' for Inactive)
REMARK    1  A    between atoms: C_3  and  C_13
REMARK    2  A    between atoms: C_4  and  N_25
REMARK    3  A    between atoms: C_16  and  C_17
REMARK    4  A    between atoms: C_17  and  O_18
REMARK    5  A    between atoms: C_17  and  C_20
REMARK    6  A    between atoms: C_20  and  O_21
REMARK    7  A    between atoms: C_26  and  C_29
REMARK    8  A    between atoms: C_29  and  O_30
REMARK    9  A    between atoms: O_30  and  C_33
REMARK                            x       y       z     vdW  Elec       q    Type
REMARK                         _______ _______ _______ _____ _____    ______ ____
ROOT
ATOM      1  F   UNL     1      32.867 -20.758 -20.805  0.00  0.00    -0.204 F 
ATOM      2  F   UNL     1      37.584 -20.248 -20.475  0.00  0.00    -0.204 F 
ATOM      3  C   UNL     1      35.226 -20.476 -20.672  0.00  0.00    +0.051 C 
ATOM      4  C   UNL     1      35.256 -22.191 -18.471  0.00  0.00    +0.062 C 
ATOM      5  C   UNL     1      34.036 -21.035 -20.205  0.00  0.00    +0.143 C 
ATOM      6  C   UNL     1      36.431 -20.775 -20.037  0.00  0.00    +0.143 C 
ATOM      7  C   UNL     1      34.050 -21.892 -19.105  0.00  0.00    +0.045 C 
ATOM      8  C   UNL     1      36.447 -21.632 -18.937  0.00  0.00    +0.045 C 
ENDROOT
BRANCH   3  13
ATOM      9  O   UNL     1      33.845 -17.527 -26.099  0.00  0.00    -0.272 OA
ATOM     10  N   UNL     1      34.982 -17.849 -24.095  0.00  0.00    -0.273 N 
ATOM     11  C   UNL     1      34.697 -20.103 -23.154  0.00  0.00    +0.048 C 
ATOM     12  C   UNL     1      35.195 -19.275 -24.335  0.00  0.00    +0.098 C 
ATOM     13  C   UNL     1      35.209 -19.565 -21.840  0.00  0.00    -0.019 C 
ATOM     14  C   UNL     1      35.597 -17.299 -22.879  0.00  0.00    +0.120 C 
ATOM     15  C   UNL     1      35.619 -18.286 -21.746  0.00  0.00    -0.009 C 
ATOM     16  C   UNL     1      34.362 -17.071 -25.076  0.00  0.00    +0.255 C 
BRANCH  16  17
ATOM     17  C   UNL     1      34.333 -15.582 -24.832  0.00  0.00    +0.217 C 
BRANCH  17  18
ATOM     18  O   UNL     1      35.672 -15.152 -24.963  0.00  0.00    -0.374 OA
ATOM     19  H   UNL     1      35.989 -14.813 -24.111  0.00  0.00    +0.211 HD
ENDBRANCH  17  18
BRANCH  17  20
ATOM     20  C   UNL     1      33.477 -14.889 -25.869  0.00  0.00    +0.176 C 
BRANCH  20  21
ATOM     21  O   UNL     1      34.025 -15.103 -27.162  0.00  0.00    -0.379 OA
ATOM     22  H   UNL     1      33.543 -14.566 -27.810  0.00  0.00    +0.211 HD
ENDBRANCH  20  21
ENDBRANCH  17  20
ENDBRANCH  16  17
ENDBRANCH   3  13
BRANCH   4  25
ATOM     23  O   UNL     1      35.959 -24.299 -15.587  0.00  0.00    -0.432 OA
ATOM     24  O   UNL     1      37.543 -23.101 -16.683  0.00  0.00    -0.226 OA
ATOM     25  N   UNL     1      35.272 -23.067 -17.349  0.00  0.00    -0.221 N 
ATOM     26  C   UNL     1      34.525 -24.341 -15.566  0.00  0.00    +0.234 C 
ATOM     27  C   UNL     1      34.116 -23.809 -16.922  0.00  0.00    +0.149 C 
ATOM     28  C   UNL     1      36.370 -23.428 -16.571  0.00  0.00    +0.409 C 
BRANCH  26  29
ATOM     29  C   UNL     1      34.026 -23.485 -14.411  0.00  0.00    +0.252 C 
BRANCH  29  30
ATOM     30  O   UNL     1      33.979 -24.285 -13.241  0.00  0.00    -0.454 OA
BRANCH  30  33
ATOM     31  O   UNL     1      36.362 -24.788 -10.777  0.00  0.00    -0.347 OA
ATOM     32  N   UNL     1      35.149 -25.077 -11.392  0.00  0.00    -0.039 NA
ATOM     33  C   UNL     1      35.079 -24.239 -12.429  0.00  0.00    +0.264 C 
ATOM     34  C   UNL     1      36.207 -23.405 -12.520  0.00  0.00    +0.104 C 
ATOM     35  C   UNL     1      36.983 -23.790 -11.458  0.00  0.00    +0.217 C 
ENDBRANCH  30  33
ENDBRANCH  29  30
ENDBRANCH  26  29
ENDBRANCH   4  25
TORSDOF 9
ENDMDL
MODEL 8
REMARK VINA RESULT:     -10.7      3.479     10.843
REMARK  Name = 213049
REMARK  9 active torsions:
REMARK  status: ('A' for Active; 'I' for Inactive)
REMARK    1  A    between atoms: C_3  and  C_13
REMARK    2  A    between atoms: C_4  and  N_25
REMARK    3  A    between atoms: C_16  and  C_17
REMARK    4  A    between atoms: C_17  and  O_18
REMARK    5  A    between atoms: C_17  and  C_20
REMARK    6  A    between atoms: C_20  and  O_21
REMARK    7  A    between atoms: C_26  and  C_29
REMARK    8  A    between atoms: C_29  and  O_30
REMARK    9  A    between atoms: O_30  and  C_33
REMARK                            x       y       z     vdW  Elec       q    Type
REMARK                         _______ _______ _______ _____ _____    ______ ____
ROOT
ATOM      1  F   UNL     1      33.134 -23.512 -17.463  0.00  0.00    -0.204 F 
ATOM      2  F   UNL     1      37.611 -21.980 -16.986  0.00  0.00    -0.204 F 
ATOM      3  C   UNL     1      35.377 -22.768 -17.189  0.00  0.00    +0.051 C 
ATOM      4  C   UNL     1      35.153 -21.369 -19.593  0.00  0.00    +0.062 C 
ATOM      5  C   UNL     1      34.184 -22.807 -17.912  0.00  0.00    +0.143 C 
ATOM      6  C   UNL     1      36.458 -22.029 -17.669  0.00  0.00    +0.143 C 
ATOM      7  C   UNL     1      34.072 -22.108 -19.113  0.00  0.00    +0.045 C 
ATOM      8  C   UNL     1      36.347 -21.330 -18.871  0.00  0.00    +0.045 C 
ENDROOT
BRANCH   3  13
ATOM      9  O   UNL     1      37.515 -25.818 -12.072  0.00  0.00    -0.272 OA
ATOM     10  N   UNL     1      35.899 -24.850 -13.439  0.00  0.00    -0.273 N 
ATOM     11  C   UNL     1      36.674 -24.437 -15.736  0.00  0.00    +0.048 C 
ATOM     12  C   UNL     1      36.413 -25.480 -14.654  0.00  0.00    +0.098 C 
ATOM     13  C   UNL     1      35.495 -23.511 -15.913  0.00  0.00    -0.019 C 
ATOM     14  C   UNL     1      34.673 -24.056 -13.592  0.00  0.00    +0.120 C 
ATOM     15  C   UNL     1      34.596 -23.363 -14.922  0.00  0.00    -0.009 C 
ATOM     16  C   UNL     1      36.487 -25.151 -12.207  0.00  0.00    +0.255 C 
BRANCH  16  17
ATOM     17  C   UNL     1      35.795 -24.602 -10.983  0.00  0.00    +0.217 C 
BRANCH  17  18
ATOM     18  O   UNL     1      35.484 -25.727 -10.188  0.00  0.00    -0.374 OA
ATOM     19  H   UNL     1      34.864 -25.468  -9.488  0.00  0.00    +0.211 HD
ENDBRANCH  17  18
BRANCH  17  20
ATOM     20  C   UNL     1      36.721 -23.683 -10.216  0.00  0.00    +0.176 C 
BRANCH  20  21
ATOM     21  O   UNL     1      37.550 -22.972 -11.125  0.00  0.00    -0.379 OA
ATOM     22  H   UNL     1      38.427 -22.847 -10.731  0.00  0.00    +0.211 HD
ENDBRANCH  20  21
ENDBRANCH  17  20
ENDBRANCH  16  17
ENDBRANCH   3  13
BRANCH   4  25
ATOM     23  O   UNL     1      34.197 -19.647 -22.656  0.00  0.00    -0.432 OA
ATOM     24  O   UNL     1      32.712 -20.627 -21.249  0.00  0.00    -0.226 OA
ATOM     25  N   UNL     1      35.039 -20.654 -20.819  0.00  0.00    -0.221 N 
ATOM     26  C   UNL     1      35.584 -19.285 -22.604  0.00  0.00    +0.234 C 
ATOM     27  C   UNL     1      36.180 -20.232 -21.585  0.00  0.00    +0.149 C 
ATOM     28  C   UNL     1      33.872 -20.345 -21.514  0.00  0.00    +0.409 C 
BRANCH  26  29
ATOM     29  C   UNL     1      35.696 -17.822 -22.200  0.00  0.00    +0.252 C 
BRANCH  29  30
ATOM     30  O   UNL     1      36.225 -17.089 -23.292  0.00  0.00    -0.454 OA
BRANCH  30  33
ATOM     31  O   UNL     1      33.891 -14.964 -24.721  0.00  0.00    -0.347 OA
ATOM     32  N   UNL     1      34.744 -15.337 -23.689  0.00  0.00    -0.039 NA
ATOM     33  C   UNL     1      35.317 -16.469 -24.106  0.00  0.00    +0.264 C 
ATOM     34  C   UNL     1      34.870 -16.856 -25.381  0.00  0.00    +0.104 C 
ATOM     35  C   UNL     1      33.974 -15.877 -25.723  0.00  0.00    +0.217 C 
ENDBRANCH  30  33
ENDBRANCH  29  30
ENDBRANCH  26  29
ENDBRANCH   4  25
TORSDOF 9
ENDMDL
MODEL 9
REMARK VINA RESULT:     -10.2      2.836      9.937
REMARK  Name = 213049
REMARK  9 active torsions:
REMARK  status: ('A' for Active; 'I' for Inactive)
REMARK    1  A    between atoms: C_3  and  C_13
REMARK    2  A    between atoms: C_4  and  N_25
REMARK    3  A    between atoms: C_16  and  C_17
REMARK    4  A    between atoms: C_17  and  O_18
REMARK    5  A    between atoms: C_17  and  C_20
REMARK    6  A    between atoms: C_20  and  O_21
REMARK    7  A    between atoms: C_26  and  C_29
REMARK    8  A    between atoms: C_29  and  O_30
REMARK    9  A    between atoms: O_30  and  C_33
REMARK                            x       y       z     vdW  Elec       q    Type
REMARK                         _______ _______ _______ _____ _____    ______ ____
ROOT
ATOM      1  F   UNL     1      37.982 -19.865 -19.653  0.00  0.00    -0.204 F 
ATOM      2  F   UNL     1      33.580 -21.577 -20.214  0.00  0.00    -0.204 F 
ATOM      3  C   UNL     1      35.784 -20.744 -19.899  0.00  0.00    +0.051 C 
ATOM      4  C   UNL     1      35.473 -19.188 -22.194  0.00  0.00    +0.062 C 
ATOM      5  C   UNL     1      36.824 -19.920 -20.331  0.00  0.00    +0.143 C 
ATOM      6  C   UNL     1      34.588 -20.789 -20.615  0.00  0.00    +0.143 C 
ATOM      7  C   UNL     1      36.669 -19.143 -21.478  0.00  0.00    +0.045 C 
ATOM      8  C   UNL     1      34.432 -20.012 -21.762  0.00  0.00    +0.045 C 
ENDROOT
BRANCH   3  13
ATOM      9  O   UNL     1      35.570 -25.354 -15.568  0.00  0.00    -0.272 OA
ATOM     10  N   UNL     1      36.251 -23.314 -16.456  0.00  0.00    -0.273 N 
ATOM     11  C   UNL     1      34.849 -22.537 -18.321  0.00  0.00    +0.048 C 
ATOM     12  C   UNL     1      34.897 -22.924 -16.846  0.00  0.00    +0.098 C 
ATOM     13  C   UNL     1      35.950 -21.569 -18.680  0.00  0.00    -0.019 C 
ATOM     14  C   UNL     1      37.302 -22.314 -16.685  0.00  0.00    +0.120 C 
ATOM     15  C   UNL     1      37.053 -21.484 -17.912  0.00  0.00    -0.009 C 
ATOM     16  C   UNL     1      36.449 -24.512 -15.764  0.00  0.00    +0.255 C 
BRANCH  16  17
ATOM     17  C   UNL     1      37.844 -24.762 -15.244  0.00  0.00    +0.217 C 
BRANCH  17  18
ATOM     18  O   UNL     1      37.928 -24.046 -14.028  0.00  0.00    -0.374 OA
ATOM     19  H   UNL     1      38.664 -23.417 -14.073  0.00  0.00    +0.211 HD
ENDBRANCH  17  18
BRANCH  17  20
ATOM     20  C   UNL     1      38.056 -26.235 -14.977  0.00  0.00    +0.176 C 
BRANCH  20  21
ATOM     21  O   UNL     1      37.674 -26.989 -16.119  0.00  0.00    -0.379 OA
ATOM     22  H   UNL     1      37.332 -27.851 -15.838  0.00  0.00    +0.211 HD
ENDBRANCH  20  21
ENDBRANCH  17  20
ENDBRANCH  16  17
ENDBRANCH   3  13
BRANCH   4  25
ATOM     23  O   UNL     1      34.675 -17.668 -25.405  0.00  0.00    -0.432 OA
ATOM     24  O   UNL     1      33.889 -19.690 -24.742  0.00  0.00    -0.226 OA
ATOM     25  N   UNL     1      35.314 -18.395 -23.366  0.00  0.00    -0.221 N 
ATOM     26  C   UNL     1      35.337 -16.561 -24.777  0.00  0.00    +0.234 C 
ATOM     27  C   UNL     1      36.038 -17.172 -23.584  0.00  0.00    +0.149 C 
ATOM     28  C   UNL     1      34.557 -18.696 -24.496  0.00  0.00    +0.409 C 
BRANCH  26  29
ATOM     29  C   UNL     1      34.295 -15.520 -24.392  0.00  0.00    +0.252 C 
BRANCH  29  30
ATOM     30  O   UNL     1      34.589 -15.045 -23.089  0.00  0.00    -0.454 OA
BRANCH  30  33
ATOM     31  O   UNL     1      32.197 -12.616 -22.471  0.00  0.00    -0.347 OA
ATOM     32  N   UNL     1      33.043 -13.320 -23.320  0.00  0.00    -0.039 NA
ATOM     33  C   UNL     1      33.675 -14.194 -22.532  0.00  0.00    +0.264 C 
ATOM     34  C   UNL     1      33.272 -14.090 -21.189  0.00  0.00    +0.104 C 
ATOM     35  C   UNL     1      32.343 -13.084 -21.204  0.00  0.00    +0.217 C 
ENDBRANCH  30  33
ENDBRANCH  29  30
ENDBRANCH  26  29
ENDBRANCH   4  25
TORSDOF 9
ENDMDL
