MODEL 1
REMARK VINA RESULT:     -12.0      0.000      0.000
REMARK  Name = 49831257
REMARK  4 active torsions:
REMARK  status: ('A' for Active; 'I' for Inactive)
REMARK    1  A    between atoms: C_1  and  C_23
REMARK    2  A    between atoms: C_4  and  C_14
REMARK    3  A    between atoms: C_12  and  C_20
REMARK    4  A    between atoms: C_23  and  N_27
REMARK                            x       y       z     vdW  Elec       q    Type
REMARK                         _______ _______ _______ _____ _____    ______ ____
ROOT
ATOM      1  C   UNL     1      36.244 -18.861 -21.922  0.00  0.00    -0.043 C 
ATOM      2  C   UNL     1      35.866 -17.639 -21.368  0.00  0.00    -0.006 C 
ATOM      3  C   UNL     1      36.069 -19.093 -23.286  0.00  0.00    -0.006 C 
ATOM      4  C   UNL     1      35.136 -16.879 -23.542  0.00  0.00    +0.016 C 
ATOM      5  C   UNL     1      35.311 -16.648 -22.177  0.00  0.00    +0.001 C 
ATOM      6  C   UNL     1      35.514 -18.102 -24.096  0.00  0.00    +0.001 C 
ENDROOT
BRANCH   4  14
ATOM      7  O   UNL     1      31.760 -10.499 -22.475  0.00  0.00    -0.274 OA
ATOM      8  N   UNL     1      32.823 -12.388 -21.544  0.00  0.00    -0.217 N 
ATOM      9  N   UNL     1      33.947 -14.680 -23.853  0.00  0.00    -0.152 N 
ATOM     10  N   UNL     1      33.817 -14.315 -22.549  0.00  0.00    -0.092 NA
ATOM     11  N   UNL     1      32.887 -12.721 -23.893  0.00  0.00    -0.319 NA
ATOM     12  C   UNL     1      32.158 -11.149 -21.518  0.00  0.00    +0.234 C 
ATOM     13  C   UNL     1      33.179 -13.149 -22.637  0.00  0.00    +0.167 C 
ATOM     14  C   UNL     1      34.548 -15.833 -24.397  0.00  0.00    +0.077 C 
ATOM     15  C   UNL     1      33.371 -13.680 -24.650  0.00  0.00    +0.219 C 
ATOM     16  C   UNL     1      34.567 -15.975 -25.740  0.00  0.00    +0.017 C 
ATOM     17  C   UNL     1      33.404 -13.851 -26.060  0.00  0.00    +0.051 C 
ATOM     18  C   UNL     1      33.978 -14.949 -26.583  0.00  0.00    +0.005 C 
ATOM     19  H   UNL     1      33.068 -12.761 -20.666  0.00  0.00    +0.167 HD
BRANCH  12  20
ATOM     20  C   UNL     1      31.929 -10.601 -20.144  0.00  0.00    +0.077 C 
ATOM     21  C   UNL     1      31.861 -11.548 -18.983  0.00  0.00    +0.010 C 
ATOM     22  C   UNL     1      30.616 -10.859 -19.463  0.00  0.00    +0.010 C 
ENDBRANCH  12  20
ENDBRANCH   4  14
BRANCH   1  23
ATOM     23  C   UNL     1      36.845 -19.930 -21.048  0.00  0.00    -0.050 C 
BRANCH  23  27
ATOM     24  S   UNL     1      33.947 -22.687 -18.953  0.00  0.00    -0.014 S 
ATOM     25  O   UNL     1      33.022 -22.774 -17.840  0.00  0.00    -0.173 OA
ATOM     26  O   UNL     1      34.154 -23.812 -19.843  0.00  0.00    -0.173 OA
ATOM     27  N   UNL     1      35.858 -20.498 -20.125  0.00  0.00    +0.392 N 
ATOM     28  C   UNL     1      36.435 -21.659 -19.427  0.00  0.00    -0.051 C 
ATOM     29  C   UNL     1      34.633 -20.855 -20.862  0.00  0.00    -0.051 C 
ATOM     30  C   UNL     1      33.501 -21.272 -19.931  0.00  0.00    +0.128 C 
ATOM     31  C   UNL     1      35.526 -22.175 -18.318  0.00  0.00    +0.128 C 
ATOM     32  H   UNL     1      35.605 -19.806 -19.420  0.00  0.00    -0.079 HD
ENDBRANCH  23  27
ENDBRANCH   1  23
TORSDOF 4
ENDMDL
MODEL 2
REMARK VINA RESULT:     -11.8      4.525     11.000
REMARK  Name = 49831257
REMARK  4 active torsions:
REMARK  status: ('A' for Active; 'I' for Inactive)
REMARK    1  A    between atoms: C_1  and  C_23
REMARK    2  A    between atoms: C_4  and  C_14
REMARK    3  A    between atoms: C_12  and  C_20
REMARK    4  A    between atoms: C_23  and  N_27
REMARK                            x       y       z     vdW  Elec       q    Type
REMARK                         _______ _______ _______ _____ _____    ______ ____
ROOT
ATOM      1  C   UNL     1      35.792 -20.047 -21.310  0.00  0.00    -0.043 C 
ATOM      2  C   UNL     1      34.403 -20.093 -21.199  0.00  0.00    -0.006 C 
ATOM      3  C   UNL     1      36.588 -20.754 -20.408  0.00  0.00    -0.006 C 
ATOM      4  C   UNL     1      34.604 -21.551 -19.283  0.00  0.00    +0.016 C 
ATOM      5  C   UNL     1      33.809 -20.844 -20.185  0.00  0.00    +0.001 C 
ATOM      6  C   UNL     1      35.995 -21.506 -19.394  0.00  0.00    +0.001 C 
ENDROOT
BRANCH   4  14
ATOM      7  O   UNL     1      36.945 -25.562 -13.656  0.00  0.00    -0.274 OA
ATOM      8  N   UNL     1      37.473 -24.189 -15.499  0.00  0.00    -0.217 N 
ATOM      9  N   UNL     1      34.745 -23.026 -17.245  0.00  0.00    -0.152 N 
ATOM     10  N   UNL     1      36.097 -23.070 -17.101  0.00  0.00    -0.092 NA
ATOM     11  N   UNL     1      35.104 -24.317 -15.466  0.00  0.00    -0.319 NA
ATOM     12  C   UNL     1      37.751 -24.996 -14.381  0.00  0.00    +0.234 C 
ATOM     13  C   UNL     1      36.248 -23.852 -16.033  0.00  0.00    +0.167 C 
ATOM     14  C   UNL     1      33.977 -22.344 -18.212  0.00  0.00    +0.077 C 
ATOM     15  C   UNL     1      34.167 -23.795 -16.226  0.00  0.00    +0.219 C 
ATOM     16  C   UNL     1      32.632 -22.440 -18.147  0.00  0.00    +0.017 C 
ATOM     17  C   UNL     1      32.749 -23.881 -16.178  0.00  0.00    +0.051 C 
ATOM     18  C   UNL     1      32.013 -23.232 -17.097  0.00  0.00    +0.005 C 
ATOM     19  H   UNL     1      38.258 -23.815 -15.962  0.00  0.00    +0.167 HD
BRANCH  12  20
ATOM     20  C   UNL     1      39.209 -25.153 -14.080  0.00  0.00    +0.077 C 
ATOM     21  C   UNL     1      40.201 -25.042 -15.201  0.00  0.00    +0.010 C 
ATOM     22  C   UNL     1      39.928 -26.377 -14.569  0.00  0.00    +0.010 C 
ENDBRANCH  12  20
ENDBRANCH   4  14
BRANCH   1  23
ATOM     23  C   UNL     1      36.434 -19.237 -22.405  0.00  0.00    -0.050 C 
BRANCH  23  27
ATOM     24  S   UNL     1      34.388 -16.591 -25.439  0.00  0.00    -0.014 S 
ATOM     25  O   UNL     1      33.119 -15.983 -25.784  0.00  0.00    -0.173 OA
ATOM     26  O   UNL     1      35.564 -16.387 -26.262  0.00  0.00    -0.173 OA
ATOM     27  N   UNL     1      35.447 -18.446 -23.147  0.00  0.00    +0.392 N 
ATOM     28  C   UNL     1      35.278 -19.000 -24.502  0.00  0.00    -0.051 C 
ATOM     29  C   UNL     1      35.862 -17.033 -23.180  0.00  0.00    -0.051 C 
ATOM     30  C   UNL     1      34.785 -16.130 -23.770  0.00  0.00    +0.128 C 
ATOM     31  C   UNL     1      34.130 -18.340 -25.255  0.00  0.00    +0.128 C 
ATOM     32  H   UNL     1      34.543 -18.493 -22.678  0.00  0.00    -0.079 HD
ENDBRANCH  23  27
ENDBRANCH   1  23
TORSDOF 4
ENDMDL
MODEL 3
REMARK VINA RESULT:     -11.1      1.541      2.099
REMARK  Name = 49831257
REMARK  4 active torsions:
REMARK  status: ('A' for Active; 'I' for Inactive)
REMARK    1  A    between atoms: C_1  and  C_23
REMARK    2  A    between atoms: C_4  and  C_14
REMARK    3  A    between atoms: C_12  and  C_20
REMARK    4  A    between atoms: C_23  and  N_27
REMARK                            x       y       z     vdW  Elec       q    Type
REMARK                         _______ _______ _______ _____ _____    ______ ____
ROOT
ATOM      1  C   UNL     1      36.440 -20.350 -20.652  0.00  0.00    -0.043 C 
ATOM      2  C   UNL     1      37.363 -19.374 -21.025  0.00  0.00    -0.006 C 
ATOM      3  C   UNL     1      35.132 -20.294 -21.136  0.00  0.00    -0.006 C 
ATOM      4  C   UNL     1      35.672 -18.285 -22.363  0.00  0.00    +0.016 C 
ATOM      5  C   UNL     1      36.980 -18.341 -21.880  0.00  0.00    +0.001 C 
ATOM      6  C   UNL     1      34.748 -19.262 -21.991  0.00  0.00    +0.001 C 
ENDROOT
BRANCH   4  14
ATOM      7  O   UNL     1      32.284 -11.863 -21.651  0.00  0.00    -0.274 OA
ATOM      8  N   UNL     1      33.128 -13.812 -20.625  0.00  0.00    -0.217 N 
ATOM      9  N   UNL     1      34.600 -16.046 -22.790  0.00  0.00    -0.152 N 
ATOM     10  N   UNL     1      34.248 -15.726 -21.515  0.00  0.00    -0.092 NA
ATOM     11  N   UNL     1      33.602 -14.059 -22.937  0.00  0.00    -0.319 NA
ATOM     12  C   UNL     1      32.492 -12.558 -20.666  0.00  0.00    +0.234 C 
ATOM     13  C   UNL     1      33.658 -14.541 -21.668  0.00  0.00    +0.167 C 
ATOM     14  C   UNL     1      35.267 -17.194 -23.265  0.00  0.00    +0.077 C 
ATOM     15  C   UNL     1      34.195 -15.003 -23.634  0.00  0.00    +0.219 C 
ATOM     16  C   UNL     1      35.521 -17.286 -24.589  0.00  0.00    +0.017 C 
ATOM     17  C   UNL     1      34.475 -15.123 -25.023  0.00  0.00    +0.051 C 
ATOM     18  C   UNL     1      35.111 -16.215 -25.480  0.00  0.00    +0.005 C 
ATOM     19  H   UNL     1      33.206 -14.223 -19.733  0.00  0.00    +0.167 HD
BRANCH  12  20
ATOM     20  C   UNL     1      32.034 -12.054 -19.333  0.00  0.00    +0.077 C 
ATOM     21  C   UNL     1      30.996 -10.972 -19.280  0.00  0.00    +0.010 C 
ATOM     22  C   UNL     1      32.417 -10.668 -18.904  0.00  0.00    +0.010 C 
ENDBRANCH  12  20
ENDBRANCH   4  14
BRANCH   1  23
ATOM     23  C   UNL     1      36.854 -21.467 -19.730  0.00  0.00    -0.050 C 
BRANCH  23  27
ATOM     24  S   UNL     1      34.295 -23.319 -16.503  0.00  0.00    -0.014 S 
ATOM     25  O   UNL     1      33.238 -23.038 -15.553  0.00  0.00    -0.173 OA
ATOM     26  O   UNL     1      34.879 -24.642 -16.603  0.00  0.00    -0.173 OA
ATOM     27  N   UNL     1      35.869 -21.688 -18.667  0.00  0.00    +0.392 N 
ATOM     28  C   UNL     1      36.554 -22.087 -17.425  0.00  0.00    -0.051 C 
ATOM     29  C   UNL     1      34.887 -22.697 -19.099  0.00  0.00    -0.051 C 
ATOM     30  C   UNL     1      33.730 -22.833 -18.116  0.00  0.00    +0.128 C 
ATOM     31  C   UNL     1      35.603 -22.146 -16.236  0.00  0.00    +0.128 C 
ATOM     32  H   UNL     1      35.363 -20.823 -18.478  0.00  0.00    -0.079 HD
ENDBRANCH  23  27
ENDBRANCH   1  23
TORSDOF 4
ENDMDL
MODEL 4
REMARK VINA RESULT:     -10.3      4.716     11.076
REMARK  Name = 49831257
REMARK  4 active torsions:
REMARK  status: ('A' for Active; 'I' for Inactive)
REMARK    1  A    between atoms: C_1  and  C_23
REMARK    2  A    between atoms: C_4  and  C_14
REMARK    3  A    between atoms: C_12  and  C_20
REMARK    4  A    between atoms: C_23  and  N_27
REMARK                            x       y       z     vdW  Elec       q    Type
REMARK                         _______ _______ _______ _____ _____    ______ ____
ROOT
ATOM      1  C   UNL     1      35.251 -20.967 -20.454  0.00  0.00    -0.043 C 
ATOM      2  C   UNL     1      35.883 -21.695 -19.447  0.00  0.00    -0.006 C 
ATOM      3  C   UNL     1      33.863 -20.827 -20.448  0.00  0.00    -0.006 C 
ATOM      4  C   UNL     1      33.739 -22.145 -18.428  0.00  0.00    +0.016 C 
ATOM      5  C   UNL     1      35.127 -22.285 -18.434  0.00  0.00    +0.001 C 
ATOM      6  C   UNL     1      33.106 -21.416 -19.435  0.00  0.00    +0.001 C 
ENDROOT
BRANCH   4  14
ATOM      7  O   UNL     1      35.097 -25.118 -11.905  0.00  0.00    -0.274 OA
ATOM      8  N   UNL     1      35.929 -24.051 -13.837  0.00  0.00    -0.217 N 
ATOM      9  N   UNL     1      33.534 -23.262 -16.179  0.00  0.00    -0.152 N 
ATOM     10  N   UNL     1      34.843 -23.246 -15.807  0.00  0.00    -0.092 NA
ATOM     11  N   UNL     1      33.588 -24.235 -14.176  0.00  0.00    -0.319 NA
ATOM     12  C   UNL     1      36.014 -24.656 -12.570  0.00  0.00    +0.234 C 
ATOM     13  C   UNL     1      34.811 -23.838 -14.615  0.00  0.00    +0.167 C 
ATOM     14  C   UNL     1      32.940 -22.769 -17.359  0.00  0.00    +0.077 C 
ATOM     15  C   UNL     1      32.792 -23.871 -15.156  0.00  0.00    +0.219 C 
ATOM     16  C   UNL     1      31.603 -22.890 -17.503  0.00  0.00    +0.017 C 
ATOM     17  C   UNL     1      31.387 -23.985 -15.331  0.00  0.00    +0.051 C 
ATOM     18  C   UNL     1      30.816 -23.515 -16.454  0.00  0.00    +0.005 C 
ATOM     19  H   UNL     1      36.781 -23.737 -14.219  0.00  0.00    +0.167 HD
BRANCH  12  20
ATOM     20  C   UNL     1      37.401 -24.723 -12.010  0.00  0.00    +0.077 C 
ATOM     21  C   UNL     1      38.277 -23.508 -12.087  0.00  0.00    +0.010 C 
ATOM     22  C   UNL     1      38.571 -24.701 -12.949  0.00  0.00    +0.010 C 
ENDBRANCH  12  20
ENDBRANCH   4  14
BRANCH   1  23
ATOM     23  C   UNL     1      36.067 -20.329 -21.547  0.00  0.00    -0.050 C 
BRANCH  23  27
ATOM     24  S   UNL     1      35.173 -16.439 -23.659  0.00  0.00    -0.014 S 
ATOM     25  O   UNL     1      34.106 -15.522 -24.006  0.00  0.00    -0.173 OA
ATOM     26  O   UNL     1      36.543 -16.176 -24.055  0.00  0.00    -0.173 OA
ATOM     27  N   UNL     1      35.395 -19.155 -22.113  0.00  0.00    +0.392 N 
ATOM     28  C   UNL     1      35.557 -19.144 -23.578  0.00  0.00    -0.051 C 
ATOM     29  C   UNL     1      35.925 -17.929 -21.494  0.00  0.00    -0.051 C 
ATOM     30  C   UNL     1      35.136 -16.690 -21.901  0.00  0.00    +0.128 C 
ATOM     31  C   UNL     1      34.722 -18.056 -24.242  0.00  0.00    +0.128 C 
ATOM     32  H   UNL     1      34.396 -19.198 -21.912  0.00  0.00    -0.079 HD
ENDBRANCH  23  27
ENDBRANCH   1  23
TORSDOF 4
ENDMDL
MODEL 5
REMARK VINA RESULT:     -10.2      3.609      9.669
REMARK  Name = 49831257
REMARK  4 active torsions:
REMARK  status: ('A' for Active; 'I' for Inactive)
REMARK    1  A    between atoms: C_1  and  C_23
REMARK    2  A    between atoms: C_4  and  C_14
REMARK    3  A    between atoms: C_12  and  C_20
REMARK    4  A    between atoms: C_23  and  N_27
REMARK                            x       y       z     vdW  Elec       q    Type
REMARK                         _______ _______ _______ _____ _____    ______ ____
ROOT
ATOM      1  C   UNL     1      36.047 -19.214 -22.326  0.00  0.00    -0.043 C 
ATOM      2  C   UNL     1      34.890 -19.867 -21.903  0.00  0.00    -0.006 C 
ATOM      3  C   UNL     1      37.225 -19.336 -21.589  0.00  0.00    -0.006 C 
ATOM      4  C   UNL     1      36.087 -20.761 -20.005  0.00  0.00    +0.016 C 
ATOM      5  C   UNL     1      34.909 -20.640 -20.743  0.00  0.00    +0.001 C 
ATOM      6  C   UNL     1      37.246 -20.109 -20.428  0.00  0.00    +0.001 C 
ENDROOT
BRANCH   4  14
ATOM      7  O   UNL     1      31.110 -23.966 -15.740  0.00  0.00    -0.274 OA
ATOM      8  N   UNL     1      31.578 -22.678 -17.659  0.00  0.00    -0.217 N 
ATOM      9  N   UNL     1      34.922 -22.056 -18.185  0.00  0.00    -0.152 N 
ATOM     10  N   UNL     1      33.634 -21.900 -18.596  0.00  0.00    -0.092 NA
ATOM     11  N   UNL     1      33.689 -23.138 -16.678  0.00  0.00    -0.319 NA
ATOM     12  C   UNL     1      30.757 -23.349 -16.735  0.00  0.00    +0.234 C 
ATOM     13  C   UNL     1      32.952 -22.560 -17.662  0.00  0.00    +0.167 C 
ATOM     14  C   UNL     1      36.108 -21.577 -18.779  0.00  0.00    +0.077 C 
ATOM     15  C   UNL     1      34.920 -22.822 -17.011  0.00  0.00    +0.219 C 
ATOM     16  C   UNL     1      37.286 -21.872 -18.187  0.00  0.00    +0.017 C 
ATOM     17  C   UNL     1      36.173 -23.120 -16.408  0.00  0.00    +0.051 C 
ATOM     18  C   UNL     1      37.306 -22.666 -16.971  0.00  0.00    +0.005 C 
ATOM     19  H   UNL     1      31.110 -22.233 -18.404  0.00  0.00    +0.167 HD
BRANCH  12  20
ATOM     20  C   UNL     1      29.294 -23.273 -17.041  0.00  0.00    +0.077 C 
ATOM     21  C   UNL     1      28.305 -23.491 -15.933  0.00  0.00    +0.010 C 
ATOM     22  C   UNL     1      28.473 -24.529 -17.005  0.00  0.00    +0.010 C 
ENDBRANCH  12  20
ENDBRANCH   4  14
BRANCH   1  23
ATOM     23  C   UNL     1      36.027 -18.381 -23.580  0.00  0.00    -0.050 C 
BRANCH  23  27
ATOM     24  S   UNL     1      34.054 -14.320 -23.563  0.00  0.00    -0.014 S 
ATOM     25  O   UNL     1      32.785 -13.644 -23.381  0.00  0.00    -0.173 OA
ATOM     26  O   UNL     1      35.263 -13.575 -23.860  0.00  0.00    -0.173 OA
ATOM     27  N   UNL     1      35.054 -17.288 -23.492  0.00  0.00    +0.392 N 
ATOM     28  C   UNL     1      34.970 -16.587 -24.785  0.00  0.00    -0.051 C 
ATOM     29  C   UNL     1      35.427 -16.376 -22.397  0.00  0.00    -0.051 C 
ATOM     30  C   UNL     1      34.353 -15.327 -22.131  0.00  0.00    +0.128 C 
ATOM     31  C   UNL     1      33.841 -15.564 -24.814  0.00  0.00    +0.128 C 
ATOM     32  H   UNL     1      34.130 -17.664 -23.282  0.00  0.00    -0.079 HD
ENDBRANCH  23  27
ENDBRANCH   1  23
TORSDOF 4
ENDMDL
MODEL 6
REMARK VINA RESULT:      -9.9      3.220      5.422
REMARK  Name = 49831257
REMARK  4 active torsions:
REMARK  status: ('A' for Active; 'I' for Inactive)
REMARK    1  A    between atoms: C_1  and  C_23
REMARK    2  A    between atoms: C_4  and  C_14
REMARK    3  A    between atoms: C_12  and  C_20
REMARK    4  A    between atoms: C_23  and  N_27
REMARK                            x       y       z     vdW  Elec       q    Type
REMARK                         _______ _______ _______ _____ _____    ______ ____
ROOT
ATOM      1  C   UNL     1      34.711 -15.310 -23.852  0.00  0.00    -0.043 C 
ATOM      2  C   UNL     1      33.740 -14.492 -24.428  0.00  0.00    -0.006 C 
ATOM      3  C   UNL     1      35.005 -15.192 -22.493  0.00  0.00    -0.006 C 
ATOM      4  C   UNL     1      33.359 -13.436 -22.289  0.00  0.00    +0.016 C 
ATOM      5  C   UNL     1      33.065 -13.554 -23.648  0.00  0.00    +0.001 C 
ATOM      6  C   UNL     1      34.330 -14.255 -21.712  0.00  0.00    +0.001 C 
ENDROOT
BRANCH   4  14
ATOM      7  O   UNL     1      31.645  -6.369 -22.876  0.00  0.00    -0.274 OA
ATOM      8  N   UNL     1      32.661  -8.273 -23.827  0.00  0.00    -0.217 N 
ATOM      9  N   UNL     1      32.486 -11.108 -21.883  0.00  0.00    -0.152 N 
ATOM     10  N   UNL     1      32.895 -10.516 -23.038  0.00  0.00    -0.092 NA
ATOM     11  N   UNL     1      31.812  -8.990 -21.730  0.00  0.00    -0.319 NA
ATOM     12  C   UNL     1      32.255  -6.927 -23.777  0.00  0.00    +0.234 C 
ATOM     13  C   UNL     1      32.470  -9.263 -22.887  0.00  0.00    +0.167 C 
ATOM     14  C   UNL     1      32.647 -12.445 -21.464  0.00  0.00    +0.077 C 
ATOM     15  C   UNL     1      31.823 -10.147 -21.107  0.00  0.00    +0.219 C 
ATOM     16  C   UNL     1      32.140 -12.807 -20.266  0.00  0.00    +0.017 C 
ATOM     17  C   UNL     1      31.297 -10.553 -19.850  0.00  0.00    +0.051 C 
ATOM     18  C   UNL     1      31.448 -11.827 -19.448  0.00  0.00    +0.005 C 
ATOM     19  H   UNL     1      33.145  -8.544 -24.641  0.00  0.00    +0.167 HD
BRANCH  12  20
ATOM     20  C   UNL     1      32.633  -6.124 -24.983  0.00  0.00    +0.077 C 
ATOM     21  C   UNL     1      34.066  -5.720 -25.170  0.00  0.00    +0.010 C 
ATOM     22  C   UNL     1      33.037  -4.689 -24.808  0.00  0.00    +0.010 C 
ENDBRANCH  12  20
ENDBRANCH   4  14
BRANCH   1  23
ATOM     23  C   UNL     1      35.439 -16.324 -24.694  0.00  0.00    -0.050 C 
BRANCH  23  27
ATOM     24  S   UNL     1      35.466 -19.676 -21.669  0.00  0.00    -0.014 S 
ATOM     25  O   UNL     1      36.176 -20.874 -21.266  0.00  0.00    -0.173 OA
ATOM     26  O   UNL     1      34.294 -19.222 -20.946  0.00  0.00    -0.173 OA
ATOM     27  N   UNL     1      35.777 -17.527 -23.927  0.00  0.00    +0.392 N 
ATOM     28  C   UNL     1      34.670 -18.496 -24.002  0.00  0.00    -0.051 C 
ATOM     29  C   UNL     1      36.091 -17.160 -22.536  0.00  0.00    -0.051 C 
ATOM     30  C   UNL     1      36.635 -18.340 -21.738  0.00  0.00    +0.128 C 
ATOM     31  C   UNL     1      35.038 -19.841 -23.385  0.00  0.00    +0.128 C 
ATOM     32  H   UNL     1      36.604 -17.970 -24.326  0.00  0.00    -0.079 HD
ENDBRANCH  23  27
ENDBRANCH   1  23
TORSDOF 4
ENDMDL
MODEL 7
REMARK VINA RESULT:      -9.8      6.518     12.641
REMARK  Name = 49831257
REMARK  4 active torsions:
REMARK  status: ('A' for Active; 'I' for Inactive)
REMARK    1  A    between atoms: C_1  and  C_23
REMARK    2  A    between atoms: C_4  and  C_14
REMARK    3  A    between atoms: C_12  and  C_20
REMARK    4  A    between atoms: C_23  and  N_27
REMARK                            x       y       z     vdW  Elec       q    Type
REMARK                         _______ _______ _______ _____ _____    ______ ____
ROOT
ATOM      1  C   UNL     1      31.995  -5.614 -22.859  0.00  0.00    -0.043 C 
ATOM      2  C   UNL     1      32.709  -5.821 -21.679  0.00  0.00    -0.006 C 
ATOM      3  C   UNL     1      31.286  -6.666 -23.438  0.00  0.00    -0.006 C 
ATOM      4  C   UNL     1      32.006  -8.132 -21.658  0.00  0.00    +0.016 C 
ATOM      5  C   UNL     1      32.715  -7.080 -21.079  0.00  0.00    +0.001 C 
ATOM      6  C   UNL     1      31.291  -7.926 -22.839  0.00  0.00    +0.001 C 
ENDROOT
BRANCH   4  14
ATOM      7  O   UNL     1      33.719 -14.920 -23.712  0.00  0.00    -0.274 OA
ATOM      8  N   UNL     1      33.559 -12.634 -24.271  0.00  0.00    -0.217 N 
ATOM      9  N   UNL     1      32.414 -10.617 -21.728  0.00  0.00    -0.152 N 
ATOM     10  N   UNL     1      32.858 -10.730 -23.009  0.00  0.00    -0.092 NA
ATOM     11  N   UNL     1      32.834 -12.786 -22.016  0.00  0.00    -0.319 NA
ATOM     12  C   UNL     1      33.841 -13.993 -24.501  0.00  0.00    +0.234 C 
ATOM     13  C   UNL     1      33.088 -12.037 -23.121  0.00  0.00    +0.167 C 
ATOM     14  C   UNL     1      32.013  -9.462 -21.025  0.00  0.00    +0.077 C 
ATOM     15  C   UNL     1      32.416 -11.893 -21.147  0.00  0.00    +0.219 C 
ATOM     16  C   UNL     1      31.616  -9.598 -19.742  0.00  0.00    +0.017 C 
ATOM     17  C   UNL     1      31.994 -12.010 -19.795  0.00  0.00    +0.051 C 
ATOM     18  C   UNL     1      31.612 -10.911 -19.121  0.00  0.00    +0.005 C 
ATOM     19  H   UNL     1      33.721 -12.029 -25.031  0.00  0.00    +0.167 HD
BRANCH  12  20
ATOM     20  C   UNL     1      34.342 -14.295 -25.879  0.00  0.00    +0.077 C 
ATOM     21  C   UNL     1      33.788 -13.524 -27.041  0.00  0.00    +0.010 C 
ATOM     22  C   UNL     1      33.428 -14.970 -26.859  0.00  0.00    +0.010 C 
ENDBRANCH  12  20
ENDBRANCH   4  14
BRANCH   1  23
ATOM     23  C   UNL     1      31.987  -4.254 -23.506  0.00  0.00    -0.050 C 
BRANCH  23  27
ATOM     24  S   UNL     1      34.078  -3.701 -27.469  0.00  0.00    -0.014 S 
ATOM     25  O   UNL     1      34.033  -4.071 -28.870  0.00  0.00    -0.173 OA
ATOM     26  O   UNL     1      35.117  -2.828 -26.959  0.00  0.00    -0.173 OA
ATOM     27  N   UNL     1      32.365  -4.323 -24.921  0.00  0.00    +0.392 N 
ATOM     28  C   UNL     1      33.705  -4.920 -25.051  0.00  0.00    -0.051 C 
ATOM     29  C   UNL     1      32.304  -2.978 -25.519  0.00  0.00    -0.051 C 
ATOM     30  C   UNL     1      32.501  -3.011 -27.031  0.00  0.00    +0.128 C 
ATOM     31  C   UNL     1      34.075  -5.193 -26.505  0.00  0.00    +0.128 C 
ATOM     32  H   UNL     1      31.710  -4.918 -25.426  0.00  0.00    -0.079 HD
ENDBRANCH  23  27
ENDBRANCH   1  23
TORSDOF 4
ENDMDL
MODEL 8
REMARK VINA RESULT:      -9.7      4.314      6.872
REMARK  Name = 49831257
REMARK  4 active torsions:
REMARK  status: ('A' for Active; 'I' for Inactive)
REMARK    1  A    between atoms: C_1  and  C_23
REMARK    2  A    between atoms: C_4  and  C_14
REMARK    3  A    between atoms: C_12  and  C_20
REMARK    4  A    between atoms: C_23  and  N_27
REMARK                            x       y       z     vdW  Elec       q    Type
REMARK                         _______ _______ _______ _____ _____    ______ ____
ROOT
ATOM      1  C   UNL     1      33.878 -13.739 -24.250  0.00  0.00    -0.043 C 
ATOM      2  C   UNL     1      34.272 -12.446 -24.593  0.00  0.00    -0.006 C 
ATOM      3  C   UNL     1      33.065 -13.947 -23.135  0.00  0.00    -0.006 C 
ATOM      4  C   UNL     1      33.043 -11.570 -22.707  0.00  0.00    +0.016 C 
ATOM      5  C   UNL     1      33.856 -11.362 -23.822  0.00  0.00    +0.001 C 
ATOM      6  C   UNL     1      32.648 -12.863 -22.363  0.00  0.00    +0.001 C 
ENDROOT
BRANCH   4  14
ATOM      7  O   UNL     1      32.324  -4.378 -23.700  0.00  0.00    -0.274 OA
ATOM      8  N   UNL     1      32.909  -6.479 -24.597  0.00  0.00    -0.217 N 
ATOM      9  N   UNL     1      32.586  -9.111 -22.403  0.00  0.00    -0.152 N 
ATOM     10  N   UNL     1      32.916  -8.672 -23.648  0.00  0.00    -0.092 NA
ATOM     11  N   UNL     1      32.259  -6.908 -22.356  0.00  0.00    -0.319 NA
ATOM     12  C   UNL     1      32.716  -5.086 -24.617  0.00  0.00    +0.234 C 
ATOM     13  C   UNL     1      32.705  -7.360 -23.557  0.00  0.00    +0.167 C 
ATOM     14  C   UNL     1      32.604 -10.425 -21.891  0.00  0.00    +0.077 C 
ATOM     15  C   UNL     1      32.183  -8.007 -21.639  0.00  0.00    +0.219 C 
ATOM     16  C   UNL     1      32.218 -10.620 -20.612  0.00  0.00    +0.017 C 
ATOM     17  C   UNL     1      31.780  -8.238 -20.296  0.00  0.00    +0.051 C 
ATOM     18  C   UNL     1      31.796  -9.489 -19.803  0.00  0.00    +0.005 C 
ATOM     19  H   UNL     1      33.233  -6.878 -25.438  0.00  0.00    +0.167 HD
BRANCH  12  20
ATOM     20  C   UNL     1      33.040  -4.437 -25.926  0.00  0.00    +0.077 C 
ATOM     21  C   UNL     1      33.824  -5.207 -26.948  0.00  0.00    +0.010 C 
ATOM     22  C   UNL     1      34.462  -4.058 -26.223  0.00  0.00    +0.010 C 
ENDBRANCH  12  20
ENDBRANCH   4  14
BRANCH   1  23
ATOM     23  C   UNL     1      34.326 -14.910 -25.083  0.00  0.00    -0.050 C 
BRANCH  23  27
ATOM     24  S   UNL     1      35.691 -18.709 -23.059  0.00  0.00    -0.014 S 
ATOM     25  O   UNL     1      35.249 -19.799 -22.214  0.00  0.00    -0.173 OA
ATOM     26  O   UNL     1      37.058 -18.639 -23.538  0.00  0.00    -0.173 OA
ATOM     27  N   UNL     1      34.379 -16.148 -24.299  0.00  0.00    +0.392 N 
ATOM     28  C   UNL     1      35.346 -16.001 -23.197  0.00  0.00    -0.051 C 
ATOM     29  C   UNL     1      34.718 -17.281 -25.178  0.00  0.00    -0.051 C 
ATOM     30  C   UNL     1      34.601 -18.621 -24.460  0.00  0.00    +0.128 C 
ATOM     31  C   UNL     1      35.307 -17.182 -22.235  0.00  0.00    +0.128 C 
ATOM     32  H   UNL     1      33.466 -16.336 -23.887  0.00  0.00    -0.079 HD
ENDBRANCH  23  27
ENDBRANCH   1  23
TORSDOF 4
ENDMDL
MODEL 9
REMARK VINA RESULT:      -9.4      4.469     10.432
REMARK  Name = 49831257
REMARK  4 active torsions:
REMARK  status: ('A' for Active; 'I' for Inactive)
REMARK    1  A    between atoms: C_1  and  C_23
REMARK    2  A    between atoms: C_4  and  C_14
REMARK    3  A    between atoms: C_12  and  C_20
REMARK    4  A    between atoms: C_23  and  N_27
REMARK                            x       y       z     vdW  Elec       q    Type
REMARK                         _______ _______ _______ _____ _____    ______ ____
ROOT
ATOM      1  C   UNL     1      32.624 -10.370 -22.290  0.00  0.00    -0.043 C 
ATOM      2  C   UNL     1      33.438 -10.134 -23.397  0.00  0.00    -0.006 C 
ATOM      3  C   UNL     1      32.146 -11.656 -22.036  0.00  0.00    -0.006 C 
ATOM      4  C   UNL     1      33.297 -12.470 -23.998  0.00  0.00    +0.016 C 
ATOM      5  C   UNL     1      33.774 -11.184 -24.252  0.00  0.00    +0.001 C 
ATOM      6  C   UNL     1      32.482 -12.706 -22.890  0.00  0.00    +0.001 C 
ENDROOT
BRANCH   4  14
ATOM      7  O   UNL     1      36.250 -19.102 -23.271  0.00  0.00    -0.274 OA
ATOM      8  N   UNL     1      35.511 -17.111 -22.246  0.00  0.00    -0.217 N 
ATOM      9  N   UNL     1      34.232 -14.771 -24.422  0.00  0.00    -0.152 N 
ATOM     10  N   UNL     1      34.536 -15.122 -23.143  0.00  0.00    -0.092 NA
ATOM     11  N   UNL     1      35.103 -16.816 -24.565  0.00  0.00    -0.319 NA
ATOM     12  C   UNL     1      36.066 -18.403 -22.284  0.00  0.00    +0.234 C 
ATOM     13  C   UNL     1      35.051 -16.341 -23.293  0.00  0.00    +0.167 C 
ATOM     14  C   UNL     1      33.651 -13.579 -24.901  0.00  0.00    +0.077 C 
ATOM     15  C   UNL     1      34.587 -15.832 -25.266  0.00  0.00    +0.219 C 
ATOM     16  C   UNL     1      33.431 -13.461 -26.228  0.00  0.00    +0.017 C 
ATOM     17  C   UNL     1      34.345 -15.684 -26.659  0.00  0.00    +0.051 C 
ATOM     18  C   UNL     1      33.790 -14.550 -27.120  0.00  0.00    +0.005 C 
ATOM     19  H   UNL     1      35.442 -16.702 -21.352  0.00  0.00    +0.167 HD
BRANCH  12  20
ATOM     20  C   UNL     1      36.463 -18.944 -20.947  0.00  0.00    +0.077 C 
ATOM     21  C   UNL     1      37.367 -20.140 -20.884  0.00  0.00    +0.010 C 
ATOM     22  C   UNL     1      35.920 -20.272 -20.505  0.00  0.00    +0.010 C 
ENDBRANCH  12  20
ENDBRANCH   4  14
BRANCH   1  23
ATOM     23  C   UNL     1      32.262  -9.237 -21.366  0.00  0.00    -0.050 C 
BRANCH  23  27
ATOM     24  S   UNL     1      31.470  -5.048 -22.855  0.00  0.00    -0.014 S 
ATOM     25  O   UNL     1      32.014  -3.982 -23.671  0.00  0.00    -0.173 OA
ATOM     26  O   UNL     1      30.197  -4.897 -22.178  0.00  0.00    -0.173 OA
ATOM     27  N   UNL     1      32.366  -7.936 -22.034  0.00  0.00    +0.392 N 
ATOM     28  C   UNL     1      32.397  -6.859 -21.029  0.00  0.00    -0.051 C 
ATOM     29  C   UNL     1      31.251  -7.770 -22.981  0.00  0.00    -0.051 C 
ATOM     30  C   UNL     1      31.408  -6.523 -23.844  0.00  0.00    +0.128 C 
ATOM     31  C   UNL     1      32.696  -5.499 -21.650  0.00  0.00    +0.128 C 
ATOM     32  H   UNL     1      33.235  -7.889 -22.565  0.00  0.00    -0.079 HD
ENDBRANCH  23  27
ENDBRANCH   1  23
TORSDOF 4
ENDMDL
