MODEL 1
REMARK VINA RESULT:     -11.6      0.000      0.000
REMARK  Name = 24812758
REMARK  9 active torsions:
REMARK  status: ('A' for Active; 'I' for Inactive)
REMARK    1  A    between atoms: C_1  and  C_11
REMARK    2  A    between atoms: C_4  and  C_23
REMARK    3  A    between atoms: C_9  and  O_14
REMARK    4  A    between atoms: C_10  and  O_16
REMARK    5  A    between atoms: C_12  and  O_18
REMARK    6  A    between atoms: C_13  and  C_20
REMARK    7  A    between atoms: C_20  and  O_21
REMARK    8  A    between atoms: C_23  and  C_25
REMARK    9  A    between atoms: C_27  and  C_30
REMARK                            x       y       z     vdW  Elec       q    Type
REMARK                         _______ _______ _______ _____ _____    ______ ____
ROOT
ATOM      1  C   UNL     1      34.276 -24.269 -14.558  0.00  0.00    +0.007 C 
ATOM      2  C   UNL     1      34.077 -24.067 -15.924  0.00  0.00    -0.006 C 
ATOM      3  C   UNL     1      33.245 -24.002 -13.656  0.00  0.00    -0.002 C 
ATOM      4  C   UNL     1      32.848 -23.598 -16.389  0.00  0.00    -0.021 C 
ATOM      5  C   UNL     1      31.818 -23.331 -15.486  0.00  0.00    -0.025 C 
ATOM      6  C   UNL     1      32.017 -23.533 -14.121  0.00  0.00    -0.005 C 
ATOM      7  C   UNL     1      30.493 -22.829 -15.959  0.00  0.00    +0.031 C 
ENDROOT
BRANCH   1  11
ATOM      8  O   UNL     1      36.333 -23.659 -13.529  0.00  0.00    -0.347 OA
ATOM      9  C   UNL     1      36.416 -25.477 -15.161  0.00  0.00    +0.171 C 
ATOM     10  C   UNL     1      37.821 -25.839 -14.673  0.00  0.00    +0.169 C 
ATOM     11  C   UNL     1      35.611 -24.778 -14.054  0.00  0.00    +0.167 C 
ATOM     12  C   UNL     1      38.497 -24.649 -13.993  0.00  0.00    +0.169 C 
ATOM     13  C   UNL     1      37.578 -24.033 -12.937  0.00  0.00    +0.174 C 
BRANCH   9  14
ATOM     14  O   UNL     1      35.733 -26.672 -15.537  0.00  0.00    -0.379 OA
ATOM     15  H   UNL     1      36.260 -27.152 -16.195  0.00  0.00    +0.211 HD
ENDBRANCH   9  14
BRANCH  10  16
ATOM     16  O   UNL     1      38.626 -26.226 -15.788  0.00  0.00    -0.379 OA
ATOM     17  H   UNL     1      38.123 -26.830 -16.356  0.00  0.00    +0.211 HD
ENDBRANCH  10  16
BRANCH  12  18
ATOM     18  O   UNL     1      39.703 -25.086 -13.369  0.00  0.00    -0.379 OA
ATOM     19  H   UNL     1      39.488 -25.676 -12.630  0.00  0.00    +0.211 HD
ENDBRANCH  12  18
BRANCH  13  20
ATOM     20  C   UNL     1      38.187 -22.777 -12.321  0.00  0.00    +0.169 C 
BRANCH  20  21
ATOM     21  O   UNL     1      39.326 -23.151 -11.566  0.00  0.00    -0.379 OA
ATOM     22  H   UNL     1      39.905 -23.708 -12.110  0.00  0.00    +0.211 HD
ENDBRANCH  20  21
ENDBRANCH  13  20
ENDBRANCH   1  11
BRANCH   4  23
ATOM     23  C   UNL     1      32.658 -23.390 -17.855  0.00  0.00    +0.059 C 
BRANCH  23  25
ATOM     24  S   UNL     1      33.445 -21.576 -19.822  0.00  0.00    -0.091 S 
ATOM     25  C   UNL     1      33.789 -22.631 -18.517  0.00  0.00    +0.012 C 
ATOM     26  C   UNL     1      35.132 -22.656 -18.213  0.00  0.00    +0.003 C 
ATOM     27  C   UNL     1      35.095 -21.151 -19.983  0.00  0.00    +0.029 C 
ATOM     28  C   UNL     1      35.889 -21.798 -19.063  0.00  0.00    +0.007 C 
BRANCH  27  30
ATOM     29  F   UNL     1      36.565 -17.519 -23.947  0.00  0.00    -0.204 F 
ATOM     30  C   UNL     1      35.477 -20.210 -21.011  0.00  0.00    +0.006 C 
ATOM     31  C   UNL     1      34.564 -19.854 -22.004  0.00  0.00    +0.003 C 
ATOM     32  C   UNL     1      36.757 -19.656 -21.010  0.00  0.00    +0.003 C 
ATOM     33  C   UNL     1      34.931 -18.945 -22.996  0.00  0.00    +0.030 C 
ATOM     34  C   UNL     1      37.124 -18.747 -22.001  0.00  0.00    +0.030 C 
ATOM     35  C   UNL     1      36.211 -18.391 -22.995  0.00  0.00    +0.140 C 
ENDBRANCH  27  30
ENDBRANCH  23  25
ENDBRANCH   4  23
TORSDOF 9
ENDMDL
MODEL 2
REMARK VINA RESULT:     -11.4      1.453      2.443
REMARK  Name = 24812758
REMARK  9 active torsions:
REMARK  status: ('A' for Active; 'I' for Inactive)
REMARK    1  A    between atoms: C_1  and  C_11
REMARK    2  A    between atoms: C_4  and  C_23
REMARK    3  A    between atoms: C_9  and  O_14
REMARK    4  A    between atoms: C_10  and  O_16
REMARK    5  A    between atoms: C_12  and  O_18
REMARK    6  A    between atoms: C_13  and  C_20
REMARK    7  A    between atoms: C_20  and  O_21
REMARK    8  A    between atoms: C_23  and  C_25
REMARK    9  A    between atoms: C_27  and  C_30
REMARK                            x       y       z     vdW  Elec       q    Type
REMARK                         _______ _______ _______ _____ _____    ______ ____
ROOT
ATOM      1  C   UNL     1      34.518 -23.527 -15.051  0.00  0.00    +0.007 C 
ATOM      2  C   UNL     1      34.647 -23.647 -16.435  0.00  0.00    -0.006 C 
ATOM      3  C   UNL     1      33.307 -23.112 -14.497  0.00  0.00    -0.002 C 
ATOM      4  C   UNL     1      33.566 -23.351 -17.265  0.00  0.00    -0.021 C 
ATOM      5  C   UNL     1      32.355 -22.936 -16.711  0.00  0.00    -0.025 C 
ATOM      6  C   UNL     1      32.226 -22.816 -15.327  0.00  0.00    -0.005 C 
ATOM      7  C   UNL     1      31.183 -22.614 -17.578  0.00  0.00    +0.031 C 
ENDROOT
BRANCH   1  11
ATOM      8  O   UNL     1      36.546 -24.757 -14.854  0.00  0.00    -0.347 OA
ATOM      9  C   UNL     1      35.243 -24.451 -12.810  0.00  0.00    +0.171 C 
ATOM     10  C   UNL     1      36.446 -24.915 -11.984  0.00  0.00    +0.169 C 
ATOM     11  C   UNL     1      35.693 -23.849 -14.150  0.00  0.00    +0.167 C 
ATOM     12  C   UNL     1      37.400 -25.765 -12.821  0.00  0.00    +0.169 C 
ATOM     13  C   UNL     1      37.742 -25.062 -14.136  0.00  0.00    +0.174 C 
BRANCH   9  14
ATOM     14  O   UNL     1      34.533 -23.453 -12.076  0.00  0.00    -0.379 OA
ATOM     15  H   UNL     1      34.518 -22.627 -12.585  0.00  0.00    +0.211 HD
ENDBRANCH   9  14
BRANCH  10  16
ATOM     16  O   UNL     1      35.991 -25.710 -10.888  0.00  0.00    -0.379 OA
ATOM     17  H   UNL     1      35.159 -26.146 -11.128  0.00  0.00    +0.211 HD
ENDBRANCH  10  16
BRANCH  12  18
ATOM     18  O   UNL     1      38.598 -25.992 -12.084  0.00  0.00    -0.379 OA
ATOM     19  H   UNL     1      38.951 -25.144 -11.772  0.00  0.00    +0.211 HD
ENDBRANCH  12  18
BRANCH  13  20
ATOM     20  C   UNL     1      38.606 -25.939 -15.038  0.00  0.00    +0.169 C 
BRANCH  20  21
ATOM     21  O   UNL     1      38.255 -27.294 -14.819  0.00  0.00    -0.379 OA
ATOM     22  H   UNL     1      38.363 -27.793 -15.644  0.00  0.00    +0.211 HD
ENDBRANCH  20  21
ENDBRANCH  13  20
ENDBRANCH   1  11
BRANCH   4  23
ATOM     23  C   UNL     1      33.728 -23.487 -18.743  0.00  0.00    +0.059 C 
BRANCH  23  25
ATOM     24  S   UNL     1      33.843 -21.405 -20.596  0.00  0.00    -0.091 S 
ATOM     25  C   UNL     1      34.545 -22.379 -19.374  0.00  0.00    +0.012 C 
ATOM     26  C   UNL     1      35.843 -22.009 -19.099  0.00  0.00    +0.003 C 
ATOM     27  C   UNL     1      35.278 -20.485 -20.760  0.00  0.00    +0.029 C 
ATOM     28  C   UNL     1      36.268 -20.911 -19.903  0.00  0.00    +0.007 C 
BRANCH  27  30
ATOM     29  F   UNL     1      35.411 -16.348 -24.493  0.00  0.00    -0.204 F 
ATOM     30  C   UNL     1      35.312 -19.413 -21.728  0.00  0.00    +0.006 C 
ATOM     31  C   UNL     1      35.713 -18.134 -21.338  0.00  0.00    +0.003 C 
ATOM     32  C   UNL     1      34.945 -19.655 -23.052  0.00  0.00    +0.003 C 
ATOM     33  C   UNL     1      35.747 -17.099 -22.272  0.00  0.00    +0.030 C 
ATOM     34  C   UNL     1      34.978 -18.620 -23.985  0.00  0.00    +0.030 C 
ATOM     35  C   UNL     1      35.379 -17.342 -23.596  0.00  0.00    +0.140 C 
ENDBRANCH  27  30
ENDBRANCH  23  25
ENDBRANCH   4  23
TORSDOF 9
ENDMDL
MODEL 3
REMARK VINA RESULT:     -11.3     10.979     14.545
REMARK  Name = 24812758
REMARK  9 active torsions:
REMARK  status: ('A' for Active; 'I' for Inactive)
REMARK    1  A    between atoms: C_1  and  C_11
REMARK    2  A    between atoms: C_4  and  C_23
REMARK    3  A    between atoms: C_9  and  O_14
REMARK    4  A    between atoms: C_10  and  O_16
REMARK    5  A    between atoms: C_12  and  O_18
REMARK    6  A    between atoms: C_13  and  C_20
REMARK    7  A    between atoms: C_20  and  O_21
REMARK    8  A    between atoms: C_23  and  C_25
REMARK    9  A    between atoms: C_27  and  C_30
REMARK                            x       y       z     vdW  Elec       q    Type
REMARK                         _______ _______ _______ _____ _____    ______ ____
ROOT
ATOM      1  C   UNL     1      33.216 -13.073 -22.222  0.00  0.00    +0.007 C 
ATOM      2  C   UNL     1      32.560 -11.895 -22.579  0.00  0.00    -0.006 C 
ATOM      3  C   UNL     1      33.099 -13.570 -20.923  0.00  0.00    -0.002 C 
ATOM      4  C   UNL     1      31.788 -11.213 -21.639  0.00  0.00    -0.021 C 
ATOM      5  C   UNL     1      31.671 -11.710 -20.341  0.00  0.00    -0.025 C 
ATOM      6  C   UNL     1      32.327 -12.888 -19.983  0.00  0.00    -0.005 C 
ATOM      7  C   UNL     1      30.850 -10.999 -19.316  0.00  0.00    +0.031 C 
ENDROOT
BRANCH   1  11
ATOM      8  O   UNL     1      33.342 -13.799 -24.485  0.00  0.00    -0.347 OA
ATOM      9  C   UNL     1      34.359 -15.253 -22.805  0.00  0.00    +0.171 C 
ATOM     10  C   UNL     1      35.067 -16.030 -23.918  0.00  0.00    +0.169 C 
ATOM     11  C   UNL     1      34.056 -13.813 -23.244  0.00  0.00    +0.167 C 
ATOM     12  C   UNL     1      34.345 -15.868 -25.255  0.00  0.00    +0.169 C 
ATOM     13  C   UNL     1      34.080 -14.391 -25.554  0.00  0.00    +0.174 C 
BRANCH   9  14
ATOM     14  O   UNL     1      35.206 -15.212 -21.657  0.00  0.00    -0.379 OA
ATOM     15  H   UNL     1      36.076 -14.864 -21.909  0.00  0.00    +0.211 HD
ENDBRANCH   9  14
BRANCH  10  16
ATOM     16  O   UNL     1      35.084 -17.420 -23.591  0.00  0.00    -0.379 OA
ATOM     17  H   UNL     1      35.828 -17.850 -24.042  0.00  0.00    +0.211 HD
ENDBRANCH  10  16
BRANCH  12  18
ATOM     18  O   UNL     1      35.147 -16.422 -26.294  0.00  0.00    -0.379 OA
ATOM     19  H   UNL     1      34.583 -16.652 -27.050  0.00  0.00    +0.211 HD
ENDBRANCH  12  18
BRANCH  13  20
ATOM     20  C   UNL     1      33.263 -14.210 -26.830  0.00  0.00    +0.169 C 
BRANCH  20  21
ATOM     21  O   UNL     1      34.151 -13.938 -27.899  0.00  0.00    -0.379 OA
ATOM     22  H   UNL     1      33.657 -13.552 -28.640  0.00  0.00    +0.211 HD
ENDBRANCH  20  21
ENDBRANCH  13  20
ENDBRANCH   1  11
BRANCH   4  23
ATOM     23  C   UNL     1      31.095  -9.954 -22.045  0.00  0.00    +0.059 C 
BRANCH  23  25
ATOM     24  S   UNL     1      31.906  -8.034 -23.897  0.00  0.00    -0.091 S 
ATOM     25  C   UNL     1      32.037  -8.817 -22.380  0.00  0.00    +0.012 C 
ATOM     26  C   UNL     1      33.042  -8.280 -21.607  0.00  0.00    +0.003 C 
ATOM     27  C   UNL     1      33.197  -6.974 -23.522  0.00  0.00    +0.029 C 
ATOM     28  C   UNL     1      33.715  -7.212 -22.269  0.00  0.00    +0.007 C 
BRANCH  27  30
ATOM     29  F   UNL     1      34.745  -3.174 -27.295  0.00  0.00    -0.204 F 
ATOM     30  C   UNL     1      33.598  -5.989 -24.500  0.00  0.00    +0.006 C 
ATOM     31  C   UNL     1      34.851  -6.079 -25.108  0.00  0.00    +0.003 C 
ATOM     32  C   UNL     1      32.733  -4.947 -24.837  0.00  0.00    +0.003 C 
ATOM     33  C   UNL     1      35.238  -5.129 -26.051  0.00  0.00    +0.030 C 
ATOM     34  C   UNL     1      33.121  -3.997 -25.781  0.00  0.00    +0.030 C 
ATOM     35  C   UNL     1      34.374  -4.088 -26.388  0.00  0.00    +0.140 C 
ENDBRANCH  27  30
ENDBRANCH  23  25
ENDBRANCH   4  23
TORSDOF 9
ENDMDL
MODEL 4
REMARK VINA RESULT:     -10.8      2.957      5.482
REMARK  Name = 24812758
REMARK  9 active torsions:
REMARK  status: ('A' for Active; 'I' for Inactive)
REMARK    1  A    between atoms: C_1  and  C_11
REMARK    2  A    between atoms: C_4  and  C_23
REMARK    3  A    between atoms: C_9  and  O_14
REMARK    4  A    between atoms: C_10  and  O_16
REMARK    5  A    between atoms: C_12  and  O_18
REMARK    6  A    between atoms: C_13  and  C_20
REMARK    7  A    between atoms: C_20  and  O_21
REMARK    8  A    between atoms: C_23  and  C_25
REMARK    9  A    between atoms: C_27  and  C_30
REMARK                            x       y       z     vdW  Elec       q    Type
REMARK                         _______ _______ _______ _____ _____    ______ ____
ROOT
ATOM      1  C   UNL     1      34.056 -23.309 -16.296  0.00  0.00    +0.007 C 
ATOM      2  C   UNL     1      34.579 -23.164 -17.581  0.00  0.00    -0.006 C 
ATOM      3  C   UNL     1      34.752 -22.801 -15.199  0.00  0.00    -0.002 C 
ATOM      4  C   UNL     1      35.798 -22.513 -17.770  0.00  0.00    -0.021 C 
ATOM      5  C   UNL     1      36.493 -22.005 -16.672  0.00  0.00    -0.025 C 
ATOM      6  C   UNL     1      35.970 -22.149 -15.387  0.00  0.00    -0.005 C 
ATOM      7  C   UNL     1      37.800 -21.302 -16.848  0.00  0.00    +0.031 C 
ENDROOT
BRANCH   1  11
ATOM      8  O   UNL     1      31.694 -23.132 -16.524  0.00  0.00    -0.347 OA
ATOM      9  C   UNL     1      32.521 -24.432 -14.628  0.00  0.00    +0.171 C 
ATOM     10  C   UNL     1      31.115 -24.999 -14.415  0.00  0.00    +0.169 C 
ATOM     11  C   UNL     1      32.732 -24.017 -16.092  0.00  0.00    +0.167 C 
ATOM     12  C   UNL     1      30.050 -24.085 -15.018  0.00  0.00    +0.169 C 
ATOM     13  C   UNL     1      30.397 -23.728 -16.465  0.00  0.00    +0.174 C 
BRANCH   9  14
ATOM     14  O   UNL     1      33.481 -25.435 -14.295  0.00  0.00    -0.379 OA
ATOM     15  H   UNL     1      34.374 -25.058 -14.345  0.00  0.00    +0.211 HD
ENDBRANCH   9  14
BRANCH  10  16
ATOM     16  O   UNL     1      30.856 -25.113 -13.014  0.00  0.00    -0.379 OA
ATOM     17  H   UNL     1      30.806 -26.050 -12.769  0.00  0.00    +0.211 HD
ENDBRANCH  10  16
BRANCH  12  18
ATOM     18  O   UNL     1      28.789 -24.748 -14.989  0.00  0.00    -0.379 OA
ATOM     19  H   UNL     1      28.176 -24.305 -15.598  0.00  0.00    +0.211 HD
ENDBRANCH  12  18
BRANCH  13  20
ATOM     20  C   UNL     1      29.407 -22.729 -17.054  0.00  0.00    +0.169 C 
BRANCH  20  21
ATOM     21  O   UNL     1      28.426 -23.444 -17.785  0.00  0.00    -0.379 OA
ATOM     22  H   UNL     1      28.116 -24.198 -17.258  0.00  0.00    +0.211 HD
ENDBRANCH  20  21
ENDBRANCH  13  20
ENDBRANCH   1  11
BRANCH   4  23
ATOM     23  C   UNL     1      36.338 -22.369 -19.154  0.00  0.00    +0.059 C 
BRANCH  23  25
ATOM     24  S   UNL     1      36.392 -20.433 -21.161  0.00  0.00    -0.091 S 
ATOM     25  C   UNL     1      35.559 -21.398 -20.017  0.00  0.00    +0.012 C 
ATOM     26  C   UNL     1      34.203 -21.157 -20.028  0.00  0.00    +0.003 C 
ATOM     27  C   UNL     1      34.938 -19.689 -21.673  0.00  0.00    +0.029 C 
ATOM     28  C   UNL     1      33.843 -20.167 -20.988  0.00  0.00    +0.007 C 
BRANCH  27  30
ATOM     29  F   UNL     1      35.152 -15.829 -25.687  0.00  0.00    -0.204 F 
ATOM     30  C   UNL     1      34.993 -18.689 -22.713  0.00  0.00    +0.006 C 
ATOM     31  C   UNL     1      34.641 -19.022 -24.021  0.00  0.00    +0.003 C 
ATOM     32  C   UNL     1      35.399 -17.389 -22.410  0.00  0.00    +0.003 C 
ATOM     33  C   UNL     1      34.694 -18.057 -25.026  0.00  0.00    +0.030 C 
ATOM     34  C   UNL     1      35.453 -16.423 -23.415  0.00  0.00    +0.030 C 
ATOM     35  C   UNL     1      35.100 -16.757 -24.723  0.00  0.00    +0.140 C 
ENDBRANCH  27  30
ENDBRANCH  23  25
ENDBRANCH   4  23
TORSDOF 9
ENDMDL
MODEL 5
REMARK VINA RESULT:     -10.5      8.258     12.825
REMARK  Name = 24812758
REMARK  9 active torsions:
REMARK  status: ('A' for Active; 'I' for Inactive)
REMARK    1  A    between atoms: C_1  and  C_11
REMARK    2  A    between atoms: C_4  and  C_23
REMARK    3  A    between atoms: C_9  and  O_14
REMARK    4  A    between atoms: C_10  and  O_16
REMARK    5  A    between atoms: C_12  and  O_18
REMARK    6  A    between atoms: C_13  and  C_20
REMARK    7  A    between atoms: C_20  and  O_21
REMARK    8  A    between atoms: C_23  and  C_25
REMARK    9  A    between atoms: C_27  and  C_30
REMARK                            x       y       z     vdW  Elec       q    Type
REMARK                         _______ _______ _______ _____ _____    ______ ____
ROOT
ATOM      1  C   UNL     1      33.842 -13.376 -23.892  0.00  0.00    +0.007 C 
ATOM      2  C   UNL     1      34.820 -14.282 -23.481  0.00  0.00    -0.006 C 
ATOM      3  C   UNL     1      33.091 -13.633 -25.039  0.00  0.00    -0.002 C 
ATOM      4  C   UNL     1      35.048 -15.444 -24.216  0.00  0.00    -0.021 C 
ATOM      5  C   UNL     1      34.296 -15.702 -25.364  0.00  0.00    -0.025 C 
ATOM      6  C   UNL     1      33.319 -14.796 -25.774  0.00  0.00    -0.005 C 
ATOM      7  C   UNL     1      34.521 -16.940 -26.168  0.00  0.00    +0.031 C 
ENDROOT
BRANCH   1  11
ATOM      8  O   UNL     1      32.335 -12.258 -22.427  0.00  0.00    -0.347 OA
ATOM      9  C   UNL     1      33.602 -10.859 -23.980  0.00  0.00    +0.171 C 
ATOM     10  C   UNL     1      33.193  -9.618 -23.182  0.00  0.00    +0.169 C 
ATOM     11  C   UNL     1      33.595 -12.112 -23.092  0.00  0.00    +0.167 C 
ATOM     12  C   UNL     1      31.918  -9.870 -22.378  0.00  0.00    +0.169 C 
ATOM     13  C   UNL     1      32.036 -11.160 -21.564  0.00  0.00    +0.174 C 
BRANCH   9  14
ATOM     14  O   UNL     1      34.921 -10.668 -24.490  0.00  0.00    -0.379 OA
ATOM     15  H   UNL     1      35.149  -9.726 -24.454  0.00  0.00    +0.211 HD
ENDBRANCH   9  14
BRANCH  10  16
ATOM     16  O   UNL     1      32.941  -8.537 -24.081  0.00  0.00    -0.379 OA
ATOM     17  H   UNL     1      32.115  -8.094 -23.832  0.00  0.00    +0.211 HD
ENDBRANCH  10  16
BRANCH  12  18
ATOM     18  O   UNL     1      31.696  -8.775 -21.493  0.00  0.00    -0.379 OA
ATOM     19  H   UNL     1      32.528  -8.544 -21.050  0.00  0.00    +0.211 HD
ENDBRANCH  12  18
BRANCH  13  20
ATOM     20  C   UNL     1      30.736 -11.491 -20.838  0.00  0.00    +0.169 C 
BRANCH  20  21
ATOM     21  O   UNL     1      30.697 -10.759 -19.626  0.00  0.00    -0.379 OA
ATOM     22  H   UNL     1      29.828 -10.339 -19.529  0.00  0.00    +0.211 HD
ENDBRANCH  20  21
ENDBRANCH  13  20
ENDBRANCH   1  11
BRANCH   4  23
ATOM     23  C   UNL     1      36.100 -16.399 -23.757  0.00  0.00    +0.059 C 
BRANCH  23  25
ATOM     24  S   UNL     1      35.784 -18.193 -21.644  0.00  0.00    -0.091 S 
ATOM     25  C   UNL     1      35.552 -17.728 -23.276  0.00  0.00    +0.012 C 
ATOM     26  C   UNL     1      34.852 -18.675 -23.989  0.00  0.00    +0.003 C 
ATOM     27  C   UNL     1      34.948 -19.667 -21.890  0.00  0.00    +0.029 C 
ATOM     28  C   UNL     1      34.502 -19.799 -23.186  0.00  0.00    +0.007 C 
BRANCH  27  30
ATOM     29  F   UNL     1      34.374 -23.186 -17.607  0.00  0.00    -0.204 F 
ATOM     30  C   UNL     1      34.799 -20.578 -20.780  0.00  0.00    +0.006 C 
ATOM     31  C   UNL     1      33.526 -20.946 -20.345  0.00  0.00    +0.003 C 
ATOM     32  C   UNL     1      35.929 -21.092 -20.142  0.00  0.00    +0.003 C 
ATOM     33  C   UNL     1      33.382 -21.827 -19.273  0.00  0.00    +0.030 C 
ATOM     34  C   UNL     1      35.785 -21.972 -19.071  0.00  0.00    +0.030 C 
ATOM     35  C   UNL     1      34.511 -22.340 -18.636  0.00  0.00    +0.140 C 
ENDBRANCH  27  30
ENDBRANCH  23  25
ENDBRANCH   4  23
TORSDOF 9
ENDMDL
MODEL 6
REMARK VINA RESULT:     -10.5     12.787     16.974
REMARK  Name = 24812758
REMARK  9 active torsions:
REMARK  status: ('A' for Active; 'I' for Inactive)
REMARK    1  A    between atoms: C_1  and  C_11
REMARK    2  A    between atoms: C_4  and  C_23
REMARK    3  A    between atoms: C_9  and  O_14
REMARK    4  A    between atoms: C_10  and  O_16
REMARK    5  A    between atoms: C_12  and  O_18
REMARK    6  A    between atoms: C_13  and  C_20
REMARK    7  A    between atoms: C_20  and  O_21
REMARK    8  A    between atoms: C_23  and  C_25
REMARK    9  A    between atoms: C_27  and  C_30
REMARK                            x       y       z     vdW  Elec       q    Type
REMARK                         _______ _______ _______ _____ _____    ______ ____
ROOT
ATOM      1  C   UNL     1      32.057  -7.205 -22.445  0.00  0.00    +0.007 C 
ATOM      2  C   UNL     1      31.640  -8.511 -22.700  0.00  0.00    -0.006 C 
ATOM      3  C   UNL     1      32.648  -6.888 -21.222  0.00  0.00    -0.002 C 
ATOM      4  C   UNL     1      31.814  -9.501 -21.733  0.00  0.00    -0.021 C 
ATOM      5  C   UNL     1      32.406  -9.184 -20.510  0.00  0.00    -0.025 C 
ATOM      6  C   UNL     1      32.822  -7.877 -20.255  0.00  0.00    -0.005 C 
ATOM      7  C   UNL     1      32.604 -10.226 -19.459  0.00  0.00    +0.031 C 
ENDROOT
BRANCH   1  11
ATOM      8  O   UNL     1      33.064  -6.072 -24.281  0.00  0.00    -0.347 OA
ATOM      9  C   UNL     1      31.558  -4.761 -22.871  0.00  0.00    +0.171 C 
ATOM     10  C   UNL     1      31.531  -3.663 -23.937  0.00  0.00    +0.169 C 
ATOM     11  C   UNL     1      31.867  -6.129 -23.497  0.00  0.00    +0.167 C 
ATOM     12  C   UNL     1      32.762  -3.732 -24.839  0.00  0.00    +0.169 C 
ATOM     13  C   UNL     1      32.968  -5.152 -25.369  0.00  0.00    +0.174 C 
BRANCH   9  14
ATOM     14  O   UNL     1      30.281  -4.826 -22.238  0.00  0.00    -0.379 OA
ATOM     15  H   UNL     1      29.678  -5.359 -22.780  0.00  0.00    +0.211 HD
ENDBRANCH   9  14
BRANCH  10  16
ATOM     16  O   UNL     1      31.520  -2.384 -23.302  0.00  0.00    -0.379 OA
ATOM     17  H   UNL     1      30.663  -1.954 -23.452  0.00  0.00    +0.211 HD
ENDBRANCH  10  16
BRANCH  12  18
ATOM     18  O   UNL     1      32.592  -2.841 -25.938  0.00  0.00    -0.379 OA
ATOM     19  H   UNL     1      32.081  -2.067 -25.651  0.00  0.00    +0.211 HD
ENDBRANCH  12  18
BRANCH  13  20
ATOM     20  C   UNL     1      34.253  -5.271 -26.182  0.00  0.00    +0.169 C 
BRANCH  20  21
ATOM     21  O   UNL     1      33.979  -4.885 -27.517  0.00  0.00    -0.379 OA
ATOM     22  H   UNL     1      33.603  -5.637 -28.001  0.00  0.00    +0.211 HD
ENDBRANCH  20  21
ENDBRANCH  13  20
ENDBRANCH   1  11
BRANCH   4  23
ATOM     23  C   UNL     1      31.361 -10.892 -22.029  0.00  0.00    +0.059 C 
BRANCH  23  25
ATOM     24  S   UNL     1      32.610 -13.386 -22.015  0.00  0.00    -0.091 S 
ATOM     25  C   UNL     1      32.448 -11.783 -22.595  0.00  0.00    +0.012 C 
ATOM     26  C   UNL     1      33.381 -11.487 -23.563  0.00  0.00    +0.003 C 
ATOM     27  C   UNL     1      33.932 -13.688 -23.060  0.00  0.00    +0.029 C 
ATOM     28  C   UNL     1      34.242 -12.591 -23.833  0.00  0.00    +0.007 C 
BRANCH  27  30
ATOM     29  F   UNL     1      36.362 -18.702 -22.952  0.00  0.00    -0.204 F 
ATOM     30  C   UNL     1      34.562 -14.987 -23.032  0.00  0.00    +0.006 C 
ATOM     31  C   UNL     1      34.899 -15.573 -21.812  0.00  0.00    +0.003 C 
ATOM     32  C   UNL     1      34.833 -15.657 -24.226  0.00  0.00    +0.003 C 
ATOM     33  C   UNL     1      35.507 -16.828 -21.785  0.00  0.00    +0.030 C 
ATOM     34  C   UNL     1      35.441 -16.911 -24.198  0.00  0.00    +0.030 C 
ATOM     35  C   UNL     1      35.778 -17.497 -22.978  0.00  0.00    +0.140 C 
ENDBRANCH  27  30
ENDBRANCH  23  25
ENDBRANCH   4  23
TORSDOF 9
ENDMDL
MODEL 7
REMARK VINA RESULT:     -10.4     12.230     16.267
REMARK  Name = 24812758
REMARK  9 active torsions:
REMARK  status: ('A' for Active; 'I' for Inactive)
REMARK    1  A    between atoms: C_1  and  C_11
REMARK    2  A    between atoms: C_4  and  C_23
REMARK    3  A    between atoms: C_9  and  O_14
REMARK    4  A    between atoms: C_10  and  O_16
REMARK    5  A    between atoms: C_12  and  O_18
REMARK    6  A    between atoms: C_13  and  C_20
REMARK    7  A    between atoms: C_20  and  O_21
REMARK    8  A    between atoms: C_23  and  C_25
REMARK    9  A    between atoms: C_27  and  C_30
REMARK                            x       y       z     vdW  Elec       q    Type
REMARK                         _______ _______ _______ _____ _____    ______ ____
ROOT
ATOM      1  C   UNL     1      32.781  -7.504 -21.694  0.00  0.00    +0.007 C 
ATOM      2  C   UNL     1      32.307  -8.668 -22.298  0.00  0.00    -0.006 C 
ATOM      3  C   UNL     1      32.869  -7.425 -20.304  0.00  0.00    -0.002 C 
ATOM      4  C   UNL     1      31.919  -9.753 -21.513  0.00  0.00    -0.021 C 
ATOM      5  C   UNL     1      32.006  -9.674 -20.123  0.00  0.00    -0.025 C 
ATOM      6  C   UNL     1      32.481  -8.510 -19.519  0.00  0.00    -0.005 C 
ATOM      7  C   UNL     1      31.598 -10.823 -19.260  0.00  0.00    +0.031 C 
ENDROOT
BRANCH   1  11
ATOM      8  O   UNL     1      32.019  -5.604 -22.908  0.00  0.00    -0.347 OA
ATOM      9  C   UNL     1      33.975  -6.767 -23.800  0.00  0.00    +0.171 C 
ATOM     10  C   UNL     1      34.249  -5.578 -24.725  0.00  0.00    +0.169 C 
ATOM     11  C   UNL     1      33.203  -6.324 -22.548  0.00  0.00    +0.167 C 
ATOM     12  C   UNL     1      32.982  -4.758 -24.966  0.00  0.00    +0.169 C 
ATOM     13  C   UNL     1      32.300  -4.411 -23.642  0.00  0.00    +0.174 C 
BRANCH   9  14
ATOM     14  O   UNL     1      35.219  -7.334 -23.392  0.00  0.00    -0.379 OA
ATOM     15  H   UNL     1      35.274  -8.252 -23.703  0.00  0.00    +0.211 HD
ENDBRANCH   9  14
BRANCH  10  16
ATOM     16  O   UNL     1      34.712  -6.057 -25.989  0.00  0.00    -0.379 OA
ATOM     17  H   UNL     1      35.197  -5.352 -26.445  0.00  0.00    +0.211 HD
ENDBRANCH  10  16
BRANCH  12  18
ATOM     18  O   UNL     1      33.324  -3.554 -25.648  0.00  0.00    -0.379 OA
ATOM     19  H   UNL     1      32.516  -3.048 -25.833  0.00  0.00    +0.211 HD
ENDBRANCH  12  18
BRANCH  13  20
ATOM     20  C   UNL     1      30.975  -3.687 -23.861  0.00  0.00    +0.169 C 
BRANCH  20  21
ATOM     21  O   UNL     1      30.496  -3.234 -22.607  0.00  0.00    -0.379 OA
ATOM     22  H   UNL     1      30.249  -3.997 -22.061  0.00  0.00    +0.211 HD
ENDBRANCH  20  21
ENDBRANCH  13  20
ENDBRANCH   1  11
BRANCH   4  23
ATOM     23  C   UNL     1      31.415 -10.990 -22.182  0.00  0.00    +0.059 C 
BRANCH  23  25
ATOM     24  S   UNL     1      32.649 -13.486 -22.019  0.00  0.00    -0.091 S 
ATOM     25  C   UNL     1      32.512 -11.910 -22.675  0.00  0.00    +0.012 C 
ATOM     26  C   UNL     1      33.474 -11.662 -23.630  0.00  0.00    +0.003 C 
ATOM     27  C   UNL     1      33.998 -13.840 -23.012  0.00  0.00    +0.029 C 
ATOM     28  C   UNL     1      34.335 -12.781 -23.825  0.00  0.00    +0.007 C 
BRANCH  27  30
ATOM     29  F   UNL     1      36.396 -18.855 -22.610  0.00  0.00    -0.204 F 
ATOM     30  C   UNL     1      34.619 -15.140 -22.907  0.00  0.00    +0.006 C 
ATOM     31  C   UNL     1      34.957 -15.846 -24.062  0.00  0.00    +0.003 C 
ATOM     32  C   UNL     1      34.882 -15.689 -21.652  0.00  0.00    +0.003 C 
ATOM     33  C   UNL     1      35.557 -17.101 -23.962  0.00  0.00    +0.030 C 
ATOM     34  C   UNL     1      35.482 -16.944 -21.552  0.00  0.00    +0.030 C 
ATOM     35  C   UNL     1      35.820 -17.650 -22.707  0.00  0.00    +0.140 C 
ENDBRANCH  27  30
ENDBRANCH  23  25
ENDBRANCH   4  23
TORSDOF 9
ENDMDL
MODEL 8
REMARK VINA RESULT:     -10.0      2.657      5.247
REMARK  Name = 24812758
REMARK  9 active torsions:
REMARK  status: ('A' for Active; 'I' for Inactive)
REMARK    1  A    between atoms: C_1  and  C_11
REMARK    2  A    between atoms: C_4  and  C_23
REMARK    3  A    between atoms: C_9  and  O_14
REMARK    4  A    between atoms: C_10  and  O_16
REMARK    5  A    between atoms: C_12  and  O_18
REMARK    6  A    between atoms: C_13  and  C_20
REMARK    7  A    between atoms: C_20  and  O_21
REMARK    8  A    between atoms: C_23  and  C_25
REMARK    9  A    between atoms: C_27  and  C_30
REMARK                            x       y       z     vdW  Elec       q    Type
REMARK                         _______ _______ _______ _____ _____    ______ ____
ROOT
ATOM      1  C   UNL     1      35.014 -24.298 -15.329  0.00  0.00    +0.007 C 
ATOM      2  C   UNL     1      35.589 -23.263 -16.066  0.00  0.00    -0.006 C 
ATOM      3  C   UNL     1      35.828 -25.246 -14.707  0.00  0.00    -0.002 C 
ATOM      4  C   UNL     1      36.975 -23.174 -16.182  0.00  0.00    -0.021 C 
ATOM      5  C   UNL     1      37.789 -24.122 -15.559  0.00  0.00    -0.025 C 
ATOM      6  C   UNL     1      37.214 -25.157 -14.823  0.00  0.00    -0.005 C 
ATOM      7  C   UNL     1      39.276 -24.048 -15.668  0.00  0.00    +0.031 C 
ENDROOT
BRANCH   1  11
ATOM      8  O   UNL     1      32.933 -23.469 -16.134  0.00  0.00    -0.347 OA
ATOM      9  C   UNL     1      33.028 -24.099 -13.775  0.00  0.00    +0.171 C 
ATOM     10  C   UNL     1      31.499 -24.043 -13.708  0.00  0.00    +0.169 C 
ATOM     11  C   UNL     1      33.507 -24.395 -15.204  0.00  0.00    +0.167 C 
ATOM     12  C   UNL     1      30.927 -23.154 -14.810  0.00  0.00    +0.169 C 
ATOM     13  C   UNL     1      31.508 -23.536 -16.173  0.00  0.00    +0.174 C 
BRANCH   9  14
ATOM     14  O   UNL     1      33.493 -25.138 -12.913  0.00  0.00    -0.379 OA
ATOM     15  H   UNL     1      32.955 -25.153 -12.106  0.00  0.00    +0.211 HD
ENDBRANCH   9  14
BRANCH  10  16
ATOM     16  O   UNL     1      31.099 -23.499 -12.449  0.00  0.00    -0.379 OA
ATOM     17  H   UNL     1      30.553 -22.711 -12.596  0.00  0.00    +0.211 HD
ENDBRANCH  10  16
BRANCH  12  18
ATOM     18  O   UNL     1      29.510 -23.301 -14.846  0.00  0.00    -0.379 OA
ATOM     19  H   UNL     1      29.237 -23.593 -15.730  0.00  0.00    +0.211 HD
ENDBRANCH  12  18
BRANCH  13  20
ATOM     20  C   UNL     1      31.035 -22.592 -17.274  0.00  0.00    +0.169 C 
BRANCH  20  21
ATOM     21  O   UNL     1      29.622 -22.659 -17.350  0.00  0.00    -0.379 OA
ATOM     22  H   UNL     1      29.283 -23.190 -16.613  0.00  0.00    +0.211 HD
ENDBRANCH  20  21
ENDBRANCH  13  20
ENDBRANCH   1  11
BRANCH   4  23
ATOM     23  C   UNL     1      37.568 -22.057 -16.975  0.00  0.00    +0.059 C 
BRANCH  23  25
ATOM     24  S   UNL     1      37.305 -20.413 -19.214  0.00  0.00    -0.091 S 
ATOM     25  C   UNL     1      36.790 -21.718 -18.230  0.00  0.00    +0.012 C 
ATOM     26  C   UNL     1      35.668 -22.335 -18.736  0.00  0.00    +0.003 C 
ATOM     27  C   UNL     1      36.024 -20.671 -20.319  0.00  0.00    +0.029 C 
ATOM     28  C   UNL     1      35.223 -21.729 -19.947  0.00  0.00    +0.007 C 
BRANCH  27  30
ATOM     29  F   UNL     1      35.583 -17.331 -24.759  0.00  0.00    -0.204 F 
ATOM     30  C   UNL     1      35.909 -19.806 -21.470  0.00  0.00    +0.006 C 
ATOM     31  C   UNL     1      36.912 -18.875 -21.745  0.00  0.00    +0.003 C 
ATOM     32  C   UNL     1      34.796 -19.899 -22.306  0.00  0.00    +0.003 C 
ATOM     33  C   UNL     1      36.802 -18.040 -22.856  0.00  0.00    +0.030 C 
ATOM     34  C   UNL     1      34.687 -19.064 -23.417  0.00  0.00    +0.030 C 
ATOM     35  C   UNL     1      35.689 -18.133 -23.692  0.00  0.00    +0.140 C 
ENDBRANCH  27  30
ENDBRANCH  23  25
ENDBRANCH   4  23
TORSDOF 9
ENDMDL
MODEL 9
REMARK VINA RESULT:      -9.8      2.080      3.565
REMARK  Name = 24812758
REMARK  9 active torsions:
REMARK  status: ('A' for Active; 'I' for Inactive)
REMARK    1  A    between atoms: C_1  and  C_11
REMARK    2  A    between atoms: C_4  and  C_23
REMARK    3  A    between atoms: C_9  and  O_14
REMARK    4  A    between atoms: C_10  and  O_16
REMARK    5  A    between atoms: C_12  and  O_18
REMARK    6  A    between atoms: C_13  and  C_20
REMARK    7  A    between atoms: C_20  and  O_21
REMARK    8  A    between atoms: C_23  and  C_25
REMARK    9  A    between atoms: C_27  and  C_30
REMARK                            x       y       z     vdW  Elec       q    Type
REMARK                         _______ _______ _______ _____ _____    ______ ____
ROOT
ATOM      1  C   UNL     1      35.152 -22.887 -16.763  0.00  0.00    +0.007 C 
ATOM      2  C   UNL     1      35.771 -22.676 -17.995  0.00  0.00    -0.006 C 
ATOM      3  C   UNL     1      33.763 -22.808 -16.657  0.00  0.00    -0.002 C 
ATOM      4  C   UNL     1      35.002 -22.385 -19.122  0.00  0.00    -0.021 C 
ATOM      5  C   UNL     1      33.613 -22.306 -19.016  0.00  0.00    -0.025 C 
ATOM      6  C   UNL     1      32.994 -22.517 -17.783  0.00  0.00    -0.005 C 
ATOM      7  C   UNL     1      32.767 -21.997 -20.207  0.00  0.00    +0.031 C 
ENDROOT
BRANCH   1  11
ATOM      8  O   UNL     1      37.179 -23.862 -15.984  0.00  0.00    -0.347 OA
ATOM      9  C   UNL     1      35.226 -24.076 -14.530  0.00  0.00    +0.171 C 
ATOM     10  C   UNL     1      36.139 -24.515 -13.383  0.00  0.00    +0.169 C 
ATOM     11  C   UNL     1      35.989 -23.203 -15.539  0.00  0.00    +0.167 C 
ATOM     12  C   UNL     1      37.457 -25.082 -13.907  0.00  0.00    +0.169 C 
ATOM     13  C   UNL     1      38.094 -24.129 -14.921  0.00  0.00    +0.174 C 
BRANCH   9  14
ATOM     14  O   UNL     1      34.142 -23.315 -13.997  0.00  0.00    -0.379 OA
ATOM     15  H   UNL     1      34.489 -22.631 -13.403  0.00  0.00    +0.211 HD
ENDBRANCH   9  14
BRANCH  10  16
ATOM     16  O   UNL     1      35.490 -25.536 -12.623  0.00  0.00    -0.379 OA
ATOM     17  H   UNL     1      36.046 -25.779 -11.866  0.00  0.00    +0.211 HD
ENDBRANCH  10  16
BRANCH  12  18
ATOM     18  O   UNL     1      38.354 -25.275 -12.816  0.00  0.00    -0.379 OA
ATOM     19  H   UNL     1      39.268 -25.170 -13.127  0.00  0.00    +0.211 HD
ENDBRANCH  12  18
BRANCH  13  20
ATOM     20  C   UNL     1      39.355 -24.723 -15.540  0.00  0.00    +0.169 C 
BRANCH  20  21
ATOM     21  O   UNL     1      39.265 -26.135 -15.481  0.00  0.00    -0.379 OA
ATOM     22  H   UNL     1      39.506 -26.511 -16.342  0.00  0.00    +0.211 HD
ENDBRANCH  20  21
ENDBRANCH  13  20
ENDBRANCH   1  11
BRANCH   4  23
ATOM     23  C   UNL     1      35.686 -22.164 -20.430  0.00  0.00    +0.059 C 
BRANCH  23  25
ATOM     24  S   UNL     1      34.917 -19.725 -21.543  0.00  0.00    -0.091 S 
ATOM     25  C   UNL     1      36.033 -20.715 -20.702  0.00  0.00    +0.012 C 
ATOM     26  C   UNL     1      37.174 -20.027 -20.354  0.00  0.00    +0.003 C 
ATOM     27  C   UNL     1      35.961 -18.371 -21.444  0.00  0.00    +0.029 C 
ATOM     28  C   UNL     1      37.133 -18.669 -20.784  0.00  0.00    +0.007 C 
BRANCH  27  30
ATOM     29  F   UNL     1      34.334 -13.542 -23.701  0.00  0.00    -0.204 F 
ATOM     30  C   UNL     1      35.539 -17.120 -22.029  0.00  0.00    +0.006 C 
ATOM     31  C   UNL     1      35.068 -16.092 -21.212  0.00  0.00    +0.003 C 
ATOM     32  C   UNL     1      35.603 -16.939 -23.411  0.00  0.00    +0.003 C 
ATOM     33  C   UNL     1      34.662 -14.883 -21.776  0.00  0.00    +0.030 C 
ATOM     34  C   UNL     1      35.196 -15.731 -23.975  0.00  0.00    +0.030 C 
ATOM     35  C   UNL     1      34.725 -14.702 -23.158  0.00  0.00    +0.140 C 
ENDBRANCH  27  30
ENDBRANCH  23  25
ENDBRANCH   4  23
TORSDOF 9
ENDMDL
