MODEL 1
REMARK VINA RESULT:     -11.1      0.000      0.000
REMARK  Name = 657140
REMARK  9 active torsions:
REMARK  status: ('A' for Active; 'I' for Inactive)
REMARK    1  A    between atoms: C_1  and  N_8
REMARK    2  A    between atoms: C_2  and  O_20
REMARK    3  A    between atoms: C_9  and  C_11
REMARK    4  A    between atoms: C_14  and  N_19
REMARK    5  A    between atoms: O_20  and  C_21
REMARK    6  A    between atoms: C_22  and  C_28
REMARK    7  A    between atoms: C_24  and  C_32
REMARK    8  A    between atoms: C_28  and  O_29
REMARK    9  A    between atoms: C_32  and  O_33
REMARK                            x       y       z     vdW  Elec       q    Type
REMARK                         _______ _______ _______ _____ _____    ______ ____
ROOT
ATOM      1  C   UNL     1      36.226 -25.311 -14.997  0.00  0.00    +0.086 C 
ATOM      2  C   UNL     1      37.099 -24.236 -15.036  0.00  0.00    +0.159 C 
ATOM      3  C   UNL     1      36.688 -26.612 -14.883  0.00  0.00    +0.018 C 
ATOM      4  C   UNL     1      38.472 -24.470 -14.962  0.00  0.00    +0.039 C 
ATOM      5  C   UNL     1      38.061 -26.846 -14.809  0.00  0.00    +0.001 C 
ATOM      6  C   UNL     1      38.953 -25.773 -14.848  0.00  0.00    +0.003 C 
ENDROOT
BRANCH   1   8
ATOM      7  O   UNL     1      34.281 -24.483 -12.870  0.00  0.00    -0.270 OA
ATOM      8  N   UNL     1      34.829 -25.091 -15.069  0.00  0.00    -0.278 N 
ATOM      9  C   UNL     1      33.952 -24.703 -14.047  0.00  0.00    +0.250 C 
ATOM     10  H   UNL     1      34.420 -25.229 -15.954  0.00  0.00    +0.155 HD
BRANCH   9  11
ATOM     11  C   UNL     1      32.552 -24.584 -14.422  0.00  0.00    +0.055 C 
ATOM     12  C   UNL     1      32.181 -23.739 -15.468  0.00  0.00    +0.029 C 
ATOM     13  C   UNL     1      31.581 -25.316 -13.739  0.00  0.00    +0.005 C 
ATOM     14  C   UNL     1      30.838 -23.626 -15.830  0.00  0.00    +0.143 C 
ATOM     15  C   UNL     1      30.239 -25.203 -14.100  0.00  0.00    +0.002 C 
ATOM     16  C   UNL     1      29.868 -24.358 -15.146  0.00  0.00    +0.024 C 
BRANCH  14  19
ATOM     17  O   UNL     1      31.352 -22.267 -17.621  0.00  0.00    -0.126 OA
ATOM     18  O   UNL     1      29.241 -22.531 -17.082  0.00  0.00    -0.126 OA
ATOM     19  N   UNL     1      30.459 -22.767 -16.895  0.00  0.00    +0.058 N 
ENDBRANCH  14  19
ENDBRANCH   9  11
ENDBRANCH   1   8
BRANCH   2  20
ATOM     20  O   UNL     1      36.650 -22.954 -15.146  0.00  0.00    -0.452 OA
BRANCH  20  21
ATOM     21  C   UNL     1      36.546 -22.418 -16.419  0.00  0.00    +0.146 C 
ATOM     22  C   UNL     1      35.370 -22.233 -18.498  0.00  0.00    +0.085 C 
ATOM     23  C   UNL     1      35.474 -22.774 -17.217  0.00  0.00    +0.044 C 
ATOM     24  C   UNL     1      36.341 -21.344 -18.961  0.00  0.00    +0.082 C 
ATOM     25  C   UNL     1      37.519 -21.538 -16.860  0.00  0.00    +0.038 C 
ATOM     26  C   UNL     1      37.415 -20.997 -18.141  0.00  0.00    +0.010 C 
BRANCH  22  28
ATOM     27  O   UNL     1      34.087 -23.715 -19.867  0.00  0.00    -0.245 OA
ATOM     28  C   UNL     1      34.236 -22.615 -19.329  0.00  0.00    +0.338 C 
BRANCH  28  29
ATOM     29  O   UNL     1      33.327 -21.613 -19.459  0.00  0.00    -0.477 OA
ATOM     30  H   UNL     1      32.599 -21.713 -20.040  0.00  0.00    +0.295 HD
ENDBRANCH  28  29
ENDBRANCH  22  28
BRANCH  24  32
ATOM     31  O   UNL     1      35.552 -21.180 -21.214  0.00  0.00    -0.245 OA
ATOM     32  C   UNL     1      36.261 -20.762 -20.293  0.00  0.00    +0.338 C 
BRANCH  32  33
ATOM     33  O   UNL     1      37.070 -19.678 -20.434  0.00  0.00    -0.477 OA
ATOM     34  H   UNL     1      37.854 -19.740 -20.942  0.00  0.00    +0.295 HD
ENDBRANCH  32  33
ENDBRANCH  24  32
ENDBRANCH  20  21
ENDBRANCH   2  20
TORSDOF 9
ENDMDL
MODEL 2
REMARK VINA RESULT:     -11.1      2.565      7.262
REMARK  Name = 657140
REMARK  9 active torsions:
REMARK  status: ('A' for Active; 'I' for Inactive)
REMARK    1  A    between atoms: C_1  and  N_8
REMARK    2  A    between atoms: C_2  and  O_20
REMARK    3  A    between atoms: C_9  and  C_11
REMARK    4  A    between atoms: C_14  and  N_19
REMARK    5  A    between atoms: O_20  and  C_21
REMARK    6  A    between atoms: C_22  and  C_28
REMARK    7  A    between atoms: C_24  and  C_32
REMARK    8  A    between atoms: C_28  and  O_29
REMARK    9  A    between atoms: C_32  and  O_33
REMARK                            x       y       z     vdW  Elec       q    Type
REMARK                         _______ _______ _______ _____ _____    ______ ____
ROOT
ATOM      1  C   UNL     1      32.228 -23.214 -16.662  0.00  0.00    +0.086 C 
ATOM      2  C   UNL     1      32.999 -23.462 -15.538  0.00  0.00    +0.159 C 
ATOM      3  C   UNL     1      30.949 -23.730 -16.789  0.00  0.00    +0.018 C 
ATOM      4  C   UNL     1      32.476 -24.251 -14.513  0.00  0.00    +0.039 C 
ATOM      5  C   UNL     1      30.426 -24.519 -15.764  0.00  0.00    +0.001 C 
ATOM      6  C   UNL     1      31.190 -24.779 -14.626  0.00  0.00    +0.003 C 
ENDROOT
BRANCH   1   8
ATOM      7  O   UNL     1      34.002 -23.946 -18.965  0.00  0.00    -0.270 OA
ATOM      8  N   UNL     1      32.744 -22.413 -17.711  0.00  0.00    -0.278 N 
ATOM      9  C   UNL     1      33.575 -22.797 -18.774  0.00  0.00    +0.250 C 
ATOM     10  H   UNL     1      32.486 -21.463 -17.691  0.00  0.00    +0.155 HD
BRANCH   9  11
ATOM     11  C   UNL     1      33.966 -21.735 -19.688  0.00  0.00    +0.055 C 
ATOM     12  C   UNL     1      35.285 -21.281 -19.705  0.00  0.00    +0.029 C 
ATOM     13  C   UNL     1      33.023 -21.173 -20.548  0.00  0.00    +0.005 C 
ATOM     14  C   UNL     1      35.661 -20.264 -20.583  0.00  0.00    +0.143 C 
ATOM     15  C   UNL     1      33.398 -20.156 -21.426  0.00  0.00    +0.002 C 
ATOM     16  C   UNL     1      34.717 -19.702 -21.443  0.00  0.00    +0.024 C 
BRANCH  14  19
ATOM     17  O   UNL     1      37.651 -19.771 -19.529  0.00  0.00    -0.126 OA
ATOM     18  O   UNL     1      37.505 -19.438 -21.694  0.00  0.00    -0.126 OA
ATOM     19  N   UNL     1      37.003 -19.802 -20.603  0.00  0.00    +0.058 N 
ENDBRANCH  14  19
ENDBRANCH   9  11
ENDBRANCH   1   8
BRANCH   2  20
ATOM     20  O   UNL     1      34.257 -22.955 -15.408  0.00  0.00    -0.452 OA
BRANCH  20  21
ATOM     21  C   UNL     1      35.210 -23.753 -14.797  0.00  0.00    +0.146 C 
ATOM     22  C   UNL     1      36.775 -24.117 -13.020  0.00  0.00    +0.085 C 
ATOM     23  C   UNL     1      35.816 -23.312 -13.634  0.00  0.00    +0.044 C 
ATOM     24  C   UNL     1      37.113 -25.349 -13.578  0.00  0.00    +0.082 C 
ATOM     25  C   UNL     1      35.532 -24.972 -15.366  0.00  0.00    +0.038 C 
ATOM     26  C   UNL     1      36.492 -25.777 -14.751  0.00  0.00    +0.010 C 
BRANCH  22  28
ATOM     27  O   UNL     1      38.360 -22.861 -11.742  0.00  0.00    -0.245 OA
ATOM     28  C   UNL     1      37.406 -23.641 -11.796  0.00  0.00    +0.338 C 
BRANCH  28  29
ATOM     29  O   UNL     1      36.824 -24.154 -10.679  0.00  0.00    -0.477 OA
ATOM     30  H   UNL     1      35.894 -24.265 -10.644  0.00  0.00    +0.295 HD
ENDBRANCH  28  29
ENDBRANCH  22  28
BRANCH  24  32
ATOM     31  O   UNL     1      39.264 -26.377 -13.372  0.00  0.00    -0.245 OA
ATOM     32  C   UNL     1      38.111 -26.212 -12.961  0.00  0.00    +0.338 C 
BRANCH  32  33
ATOM     33  O   UNL     1      37.637 -26.841 -11.852  0.00  0.00    -0.477 OA
ATOM     34  H   UNL     1      37.019 -27.539 -11.938  0.00  0.00    +0.295 HD
ENDBRANCH  32  33
ENDBRANCH  24  32
ENDBRANCH  20  21
ENDBRANCH   2  20
TORSDOF 9
ENDMDL
MODEL 3
REMARK VINA RESULT:     -10.7      2.620      7.215
REMARK  Name = 657140
REMARK  9 active torsions:
REMARK  status: ('A' for Active; 'I' for Inactive)
REMARK    1  A    between atoms: C_1  and  N_8
REMARK    2  A    between atoms: C_2  and  O_20
REMARK    3  A    between atoms: C_9  and  C_11
REMARK    4  A    between atoms: C_14  and  N_19
REMARK    5  A    between atoms: O_20  and  C_21
REMARK    6  A    between atoms: C_22  and  C_28
REMARK    7  A    between atoms: C_24  and  C_32
REMARK    8  A    between atoms: C_28  and  O_29
REMARK    9  A    between atoms: C_32  and  O_33
REMARK                            x       y       z     vdW  Elec       q    Type
REMARK                         _______ _______ _______ _____ _____    ______ ____
ROOT
ATOM      1  C   UNL     1      32.872 -23.102 -16.900  0.00  0.00    +0.086 C 
ATOM      2  C   UNL     1      33.364 -24.173 -16.174  0.00  0.00    +0.159 C 
ATOM      3  C   UNL     1      31.541 -22.726 -16.820  0.00  0.00    +0.018 C 
ATOM      4  C   UNL     1      32.501 -24.891 -15.347  0.00  0.00    +0.039 C 
ATOM      5  C   UNL     1      30.677 -23.443 -15.993  0.00  0.00    +0.001 C 
ATOM      6  C   UNL     1      31.158 -24.526 -15.255  0.00  0.00    +0.003 C 
ENDROOT
BRANCH   1   8
ATOM      7  O   UNL     1      33.845 -23.693 -19.674  0.00  0.00    -0.270 OA
ATOM      8  N   UNL     1      33.736 -22.362 -17.745  0.00  0.00    -0.278 N 
ATOM      9  C   UNL     1      34.168 -22.675 -19.041  0.00  0.00    +0.250 C 
ATOM     10  H   UNL     1      34.078 -21.517 -17.372  0.00  0.00    +0.155 HD
BRANCH   9  11
ATOM     11  C   UNL     1      35.086 -21.726 -19.651  0.00  0.00    +0.055 C 
ATOM     12  C   UNL     1      34.638 -20.877 -20.663  0.00  0.00    +0.029 C 
ATOM     13  C   UNL     1      36.411 -21.662 -19.222  0.00  0.00    +0.005 C 
ATOM     14  C   UNL     1      35.518 -19.964 -21.246  0.00  0.00    +0.143 C 
ATOM     15  C   UNL     1      37.291 -20.751 -19.805  0.00  0.00    +0.002 C 
ATOM     16  C   UNL     1      36.844 -19.902 -20.818  0.00  0.00    +0.024 C 
BRANCH  14  19
ATOM     17  O   UNL     1      34.473 -19.589 -23.268  0.00  0.00    -0.126 OA
ATOM     18  O   UNL     1      35.265 -17.864 -22.166  0.00  0.00    -0.126 OA
ATOM     19  N   UNL     1      35.064 -19.098 -22.276  0.00  0.00    +0.058 N 
ENDBRANCH  14  19
ENDBRANCH   9  11
ENDBRANCH   1   8
BRANCH   2  20
ATOM     20  O   UNL     1      34.673 -24.546 -16.248  0.00  0.00    -0.452 OA
BRANCH  20  21
ATOM     21  C   UNL     1      35.498 -24.204 -15.190  0.00  0.00    +0.146 C 
ATOM     22  C   UNL     1      36.318 -24.636 -12.981  0.00  0.00    +0.085 C 
ATOM     23  C   UNL     1      35.486 -24.981 -14.045  0.00  0.00    +0.044 C 
ATOM     24  C   UNL     1      37.148 -23.520 -13.077  0.00  0.00    +0.082 C 
ATOM     25  C   UNL     1      36.315 -23.094 -15.305  0.00  0.00    +0.038 C 
ATOM     26  C   UNL     1      37.147 -22.749 -14.240  0.00  0.00    +0.010 C 
BRANCH  22  28
ATOM     27  O   UNL     1      35.576 -25.270 -10.797  0.00  0.00    -0.245 OA
ATOM     28  C   UNL     1      36.296 -25.462 -11.781  0.00  0.00    +0.338 C 
BRANCH  28  29
ATOM     29  O   UNL     1      37.171 -26.500 -11.849  0.00  0.00    -0.477 OA
ATOM     30  H   UNL     1      37.845 -26.587 -11.204  0.00  0.00    +0.295 HD
ENDBRANCH  28  29
ENDBRANCH  22  28
BRANCH  24  32
ATOM     31  O   UNL     1      39.206 -23.481 -11.857  0.00  0.00    -0.245 OA
ATOM     32  C   UNL     1      38.028 -23.134 -11.983  0.00  0.00    +0.338 C 
BRANCH  32  33
ATOM     33  O   UNL     1      37.408 -22.327 -11.080  0.00  0.00    -0.477 OA
ATOM     34  H   UNL     1      36.556 -22.550 -10.760  0.00  0.00    +0.295 HD
ENDBRANCH  32  33
ENDBRANCH  24  32
ENDBRANCH  20  21
ENDBRANCH   2  20
TORSDOF 9
ENDMDL
MODEL 4
REMARK VINA RESULT:     -10.7      2.478      6.160
REMARK  Name = 657140
REMARK  9 active torsions:
REMARK  status: ('A' for Active; 'I' for Inactive)
REMARK    1  A    between atoms: C_1  and  N_8
REMARK    2  A    between atoms: C_2  and  O_20
REMARK    3  A    between atoms: C_9  and  C_11
REMARK    4  A    between atoms: C_14  and  N_19
REMARK    5  A    between atoms: O_20  and  C_21
REMARK    6  A    between atoms: C_22  and  C_28
REMARK    7  A    between atoms: C_24  and  C_32
REMARK    8  A    between atoms: C_28  and  O_29
REMARK    9  A    between atoms: C_32  and  O_33
REMARK                            x       y       z     vdW  Elec       q    Type
REMARK                         _______ _______ _______ _____ _____    ______ ____
ROOT
ATOM      1  C   UNL     1      33.983 -23.559 -15.852  0.00  0.00    +0.086 C 
ATOM      2  C   UNL     1      33.908 -23.166 -17.178  0.00  0.00    +0.159 C 
ATOM      3  C   UNL     1      32.845 -23.680 -15.070  0.00  0.00    +0.018 C 
ATOM      4  C   UNL     1      32.662 -22.884 -17.737  0.00  0.00    +0.039 C 
ATOM      5  C   UNL     1      31.599 -23.399 -15.629  0.00  0.00    +0.001 C 
ATOM      6  C   UNL     1      31.507 -23.001 -16.964  0.00  0.00    +0.003 C 
ENDROOT
BRANCH   1   8
ATOM      7  O   UNL     1      35.567 -26.104 -15.831  0.00  0.00    -0.270 OA
ATOM      8  N   UNL     1      35.241 -23.849 -15.269  0.00  0.00    -0.278 N 
ATOM      9  C   UNL     1      35.950 -25.059 -15.282  0.00  0.00    +0.250 C 
ATOM     10  H   UNL     1      35.673 -23.104 -14.792  0.00  0.00    +0.155 HD
BRANCH   9  11
ATOM     11  C   UNL     1      37.216 -25.059 -14.566  0.00  0.00    +0.055 C 
ATOM     12  C   UNL     1      38.341 -25.651 -15.140  0.00  0.00    +0.029 C 
ATOM     13  C   UNL     1      37.305 -24.466 -13.307  0.00  0.00    +0.005 C 
ATOM     14  C   UNL     1      39.556 -25.650 -14.454  0.00  0.00    +0.143 C 
ATOM     15  C   UNL     1      38.519 -24.466 -12.620  0.00  0.00    +0.002 C 
ATOM     16  C   UNL     1      39.644 -25.057 -13.194  0.00  0.00    +0.024 C 
BRANCH  14  19
ATOM     17  O   UNL     1      41.516 -26.855 -14.297  0.00  0.00    -0.126 OA
ATOM     18  O   UNL     1      40.872 -26.161 -16.277  0.00  0.00    -0.126 OA
ATOM     19  N   UNL     1      40.702 -26.250 -15.037  0.00  0.00    +0.058 N 
ENDBRANCH  14  19
ENDBRANCH   9  11
ENDBRANCH   1   8
BRANCH   2  20
ATOM     20  O   UNL     1      35.024 -23.047 -17.952  0.00  0.00    -0.452 OA
BRANCH  20  21
ATOM     21  C   UNL     1      35.011 -22.090 -18.953  0.00  0.00    +0.146 C 
ATOM     22  C   UNL     1      36.151 -20.416 -20.232  0.00  0.00    +0.085 C 
ATOM     23  C   UNL     1      36.166 -21.378 -19.223  0.00  0.00    +0.044 C 
ATOM     24  C   UNL     1      34.982 -20.181 -20.956  0.00  0.00    +0.082 C 
ATOM     25  C   UNL     1      33.841 -21.872 -19.660  0.00  0.00    +0.038 C 
ATOM     26  C   UNL     1      33.828 -20.909 -20.670  0.00  0.00    +0.010 C 
BRANCH  22  28
ATOM     27  O   UNL     1      37.854 -19.479 -21.626  0.00  0.00    -0.245 OA
ATOM     28  C   UNL     1      37.374 -19.673 -20.507  0.00  0.00    +0.338 C 
BRANCH  28  29
ATOM     29  O   UNL     1      37.956 -19.196 -19.374  0.00  0.00    -0.477 OA
ATOM     30  H   UNL     1      38.671 -19.658 -18.985  0.00  0.00    +0.295 HD
ENDBRANCH  28  29
ENDBRANCH  22  28
BRANCH  24  32
ATOM     31  O   UNL     1      34.752 -19.421 -23.212  0.00  0.00    -0.245 OA
ATOM     32  C   UNL     1      34.935 -19.183 -22.015  0.00  0.00    +0.338 C 
BRANCH  32  33
ATOM     33  O   UNL     1      35.118 -17.920 -21.545  0.00  0.00    -0.477 OA
ATOM     34  H   UNL     1      34.500 -17.247 -21.755  0.00  0.00    +0.295 HD
ENDBRANCH  32  33
ENDBRANCH  24  32
ENDBRANCH  20  21
ENDBRANCH   2  20
TORSDOF 9
ENDMDL
MODEL 5
REMARK VINA RESULT:     -10.7      2.600      6.569
REMARK  Name = 657140
REMARK  9 active torsions:
REMARK  status: ('A' for Active; 'I' for Inactive)
REMARK    1  A    between atoms: C_1  and  N_8
REMARK    2  A    between atoms: C_2  and  O_20
REMARK    3  A    between atoms: C_9  and  C_11
REMARK    4  A    between atoms: C_14  and  N_19
REMARK    5  A    between atoms: O_20  and  C_21
REMARK    6  A    between atoms: C_22  and  C_28
REMARK    7  A    between atoms: C_24  and  C_32
REMARK    8  A    between atoms: C_28  and  O_29
REMARK    9  A    between atoms: C_32  and  O_33
REMARK                            x       y       z     vdW  Elec       q    Type
REMARK                         _______ _______ _______ _____ _____    ______ ____
ROOT
ATOM      1  C   UNL     1      32.756 -23.217 -16.473  0.00  0.00    +0.086 C 
ATOM      2  C   UNL     1      33.601 -23.332 -15.381  0.00  0.00    +0.159 C 
ATOM      3  C   UNL     1      31.541 -23.882 -16.519  0.00  0.00    +0.018 C 
ATOM      4  C   UNL     1      33.222 -24.136 -14.307  0.00  0.00    +0.039 C 
ATOM      5  C   UNL     1      31.162 -24.687 -15.445  0.00  0.00    +0.001 C 
ATOM      6  C   UNL     1      32.003 -24.813 -14.338  0.00  0.00    +0.003 C 
ENDROOT
BRANCH   1   8
ATOM      7  O   UNL     1      34.102 -23.937 -19.053  0.00  0.00    -0.270 OA
ATOM      8  N   UNL     1      33.125 -22.402 -17.572  0.00  0.00    -0.278 N 
ATOM      9  C   UNL     1      33.757 -22.780 -18.765  0.00  0.00    +0.250 C 
ATOM     10  H   UNL     1      32.911 -21.445 -17.485  0.00  0.00    +0.155 HD
BRANCH   9  11
ATOM     11  C   UNL     1      34.036 -21.705 -19.703  0.00  0.00    +0.055 C 
ATOM     12  C   UNL     1      35.334 -21.212 -19.832  0.00  0.00    +0.029 C 
ATOM     13  C   UNL     1      33.006 -21.169 -20.476  0.00  0.00    +0.005 C 
ATOM     14  C   UNL     1      35.602 -20.181 -20.734  0.00  0.00    +0.143 C 
ATOM     15  C   UNL     1      33.273 -20.138 -21.377  0.00  0.00    +0.002 C 
ATOM     16  C   UNL     1      34.571 -19.645 -21.506  0.00  0.00    +0.024 C 
BRANCH  14  19
ATOM     17  O   UNL     1      37.642 -19.579 -19.844  0.00  0.00    -0.126 OA
ATOM     18  O   UNL     1      37.337 -19.350 -22.005  0.00  0.00    -0.126 OA
ATOM     19  N   UNL     1      36.923 -19.679 -20.867  0.00  0.00    +0.058 N 
ENDBRANCH  14  19
ENDBRANCH   9  11
ENDBRANCH   1   8
BRANCH   2  20
ATOM     20  O   UNL     1      34.795 -22.678 -15.330  0.00  0.00    -0.452 OA
BRANCH  20  21
ATOM     21  C   UNL     1      35.944 -23.446 -15.249  0.00  0.00    +0.146 C 
ATOM     22  C   UNL     1      37.011 -25.590 -15.328  0.00  0.00    +0.085 C 
ATOM     23  C   UNL     1      35.853 -24.817 -15.409  0.00  0.00    +0.044 C 
ATOM     24  C   UNL     1      38.242 -24.980 -15.087  0.00  0.00    +0.082 C 
ATOM     25  C   UNL     1      37.156 -22.822 -15.010  0.00  0.00    +0.038 C 
ATOM     26  C   UNL     1      38.314 -23.596 -14.928  0.00  0.00    +0.010 C 
BRANCH  22  28
ATOM     27  O   UNL     1      36.812 -27.618 -16.581  0.00  0.00    -0.245 OA
ATOM     28  C   UNL     1      36.902 -27.033 -15.498  0.00  0.00    +0.338 C 
BRANCH  28  29
ATOM     29  O   UNL     1      36.909 -27.697 -14.312  0.00  0.00    -0.477 OA
ATOM     30  H   UNL     1      37.285 -28.553 -14.257  0.00  0.00    +0.295 HD
ENDBRANCH  28  29
ENDBRANCH  22  28
BRANCH  24  32
ATOM     31  O   UNL     1      39.853 -26.370 -13.994  0.00  0.00    -0.245 OA
ATOM     32  C   UNL     1      39.468 -25.759 -14.996  0.00  0.00    +0.338 C 
BRANCH  32  33
ATOM     33  O   UNL     1      40.176 -25.750 -16.157  0.00  0.00    -0.477 OA
ATOM     34  H   UNL     1      39.762 -25.488 -16.956  0.00  0.00    +0.295 HD
ENDBRANCH  32  33
ENDBRANCH  24  32
ENDBRANCH  20  21
ENDBRANCH   2  20
TORSDOF 9
ENDMDL
MODEL 6
REMARK VINA RESULT:     -10.5      2.526      5.933
REMARK  Name = 657140
REMARK  9 active torsions:
REMARK  status: ('A' for Active; 'I' for Inactive)
REMARK    1  A    between atoms: C_1  and  N_8
REMARK    2  A    between atoms: C_2  and  O_20
REMARK    3  A    between atoms: C_9  and  C_11
REMARK    4  A    between atoms: C_14  and  N_19
REMARK    5  A    between atoms: O_20  and  C_21
REMARK    6  A    between atoms: C_22  and  C_28
REMARK    7  A    between atoms: C_24  and  C_32
REMARK    8  A    between atoms: C_28  and  O_29
REMARK    9  A    between atoms: C_32  and  O_33
REMARK                            x       y       z     vdW  Elec       q    Type
REMARK                         _______ _______ _______ _____ _____    ______ ____
ROOT
ATOM      1  C   UNL     1      33.968 -23.557 -15.700  0.00  0.00    +0.086 C 
ATOM      2  C   UNL     1      33.883 -23.304 -17.059  0.00  0.00    +0.159 C 
ATOM      3  C   UNL     1      32.850 -23.497 -14.883  0.00  0.00    +0.018 C 
ATOM      4  C   UNL     1      32.647 -22.981 -17.617  0.00  0.00    +0.039 C 
ATOM      5  C   UNL     1      31.614 -23.173 -15.441  0.00  0.00    +0.001 C 
ATOM      6  C   UNL     1      31.512 -22.915 -16.809  0.00  0.00    +0.003 C 
ENDROOT
BRANCH   1   8
ATOM      7  O   UNL     1      35.550 -26.100 -15.825  0.00  0.00    -0.270 OA
ATOM      8  N   UNL     1      35.216 -23.889 -15.118  0.00  0.00    -0.278 N 
ATOM      9  C   UNL     1      35.925 -25.095 -15.200  0.00  0.00    +0.250 C 
ATOM     10  H   UNL     1      35.641 -23.178 -14.584  0.00  0.00    +0.155 HD
BRANCH   9  11
ATOM     11  C   UNL     1      37.179 -25.147 -14.466  0.00  0.00    +0.055 C 
ATOM     12  C   UNL     1      38.318 -25.680 -15.068  0.00  0.00    +0.029 C 
ATOM     13  C   UNL     1      37.242 -24.660 -13.160  0.00  0.00    +0.005 C 
ATOM     14  C   UNL     1      39.522 -25.727 -14.363  0.00  0.00    +0.143 C 
ATOM     15  C   UNL     1      38.445 -24.708 -12.455  0.00  0.00    +0.002 C 
ATOM     16  C   UNL     1      39.584 -25.242 -13.057  0.00  0.00    +0.024 C 
BRANCH  14  19
ATOM     17  O   UNL     1      40.855 -26.102 -16.207  0.00  0.00    -0.126 OA
ATOM     18  O   UNL     1      41.505 -26.899 -14.268  0.00  0.00    -0.126 OA
ATOM     19  N   UNL     1      40.683 -26.269 -14.975  0.00  0.00    +0.058 N 
ENDBRANCH  14  19
ENDBRANCH   9  11
ENDBRANCH   1   8
BRANCH   2  20
ATOM     20  O   UNL     1      34.980 -23.364 -17.867  0.00  0.00    -0.452 OA
BRANCH  20  21
ATOM     21  C   UNL     1      35.153 -22.345 -18.788  0.00  0.00    +0.146 C 
ATOM     22  C   UNL     1      34.227 -20.814 -20.381  0.00  0.00    +0.085 C 
ATOM     23  C   UNL     1      34.050 -21.841 -19.454  0.00  0.00    +0.044 C 
ATOM     24  C   UNL     1      35.503 -20.309 -20.629  0.00  0.00    +0.082 C 
ATOM     25  C   UNL     1      36.427 -21.857 -19.020  0.00  0.00    +0.038 C 
ATOM     26  C   UNL     1      36.603 -20.831 -19.948  0.00  0.00    +0.010 C 
BRANCH  22  28
ATOM     27  O   UNL     1      32.968 -20.125 -22.295  0.00  0.00    -0.245 OA
ATOM     28  C   UNL     1      33.057 -20.291 -21.075  0.00  0.00    +0.338 C 
BRANCH  28  29
ATOM     29  O   UNL     1      32.039 -19.994 -20.225  0.00  0.00    -0.477 OA
ATOM     30  H   UNL     1      31.234 -20.471 -20.273  0.00  0.00    +0.295 HD
ENDBRANCH  28  29
ENDBRANCH  22  28
BRANCH  24  32
ATOM     31  O   UNL     1      35.869 -18.045 -21.311  0.00  0.00    -0.245 OA
ATOM     32  C   UNL     1      35.720 -19.238 -21.592  0.00  0.00    +0.338 C 
BRANCH  32  33
ATOM     33  O   UNL     1      35.743 -19.692 -22.874  0.00  0.00    -0.477 OA
ATOM     34  H   UNL     1      35.650 -19.090 -23.586  0.00  0.00    +0.295 HD
ENDBRANCH  32  33
ENDBRANCH  24  32
ENDBRANCH  20  21
ENDBRANCH   2  20
TORSDOF 9
ENDMDL
MODEL 7
REMARK VINA RESULT:     -10.4      2.779      7.329
REMARK  Name = 657140
REMARK  9 active torsions:
REMARK  status: ('A' for Active; 'I' for Inactive)
REMARK    1  A    between atoms: C_1  and  N_8
REMARK    2  A    between atoms: C_2  and  O_20
REMARK    3  A    between atoms: C_9  and  C_11
REMARK    4  A    between atoms: C_14  and  N_19
REMARK    5  A    between atoms: O_20  and  C_21
REMARK    6  A    between atoms: C_22  and  C_28
REMARK    7  A    between atoms: C_24  and  C_32
REMARK    8  A    between atoms: C_28  and  O_29
REMARK    9  A    between atoms: C_32  and  O_33
REMARK                            x       y       z     vdW  Elec       q    Type
REMARK                         _______ _______ _______ _____ _____    ______ ____
ROOT
ATOM      1  C   UNL     1      33.172 -23.055 -17.058  0.00  0.00    +0.086 C 
ATOM      2  C   UNL     1      33.687 -24.134 -16.360  0.00  0.00    +0.159 C 
ATOM      3  C   UNL     1      31.846 -22.675 -16.925  0.00  0.00    +0.018 C 
ATOM      4  C   UNL     1      32.852 -24.856 -15.507  0.00  0.00    +0.039 C 
ATOM      5  C   UNL     1      31.011 -23.397 -16.072  0.00  0.00    +0.001 C 
ATOM      6  C   UNL     1      31.515 -24.488 -15.362  0.00  0.00    +0.003 C 
ENDROOT
BRANCH   1   8
ATOM      7  O   UNL     1      32.888 -22.465 -19.983  0.00  0.00    -0.270 OA
ATOM      8  N   UNL     1      34.007 -22.310 -17.927  0.00  0.00    -0.278 N 
ATOM      9  C   UNL     1      33.838 -22.058 -19.296  0.00  0.00    +0.250 C 
ATOM     10  H   UNL     1      34.812 -21.920 -17.516  0.00  0.00    +0.155 HD
BRANCH   9  11
ATOM     11  C   UNL     1      34.887 -21.277 -19.931  0.00  0.00    +0.055 C 
ATOM     12  C   UNL     1      34.569 -20.385 -20.955  0.00  0.00    +0.029 C 
ATOM     13  C   UNL     1      36.211 -21.418 -19.515  0.00  0.00    +0.005 C 
ATOM     14  C   UNL     1      35.575 -19.634 -21.564  0.00  0.00    +0.143 C 
ATOM     15  C   UNL     1      37.217 -20.668 -20.123  0.00  0.00    +0.002 C 
ATOM     16  C   UNL     1      36.899 -19.776 -21.147  0.00  0.00    +0.024 C 
BRANCH  14  19
ATOM     17  O   UNL     1      35.413 -17.495 -22.411  0.00  0.00    -0.126 OA
ATOM     18  O   UNL     1      34.816 -19.174 -23.692  0.00  0.00    -0.126 OA
ATOM     19  N   UNL     1      35.253 -18.725 -22.605  0.00  0.00    +0.058 N 
ENDBRANCH  14  19
ENDBRANCH   9  11
ENDBRANCH   1   8
BRANCH   2  20
ATOM     20  O   UNL     1      34.991 -24.511 -16.485  0.00  0.00    -0.452 OA
BRANCH  20  21
ATOM     21  C   UNL     1      35.809 -24.370 -15.377  0.00  0.00    +0.146 C 
ATOM     22  C   UNL     1      37.917 -24.737 -14.300  0.00  0.00    +0.085 C 
ATOM     23  C   UNL     1      37.094 -24.880 -15.416  0.00  0.00    +0.044 C 
ATOM     24  C   UNL     1      37.442 -24.087 -13.161  0.00  0.00    +0.082 C 
ATOM     25  C   UNL     1      35.319 -23.722 -14.256  0.00  0.00    +0.038 C 
ATOM     26  C   UNL     1      36.143 -23.579 -13.140  0.00  0.00    +0.010 C 
BRANCH  22  28
ATOM     27  O   UNL     1      40.231 -24.738 -14.905  0.00  0.00    -0.245 OA
ATOM     28  C   UNL     1      39.269 -25.278 -14.354  0.00  0.00    +0.338 C 
BRANCH  28  29
ATOM     29  O   UNL     1      39.374 -26.475 -13.717  0.00  0.00    -0.477 OA
ATOM     30  H   UNL     1      40.194 -26.740 -13.350  0.00  0.00    +0.295 HD
ENDBRANCH  28  29
ENDBRANCH  22  28
BRANCH  24  32
ATOM     31  O   UNL     1      38.976 -22.936 -11.731  0.00  0.00    -0.245 OA
ATOM     32  C   UNL     1      38.276 -23.922 -11.979  0.00  0.00    +0.338 C 
BRANCH  32  33
ATOM     33  O   UNL     1      38.210 -24.995 -11.145  0.00  0.00    -0.477 OA
ATOM     34  H   UNL     1      38.916 -25.175 -10.556  0.00  0.00    +0.295 HD
ENDBRANCH  32  33
ENDBRANCH  24  32
ENDBRANCH  20  21
ENDBRANCH   2  20
TORSDOF 9
ENDMDL
MODEL 8
REMARK VINA RESULT:     -10.2     11.974     15.594
REMARK  Name = 657140
REMARK  9 active torsions:
REMARK  status: ('A' for Active; 'I' for Inactive)
REMARK    1  A    between atoms: C_1  and  N_8
REMARK    2  A    between atoms: C_2  and  O_20
REMARK    3  A    between atoms: C_9  and  C_11
REMARK    4  A    between atoms: C_14  and  N_19
REMARK    5  A    between atoms: O_20  and  C_21
REMARK    6  A    between atoms: C_22  and  C_28
REMARK    7  A    between atoms: C_24  and  C_32
REMARK    8  A    between atoms: C_28  and  O_29
REMARK    9  A    between atoms: C_32  and  O_33
REMARK                            x       y       z     vdW  Elec       q    Type
REMARK                         _______ _______ _______ _____ _____    ______ ____
ROOT
ATOM      1  C   UNL     1      32.139 -10.241 -20.879  0.00  0.00    +0.086 C 
ATOM      2  C   UNL     1      32.306 -11.507 -21.416  0.00  0.00    +0.159 C 
ATOM      3  C   UNL     1      31.796 -10.061 -19.548  0.00  0.00    +0.018 C 
ATOM      4  C   UNL     1      32.123 -12.624 -20.601  0.00  0.00    +0.039 C 
ATOM      5  C   UNL     1      31.613 -11.178 -18.734  0.00  0.00    +0.001 C 
ATOM      6  C   UNL     1      31.777 -12.460 -19.261  0.00  0.00    +0.003 C 
ENDROOT
BRANCH   1   8
ATOM      7  O   UNL     1      33.497  -7.636 -20.280  0.00  0.00    -0.270 OA
ATOM      8  N   UNL     1      32.324  -9.096 -21.692  0.00  0.00    -0.278 N 
ATOM      9  C   UNL     1      32.967  -7.892 -21.372  0.00  0.00    +0.250 C 
ATOM     10  H   UNL     1      31.950  -9.154 -22.601  0.00  0.00    +0.155 HD
BRANCH   9  11
ATOM     11  C   UNL     1      32.972  -6.879 -22.415  0.00  0.00    +0.055 C 
ATOM     12  C   UNL     1      31.981  -5.898 -22.439  0.00  0.00    +0.029 C 
ATOM     13  C   UNL     1      33.969  -6.887 -23.391  0.00  0.00    +0.005 C 
ATOM     14  C   UNL     1      31.987  -4.925 -23.439  0.00  0.00    +0.143 C 
ATOM     15  C   UNL     1      33.976  -5.915 -24.391  0.00  0.00    +0.002 C 
ATOM     16  C   UNL     1      32.985  -4.934 -24.414  0.00  0.00    +0.024 C 
BRANCH  14  19
ATOM     17  O   UNL     1      30.797  -3.272 -24.520  0.00  0.00    -0.126 OA
ATOM     18  O   UNL     1      30.301  -3.719 -22.429  0.00  0.00    -0.126 OA
ATOM     19  N   UNL     1      30.980  -3.924 -23.464  0.00  0.00    +0.058 N 
ENDBRANCH  14  19
ENDBRANCH   9  11
ENDBRANCH   1   8
BRANCH   2  20
ATOM     20  O   UNL     1      32.646 -11.689 -22.724  0.00  0.00    -0.452 OA
BRANCH  20  21
ATOM     21  C   UNL     1      33.290 -12.867 -23.061  0.00  0.00    +0.146 C 
ATOM     22  C   UNL     1      33.804 -14.555 -24.681  0.00  0.00    +0.085 C 
ATOM     23  C   UNL     1      33.153 -13.369 -24.343  0.00  0.00    +0.044 C 
ATOM     24  C   UNL     1      34.580 -15.221 -23.733  0.00  0.00    +0.082 C 
ATOM     25  C   UNL     1      34.057 -13.512 -22.106  0.00  0.00    +0.038 C 
ATOM     26  C   UNL     1      34.707 -14.699 -22.446  0.00  0.00    +0.010 C 
BRANCH  22  28
ATOM     27  O   UNL     1      34.124 -14.560 -27.052  0.00  0.00    -0.245 OA
ATOM     28  C   UNL     1      33.652 -15.074 -26.034  0.00  0.00    +0.338 C 
BRANCH  28  29
ATOM     29  O   UNL     1      32.916 -16.217 -26.072  0.00  0.00    -0.477 OA
ATOM     30  H   UNL     1      33.343 -17.050 -26.035  0.00  0.00    +0.295 HD
ENDBRANCH  28  29
ENDBRANCH  22  28
BRANCH  24  32
ATOM     31  O   UNL     1      35.403 -17.424 -23.294  0.00  0.00    -0.245 OA
ATOM     32  C   UNL     1      35.271 -16.461 -24.056  0.00  0.00    +0.338 C 
BRANCH  32  33
ATOM     33  O   UNL     1      35.776 -16.460 -25.319  0.00  0.00    -0.477 OA
ATOM     34  H   UNL     1      35.900 -17.269 -25.775  0.00  0.00    +0.295 HD
ENDBRANCH  32  33
ENDBRANCH  24  32
ENDBRANCH  20  21
ENDBRANCH   2  20
TORSDOF 9
ENDMDL
MODEL 9
REMARK VINA RESULT:     -10.1      2.385      7.130
REMARK  Name = 657140
REMARK  9 active torsions:
REMARK  status: ('A' for Active; 'I' for Inactive)
REMARK    1  A    between atoms: C_1  and  N_8
REMARK    2  A    between atoms: C_2  and  O_20
REMARK    3  A    between atoms: C_9  and  C_11
REMARK    4  A    between atoms: C_14  and  N_19
REMARK    5  A    between atoms: O_20  and  C_21
REMARK    6  A    between atoms: C_22  and  C_28
REMARK    7  A    between atoms: C_24  and  C_32
REMARK    8  A    between atoms: C_28  and  O_29
REMARK    9  A    between atoms: C_32  and  O_33
REMARK                            x       y       z     vdW  Elec       q    Type
REMARK                         _______ _______ _______ _____ _____    ______ ____
ROOT
ATOM      1  C   UNL     1      31.878 -23.476 -16.306  0.00  0.00    +0.086 C 
ATOM      2  C   UNL     1      32.229 -23.518 -14.967  0.00  0.00    +0.159 C 
ATOM      3  C   UNL     1      30.722 -24.083 -16.769  0.00  0.00    +0.018 C 
ATOM      4  C   UNL     1      31.401 -24.186 -14.065  0.00  0.00    +0.039 C 
ATOM      5  C   UNL     1      29.894 -24.752 -15.868  0.00  0.00    +0.001 C 
ATOM      6  C   UNL     1      30.233 -24.803 -14.515  0.00  0.00    +0.003 C 
ENDROOT
BRANCH   1   8
ATOM      7  O   UNL     1      33.854 -24.557 -18.286  0.00  0.00    -0.270 OA
ATOM      8  N   UNL     1      32.708 -22.800 -17.235  0.00  0.00    -0.278 N 
ATOM      9  C   UNL     1      33.622 -23.346 -18.146  0.00  0.00    +0.250 C 
ATOM     10  H   UNL     1      32.632 -21.819 -17.239  0.00  0.00    +0.155 HD
BRANCH   9  11
ATOM     11  C   UNL     1      34.357 -22.388 -18.958  0.00  0.00    +0.055 C 
ATOM     12  C   UNL     1      33.708 -21.700 -19.982  0.00  0.00    +0.029 C 
ATOM     13  C   UNL     1      35.710 -22.156 -18.710  0.00  0.00    +0.005 C 
ATOM     14  C   UNL     1      34.412 -20.779 -20.760  0.00  0.00    +0.143 C 
ATOM     15  C   UNL     1      36.414 -21.237 -19.486  0.00  0.00    +0.002 C 
ATOM     16  C   UNL     1      35.765 -20.549 -20.511  0.00  0.00    +0.024 C 
BRANCH  14  19
ATOM     17  O   UNL     1      32.497 -20.071 -21.832  0.00  0.00    -0.126 OA
ATOM     18  O   UNL     1      34.441 -19.481 -22.665  0.00  0.00    -0.126 OA
ATOM     19  N   UNL     1      33.752 -20.077 -21.802  0.00  0.00    +0.058 N 
ENDBRANCH  14  19
ENDBRANCH   9  11
ENDBRANCH   1   8
BRANCH   2  20
ATOM     20  O   UNL     1      33.364 -22.921 -14.507  0.00  0.00    -0.452 OA
BRANCH  20  21
ATOM     21  C   UNL     1      34.405 -23.743 -14.110  0.00  0.00    +0.146 C 
ATOM     22  C   UNL     1      35.771 -24.660 -12.368  0.00  0.00    +0.085 C 
ATOM     23  C   UNL     1      34.722 -23.831 -12.766  0.00  0.00    +0.044 C 
ATOM     24  C   UNL     1      36.485 -25.387 -13.319  0.00  0.00    +0.082 C 
ATOM     25  C   UNL     1      35.102 -24.457 -15.069  0.00  0.00    +0.038 C 
ATOM     26  C   UNL     1      36.151 -25.286 -14.669  0.00  0.00    +0.010 C 
BRANCH  22  28
ATOM     27  O   UNL     1      35.503 -25.443 -10.123  0.00  0.00    -0.245 OA
ATOM     28  C   UNL     1      36.095 -24.744 -10.950  0.00  0.00    +0.338 C 
BRANCH  28  29
ATOM     29  O   UNL     1      37.148 -23.954 -10.611  0.00  0.00    -0.477 OA
ATOM     30  H   UNL     1      37.496 -23.984  -9.742  0.00  0.00    +0.295 HD
ENDBRANCH  28  29
ENDBRANCH  22  28
BRANCH  24  32
ATOM     31  O   UNL     1      38.738 -26.190 -13.370  0.00  0.00    -0.245 OA
ATOM     32  C   UNL     1      37.585 -26.261 -12.935  0.00  0.00    +0.338 C 
BRANCH  32  33
ATOM     33  O   UNL     1      37.210 -27.195 -12.020  0.00  0.00    -0.477 OA
ATOM     34  H   UNL     1      36.448 -27.055 -11.493  0.00  0.00    +0.295 HD
ENDBRANCH  32  33
ENDBRANCH  24  32
ENDBRANCH  20  21
ENDBRANCH   2  20
TORSDOF 9
ENDMDL
