MODEL 1
REMARK VINA RESULT:     -11.3      0.000      0.000
REMARK  Name = 44629554
REMARK  5 active torsions:
REMARK  status: ('A' for Active; 'I' for Inactive)
REMARK    1  A    between atoms: C_5  and  C_30
REMARK    2  A    between atoms: C_6  and  N_18
REMARK    3  A    between atoms: C_7  and  C_12
REMARK    4  A    between atoms: N_18  and  C_20
REMARK    5  A    between atoms: C_20  and  C_24
REMARK                            x       y       z     vdW  Elec       q    Type
REMARK                         _______ _______ _______ _____ _____    ______ ____
ROOT
ATOM      1  N   UNL     1      33.102 -23.283 -16.647  0.00  0.00    -0.152 N 
ATOM      2  N   UNL     1      35.461 -23.752 -16.524  0.00  0.00    -0.389 NA
ATOM      3  N   UNL     1      32.201 -22.702 -17.489  0.00  0.00    -0.174 NA
ATOM      4  C   UNL     1      34.390 -23.233 -17.183  0.00  0.00    +0.189 C 
ATOM      5  C   UNL     1      34.285 -22.597 -18.398  0.00  0.00    +0.112 C 
ATOM      6  C   UNL     1      32.855 -23.869 -15.395  0.00  0.00    +0.126 C 
ATOM      7  C   UNL     1      35.231 -24.308 -15.370  0.00  0.00    +0.140 C 
ATOM      8  C   UNL     1      33.888 -24.393 -14.714  0.00  0.00    +0.064 C 
ATOM      9  C   UNL     1      32.924 -22.298 -18.531  0.00  0.00    +0.100 C 
ENDROOT
BRANCH   7  12
ATOM     10  F   UNL     1      36.477 -22.979 -13.214  0.00  0.00    -0.204 F 
ATOM     11  F   UNL     1      36.323 -26.838 -15.980  0.00  0.00    -0.204 F 
ATOM     12  C   UNL     1      36.371 -24.893 -14.616  0.00  0.00    +0.085 C 
ATOM     13  C   UNL     1      36.944 -24.187 -13.559  0.00  0.00    +0.145 C 
ATOM     14  C   UNL     1      36.866 -26.149 -14.965  0.00  0.00    +0.145 C 
ATOM     15  C   UNL     1      38.014 -24.737 -12.851  0.00  0.00    +0.030 C 
ATOM     16  C   UNL     1      37.936 -26.699 -14.258  0.00  0.00    +0.030 C 
ATOM     17  C   UNL     1      38.510 -25.992 -13.201  0.00  0.00    +0.005 C 
ENDBRANCH   7  12
BRANCH   6  18
ATOM     18  N   UNL     1      31.567 -23.861 -14.938  0.00  0.00    -0.316 N 
ATOM     19  H   UNL     1      31.321 -23.209 -14.243  0.00  0.00    +0.148 HD
BRANCH  18  20
ATOM     20  C   UNL     1      30.551 -24.759 -15.423  0.00  0.00    +0.114 C 
BRANCH  20  24
ATOM     21  N   UNL     1      27.750 -23.876 -17.810  0.00  0.00    -0.181 NA
ATOM     22  N   UNL     1      28.164 -21.982 -16.380  0.00  0.00    -0.204 NA
ATOM     23  N   UNL     1      26.501 -21.902 -18.032  0.00  0.00    -0.303 N 
ATOM     24  C   UNL     1      29.463 -23.992 -16.124  0.00  0.00    +0.020 C 
ATOM     25  C   UNL     1      28.732 -24.535 -17.160  0.00  0.00    +0.106 C 
ATOM     26  C   UNL     1      29.133 -22.698 -15.773  0.00  0.00    +0.163 C 
ATOM     27  C   UNL     1      27.522 -22.623 -17.375  0.00  0.00    +0.084 C 
ATOM     28  H   UNL     1      25.998 -22.321 -18.768  0.00  0.00    +0.154 HD
ATOM     29  H   UNL     1      26.292 -20.980 -17.756  0.00  0.00    +0.154 HD
ENDBRANCH  20  24
ENDBRANCH  18  20
ENDBRANCH   6  18
BRANCH   5  30
ATOM     30  C   UNL     1      35.365 -22.299 -19.353  0.00  0.00    +0.015 C 
ATOM     31  C   UNL     1      35.069 -21.076 -20.231  0.00  0.00    +0.001 C 
ENDBRANCH   5  30
TORSDOF 5
ENDMDL
MODEL 2
REMARK VINA RESULT:     -10.8     12.036     15.895
REMARK  Name = 44629554
REMARK  5 active torsions:
REMARK  status: ('A' for Active; 'I' for Inactive)
REMARK    1  A    between atoms: C_5  and  C_30
REMARK    2  A    between atoms: C_6  and  N_18
REMARK    3  A    between atoms: C_7  and  C_12
REMARK    4  A    between atoms: N_18  and  C_20
REMARK    5  A    between atoms: C_20  and  C_24
REMARK                            x       y       z     vdW  Elec       q    Type
REMARK                         _______ _______ _______ _____ _____    ______ ____
ROOT
ATOM      1  N   UNL     1      33.021 -12.121 -22.625  0.00  0.00    -0.152 N 
ATOM      2  N   UNL     1      32.343  -9.845 -22.227  0.00  0.00    -0.389 NA
ATOM      3  N   UNL     1      32.860 -13.362 -22.085  0.00  0.00    -0.174 NA
ATOM      4  C   UNL     1      32.333 -11.160 -21.882  0.00  0.00    +0.189 C 
ATOM      5  C   UNL     1      31.726 -11.827 -20.843  0.00  0.00    +0.112 C 
ATOM      6  C   UNL     1      33.762 -11.770 -23.764  0.00  0.00    +0.126 C 
ATOM      7  C   UNL     1      33.018  -9.520 -23.292  0.00  0.00    +0.140 C 
ATOM      8  C   UNL     1      33.795 -10.479 -24.138  0.00  0.00    +0.064 C 
ATOM      9  C   UNL     1      32.083 -13.169 -21.021  0.00  0.00    +0.100 C 
ENDROOT
BRANCH   7  12
ATOM     10  F   UNL     1      30.680  -8.025 -23.804  0.00  0.00    -0.204 F 
ATOM     11  F   UNL     1      35.427  -8.090 -23.638  0.00  0.00    -0.204 F 
ATOM     12  C   UNL     1      33.052  -8.094 -23.711  0.00  0.00    +0.085 C 
ATOM     13  C   UNL     1      31.862  -7.408 -23.948  0.00  0.00    +0.145 C 
ATOM     14  C   UNL     1      34.275  -7.441 -23.864  0.00  0.00    +0.145 C 
ATOM     15  C   UNL     1      31.893  -6.069 -24.340  0.00  0.00    +0.030 C 
ATOM     16  C   UNL     1      34.308  -6.103 -24.256  0.00  0.00    +0.030 C 
ATOM     17  C   UNL     1      33.116  -5.417 -24.495  0.00  0.00    +0.005 C 
ENDBRANCH   7  12
BRANCH   6  18
ATOM     18  N   UNL     1      34.417 -12.771 -24.424  0.00  0.00    -0.316 N 
ATOM     19  H   UNL     1      35.381 -12.883 -24.264  0.00  0.00    +0.148 HD
BRANCH  18  20
ATOM     20  C   UNL     1      33.768 -13.670 -25.342  0.00  0.00    +0.114 C 
BRANCH  20  24
ATOM     21  N   UNL     1      34.253 -17.404 -25.726  0.00  0.00    -0.181 NA
ATOM     22  N   UNL     1      35.246 -16.712 -23.643  0.00  0.00    -0.204 NA
ATOM     23  N   UNL     1      35.300 -18.958 -24.315  0.00  0.00    -0.303 N 
ATOM     24  C   UNL     1      34.180 -15.090 -25.067  0.00  0.00    +0.020 C 
ATOM     25  C   UNL     1      33.899 -16.119 -25.942  0.00  0.00    +0.106 C 
ATOM     26  C   UNL     1      34.862 -15.449 -23.921  0.00  0.00    +0.163 C 
ATOM     27  C   UNL     1      34.914 -17.625 -24.575  0.00  0.00    +0.084 C 
ATOM     28  H   UNL     1      35.084 -19.669 -24.962  0.00  0.00    +0.154 HD
ATOM     29  H   UNL     1      35.786 -19.179 -23.488  0.00  0.00    +0.154 HD
ENDBRANCH  20  24
ENDBRANCH  18  20
ENDBRANCH   6  18
BRANCH   5  30
ATOM     30  C   UNL     1      30.883 -11.258 -19.779  0.00  0.00    +0.015 C 
ATOM     31  C   UNL     1      31.581 -11.227 -18.413  0.00  0.00    +0.001 C 
ENDBRANCH   5  30
TORSDOF 5
ENDMDL
MODEL 3
REMARK VINA RESULT:     -10.8      2.530      7.324
REMARK  Name = 44629554
REMARK  5 active torsions:
REMARK  status: ('A' for Active; 'I' for Inactive)
REMARK    1  A    between atoms: C_5  and  C_30
REMARK    2  A    between atoms: C_6  and  N_18
REMARK    3  A    between atoms: C_7  and  C_12
REMARK    4  A    between atoms: N_18  and  C_20
REMARK    5  A    between atoms: C_20  and  C_24
REMARK                            x       y       z     vdW  Elec       q    Type
REMARK                         _______ _______ _______ _____ _____    ______ ____
ROOT
ATOM      1  N   UNL     1      32.847 -24.229 -14.152  0.00  0.00    -0.152 N 
ATOM      2  N   UNL     1      32.881 -23.025 -16.237  0.00  0.00    -0.389 NA
ATOM      3  N   UNL     1      31.955 -24.652 -13.212  0.00  0.00    -0.174 NA
ATOM      4  C   UNL     1      32.199 -23.543 -15.181  0.00  0.00    +0.189 C 
ATOM      5  C   UNL     1      30.860 -23.538 -14.868  0.00  0.00    +0.112 C 
ATOM      6  C   UNL     1      34.239 -24.411 -14.158  0.00  0.00    +0.126 C 
ATOM      7  C   UNL     1      34.171 -23.205 -16.252  0.00  0.00    +0.140 C 
ATOM      8  C   UNL     1      34.947 -23.914 -15.187  0.00  0.00    +0.064 C 
ATOM      9  C   UNL     1      30.772 -24.231 -13.655  0.00  0.00    +0.100 C 
ENDROOT
BRANCH   7  12
ATOM     10  F   UNL     1      36.827 -22.292 -15.972  0.00  0.00    -0.204 F 
ATOM     11  F   UNL     1      33.128 -23.002 -18.866  0.00  0.00    -0.204 F 
ATOM     12  C   UNL     1      34.957 -22.661 -17.390  0.00  0.00    +0.085 C 
ATOM     13  C   UNL     1      36.267 -22.227 -17.189  0.00  0.00    +0.145 C 
ATOM     14  C   UNL     1      34.386 -22.587 -18.660  0.00  0.00    +0.145 C 
ATOM     15  C   UNL     1      37.006 -21.716 -18.257  0.00  0.00    +0.030 C 
ATOM     16  C   UNL     1      35.124 -22.077 -19.729  0.00  0.00    +0.030 C 
ATOM     17  C   UNL     1      36.434 -21.642 -19.526  0.00  0.00    +0.005 C 
ENDBRANCH   7  12
BRANCH   6  18
ATOM     18  N   UNL     1      34.793 -25.081 -13.104  0.00  0.00    -0.316 N 
ATOM     19  H   UNL     1      34.411 -25.952 -12.853  0.00  0.00    +0.148 HD
BRANCH  18  20
ATOM     20  C   UNL     1      35.905 -24.576 -12.343  0.00  0.00    +0.114 C 
BRANCH  20  24
ATOM     21  N   UNL     1      39.545 -24.752 -13.364  0.00  0.00    -0.181 NA
ATOM     22  N   UNL     1      38.458 -26.790 -14.048  0.00  0.00    -0.204 NA
ATOM     23  N   UNL     1      40.738 -26.442 -14.471  0.00  0.00    -0.303 N 
ATOM     24  C   UNL     1      37.203 -25.077 -12.914  0.00  0.00    +0.020 C 
ATOM     25  C   UNL     1      38.364 -24.333 -12.862  0.00  0.00    +0.106 C 
ATOM     26  C   UNL     1      37.310 -26.310 -13.526  0.00  0.00    +0.163 C 
ATOM     27  C   UNL     1      39.520 -25.971 -13.934  0.00  0.00    +0.084 C 
ATOM     28  H   UNL     1      41.548 -25.885 -14.416  0.00  0.00    +0.154 HD
ATOM     29  H   UNL     1      40.778 -27.327 -14.901  0.00  0.00    +0.154 HD
ENDBRANCH  20  24
ENDBRANCH  18  20
ENDBRANCH   6  18
BRANCH   5  30
ATOM     30  C   UNL     1      29.758 -22.939 -15.639  0.00  0.00    +0.015 C 
ATOM     31  C   UNL     1      28.996 -23.961 -16.490  0.00  0.00    +0.001 C 
ENDBRANCH   5  30
TORSDOF 5
ENDMDL
MODEL 4
REMARK VINA RESULT:     -10.8     12.050     15.925
REMARK  Name = 44629554
REMARK  5 active torsions:
REMARK  status: ('A' for Active; 'I' for Inactive)
REMARK    1  A    between atoms: C_5  and  C_30
REMARK    2  A    between atoms: C_6  and  N_18
REMARK    3  A    between atoms: C_7  and  C_12
REMARK    4  A    between atoms: N_18  and  C_20
REMARK    5  A    between atoms: C_20  and  C_24
REMARK                            x       y       z     vdW  Elec       q    Type
REMARK                         _______ _______ _______ _____ _____    ______ ____
ROOT
ATOM      1  N   UNL     1      33.016 -12.108 -22.624  0.00  0.00    -0.152 N 
ATOM      2  N   UNL     1      32.338  -9.831 -22.230  0.00  0.00    -0.389 NA
ATOM      3  N   UNL     1      32.853 -13.349 -22.082  0.00  0.00    -0.174 NA
ATOM      4  C   UNL     1      32.326 -11.146 -21.883  0.00  0.00    +0.189 C 
ATOM      5  C   UNL     1      31.716 -11.812 -20.846  0.00  0.00    +0.112 C 
ATOM      6  C   UNL     1      33.760 -11.758 -23.761  0.00  0.00    +0.126 C 
ATOM      7  C   UNL     1      33.016  -9.507 -23.293  0.00  0.00    +0.140 C 
ATOM      8  C   UNL     1      33.795 -10.468 -24.136  0.00  0.00    +0.064 C 
ATOM      9  C   UNL     1      32.073 -13.154 -21.020  0.00  0.00    +0.100 C 
ENDROOT
BRANCH   7  12
ATOM     10  F   UNL     1      35.426  -8.081 -23.641  0.00  0.00    -0.204 F 
ATOM     11  F   UNL     1      30.680  -8.010 -23.808  0.00  0.00    -0.204 F 
ATOM     12  C   UNL     1      33.052  -8.082 -23.714  0.00  0.00    +0.085 C 
ATOM     13  C   UNL     1      34.276  -7.432 -23.869  0.00  0.00    +0.145 C 
ATOM     14  C   UNL     1      31.862  -7.395 -23.954  0.00  0.00    +0.145 C 
ATOM     15  C   UNL     1      34.311  -6.094 -24.265  0.00  0.00    +0.030 C 
ATOM     16  C   UNL     1      31.896  -6.058 -24.349  0.00  0.00    +0.030 C 
ATOM     17  C   UNL     1      33.120  -5.407 -24.504  0.00  0.00    +0.005 C 
ENDBRANCH   7  12
BRANCH   6  18
ATOM     18  N   UNL     1      34.417 -12.761 -24.418  0.00  0.00    -0.316 N 
ATOM     19  H   UNL     1      35.378 -12.880 -24.246  0.00  0.00    +0.148 HD
BRANCH  18  20
ATOM     20  C   UNL     1      33.773 -13.650 -25.348  0.00  0.00    +0.114 C 
BRANCH  20  24
ATOM     21  N   UNL     1      35.258 -16.705 -23.678  0.00  0.00    -0.181 NA
ATOM     22  N   UNL     1      34.222 -17.388 -25.743  0.00  0.00    -0.204 NA
ATOM     23  N   UNL     1      35.282 -18.952 -24.353  0.00  0.00    -0.303 N 
ATOM     24  C   UNL     1      34.178 -15.074 -25.081  0.00  0.00    +0.020 C 
ATOM     25  C   UNL     1      34.879 -15.438 -23.949  0.00  0.00    +0.106 C 
ATOM     26  C   UNL     1      33.874 -16.101 -25.952  0.00  0.00    +0.163 C 
ATOM     27  C   UNL     1      34.902 -17.615 -24.603  0.00  0.00    +0.084 C 
ATOM     28  H   UNL     1      35.782 -19.177 -23.535  0.00  0.00    +0.154 HD
ATOM     29  H   UNL     1      35.049 -19.659 -24.996  0.00  0.00    +0.154 HD
ENDBRANCH  20  24
ENDBRANCH  18  20
ENDBRANCH   6  18
BRANCH   5  30
ATOM     30  C   UNL     1      30.871 -11.241 -19.784  0.00  0.00    +0.015 C 
ATOM     31  C   UNL     1      31.573 -11.188 -18.422  0.00  0.00    +0.001 C 
ENDBRANCH   5  30
TORSDOF 5
ENDMDL
MODEL 5
REMARK VINA RESULT:     -10.7      2.758      7.525
REMARK  Name = 44629554
REMARK  5 active torsions:
REMARK  status: ('A' for Active; 'I' for Inactive)
REMARK    1  A    between atoms: C_5  and  C_30
REMARK    2  A    between atoms: C_6  and  N_18
REMARK    3  A    between atoms: C_7  and  C_12
REMARK    4  A    between atoms: N_18  and  C_20
REMARK    5  A    between atoms: C_20  and  C_24
REMARK                            x       y       z     vdW  Elec       q    Type
REMARK                         _______ _______ _______ _____ _____    ______ ____
ROOT
ATOM      1  N   UNL     1      35.498 -23.067 -15.568  0.00  0.00    -0.152 N 
ATOM      2  N   UNL     1      33.460 -23.218 -16.841  0.00  0.00    -0.389 NA
ATOM      3  N   UNL     1      36.805 -22.717 -15.737  0.00  0.00    -0.174 NA
ATOM      4  C   UNL     1      34.786 -22.929 -16.761  0.00  0.00    +0.189 C 
ATOM      5  C   UNL     1      35.682 -22.479 -17.703  0.00  0.00    +0.112 C 
ATOM      6  C   UNL     1      34.875 -23.520 -14.394  0.00  0.00    +0.126 C 
ATOM      7  C   UNL     1      32.877 -23.624 -15.750  0.00  0.00    +0.140 C 
ATOM      8  C   UNL     1      33.565 -23.815 -14.434  0.00  0.00    +0.064 C 
ATOM      9  C   UNL     1      36.898 -22.368 -17.019  0.00  0.00    +0.100 C 
ENDROOT
BRANCH   7  12
ATOM     10  F   UNL     1      31.755 -25.779 -14.314  0.00  0.00    -0.204 F 
ATOM     11  F   UNL     1      31.024 -22.131 -17.267  0.00  0.00    -0.204 F 
ATOM     12  C   UNL     1      31.427 -23.947 -15.789  0.00  0.00    +0.085 C 
ATOM     13  C   UNL     1      30.932 -25.025 -15.056  0.00  0.00    +0.145 C 
ATOM     14  C   UNL     1      30.560 -23.170 -16.558  0.00  0.00    +0.145 C 
ATOM     15  C   UNL     1      29.570 -25.328 -15.092  0.00  0.00    +0.030 C 
ATOM     16  C   UNL     1      29.199 -23.472 -16.594  0.00  0.00    +0.030 C 
ATOM     17  C   UNL     1      28.704 -24.551 -15.862  0.00  0.00    +0.005 C 
ENDBRANCH   7  12
BRANCH   6  18
ATOM     18  N   UNL     1      35.650 -23.641 -13.275  0.00  0.00    -0.316 N 
ATOM     19  H   UNL     1      35.963 -22.820 -12.832  0.00  0.00    +0.148 HD
BRANCH  18  20
ATOM     20  C   UNL     1      36.032 -24.910 -12.712  0.00  0.00    +0.114 C 
BRANCH  20  24
ATOM     21  N   UNL     1      39.720 -25.031 -13.556  0.00  0.00    -0.181 NA
ATOM     22  N   UNL     1      38.640 -26.933 -14.565  0.00  0.00    -0.204 NA
ATOM     23  N   UNL     1      40.945 -26.584 -14.818  0.00  0.00    -0.303 N 
ATOM     24  C   UNL     1      37.352 -25.359 -13.277  0.00  0.00    +0.020 C 
ATOM     25  C   UNL     1      38.520 -24.656 -13.064  0.00  0.00    +0.106 C 
ATOM     26  C   UNL     1      37.472 -26.501 -14.043  0.00  0.00    +0.163 C 
ATOM     27  C   UNL     1      39.707 -26.161 -14.286  0.00  0.00    +0.084 C 
ATOM     28  H   UNL     1      41.760 -26.058 -14.646  0.00  0.00    +0.154 HD
ATOM     29  H   UNL     1      40.995 -27.404 -15.360  0.00  0.00    +0.154 HD
ENDBRANCH  20  24
ENDBRANCH  18  20
ENDBRANCH   6  18
BRANCH   5  30
ATOM     30  C   UNL     1      35.421 -22.178 -19.120  0.00  0.00    +0.015 C 
ATOM     31  C   UNL     1      36.481 -21.261 -19.743  0.00  0.00    +0.001 C 
ENDBRANCH   5  30
TORSDOF 5
ENDMDL
MODEL 6
REMARK VINA RESULT:     -10.6      2.478      5.574
REMARK  Name = 44629554
REMARK  5 active torsions:
REMARK  status: ('A' for Active; 'I' for Inactive)
REMARK    1  A    between atoms: C_5  and  C_30
REMARK    2  A    between atoms: C_6  and  N_18
REMARK    3  A    between atoms: C_7  and  C_12
REMARK    4  A    between atoms: N_18  and  C_20
REMARK    5  A    between atoms: C_20  and  C_24
REMARK                            x       y       z     vdW  Elec       q    Type
REMARK                         _______ _______ _______ _____ _____    ______ ____
ROOT
ATOM      1  N   UNL     1      33.162 -23.214 -16.767  0.00  0.00    -0.152 N 
ATOM      2  N   UNL     1      33.850 -24.456 -14.821  0.00  0.00    -0.389 NA
ATOM      3  N   UNL     1      32.022 -22.750 -17.352  0.00  0.00    -0.174 NA
ATOM      4  C   UNL     1      32.872 -23.900 -15.586  0.00  0.00    +0.189 C 
ATOM      5  C   UNL     1      31.505 -23.861 -15.434  0.00  0.00    +0.112 C 
ATOM      6  C   UNL     1      34.482 -23.073 -17.224  0.00  0.00    +0.126 C 
ATOM      7  C   UNL     1      35.076 -24.313 -15.236  0.00  0.00    +0.140 C 
ATOM      8  C   UNL     1      35.476 -23.608 -16.494  0.00  0.00    +0.064 C 
ATOM      9  C   UNL     1      31.041 -23.144 -16.543  0.00  0.00    +0.100 C 
ENDROOT
BRANCH   7  12
ATOM     10  F   UNL     1      36.089 -23.075 -12.911  0.00  0.00    -0.204 F 
ATOM     11  F   UNL     1      36.324 -26.754 -15.907  0.00  0.00    -0.204 F 
ATOM     12  C   UNL     1      36.178 -24.900 -14.430  0.00  0.00    +0.085 C 
ATOM     13  C   UNL     1      36.635 -24.240 -13.289  0.00  0.00    +0.145 C 
ATOM     14  C   UNL     1      36.754 -26.111 -14.812  0.00  0.00    +0.145 C 
ATOM     15  C   UNL     1      37.669 -24.791 -12.531  0.00  0.00    +0.030 C 
ATOM     16  C   UNL     1      37.788 -26.662 -14.055  0.00  0.00    +0.030 C 
ATOM     17  C   UNL     1      38.246 -26.001 -12.914  0.00  0.00    +0.005 C 
ENDBRANCH   7  12
BRANCH   6  18
ATOM     18  N   UNL     1      34.674 -22.400 -18.397  0.00  0.00    -0.316 N 
ATOM     19  H   UNL     1      33.883 -22.137 -18.920  0.00  0.00    +0.148 HD
BRANCH  18  20
ATOM     20  C   UNL     1      35.976 -22.057 -18.907  0.00  0.00    +0.114 C 
BRANCH  20  24
ATOM     21  N   UNL     1      34.553 -19.761 -21.557  0.00  0.00    -0.181 NA
ATOM     22  N   UNL     1      36.871 -19.198 -21.220  0.00  0.00    -0.204 NA
ATOM     23  N   UNL     1      35.564 -18.033 -22.781  0.00  0.00    -0.303 N 
ATOM     24  C   UNL     1      35.865 -20.977 -19.947  0.00  0.00    +0.020 C 
ATOM     25  C   UNL     1      34.687 -20.721 -20.619  0.00  0.00    +0.106 C 
ATOM     26  C   UNL     1      36.935 -20.176 -20.292  0.00  0.00    +0.163 C 
ATOM     27  C   UNL     1      35.667 -19.048 -21.804  0.00  0.00    +0.084 C 
ATOM     28  H   UNL     1      34.707 -17.878 -23.241  0.00  0.00    +0.154 HD
ATOM     29  H   UNL     1      36.348 -17.480 -23.002  0.00  0.00    +0.154 HD
ENDBRANCH  20  24
ENDBRANCH  18  20
ENDBRANCH   6  18
BRANCH   5  30
ATOM     30  C   UNL     1      30.705 -24.443 -14.344  0.00  0.00    +0.015 C 
ATOM     31  C   UNL     1      29.578 -25.354 -14.848  0.00  0.00    +0.001 C 
ENDBRANCH   5  30
TORSDOF 5
ENDMDL
MODEL 7
REMARK VINA RESULT:     -10.5      1.943      4.647
REMARK  Name = 44629554
REMARK  5 active torsions:
REMARK  status: ('A' for Active; 'I' for Inactive)
REMARK    1  A    between atoms: C_5  and  C_30
REMARK    2  A    between atoms: C_6  and  N_18
REMARK    3  A    between atoms: C_7  and  C_12
REMARK    4  A    between atoms: N_18  and  C_20
REMARK    5  A    between atoms: C_20  and  C_24
REMARK                            x       y       z     vdW  Elec       q    Type
REMARK                         _______ _______ _______ _____ _____    ______ ____
ROOT
ATOM      1  N   UNL     1      34.765 -24.155 -13.636  0.00  0.00    -0.152 N 
ATOM      2  N   UNL     1      36.219 -23.701 -15.501  0.00  0.00    -0.389 NA
ATOM      3  N   UNL     1      34.818 -24.696 -12.386  0.00  0.00    -0.174 NA
ATOM      4  C   UNL     1      36.020 -24.186 -14.247  0.00  0.00    +0.189 C 
ATOM      5  C   UNL     1      36.881 -24.767 -13.345  0.00  0.00    +0.112 C 
ATOM      6  C   UNL     1      33.645 -23.625 -14.296  0.00  0.00    +0.126 C 
ATOM      7  C   UNL     1      35.184 -23.195 -16.109  0.00  0.00    +0.140 C 
ATOM      8  C   UNL     1      33.802 -23.135 -15.537  0.00  0.00    +0.064 C 
ATOM      9  C   UNL     1      36.090 -25.056 -12.227  0.00  0.00    +0.100 C 
ENDROOT
BRANCH   7  12
ATOM     10  F   UNL     1      37.530 -21.862 -16.936  0.00  0.00    -0.204 F 
ATOM     11  F   UNL     1      33.190 -23.406 -18.095  0.00  0.00    -0.204 F 
ATOM     12  C   UNL     1      35.355 -22.648 -17.481  0.00  0.00    +0.085 C 
ATOM     13  C   UNL     1      36.540 -22.000 -17.829  0.00  0.00    +0.145 C 
ATOM     14  C   UNL     1      34.333 -22.784 -18.419  0.00  0.00    +0.145 C 
ATOM     15  C   UNL     1      36.702 -21.486 -19.117  0.00  0.00    +0.030 C 
ATOM     16  C   UNL     1      34.494 -22.271 -19.706  0.00  0.00    +0.030 C 
ATOM     17  C   UNL     1      35.678 -21.622 -20.055  0.00  0.00    +0.005 C 
ENDBRANCH   7  12
BRANCH   6  18
ATOM     18  N   UNL     1      32.451 -23.648 -13.631  0.00  0.00    -0.316 N 
ATOM     19  H   UNL     1      32.274 -22.945 -12.966  0.00  0.00    +0.148 HD
BRANCH  18  20
ATOM     20  C   UNL     1      31.442 -24.649 -13.854  0.00  0.00    +0.114 C 
BRANCH  20  24
ATOM     21  N   UNL     1      28.890 -24.615 -16.649  0.00  0.00    -0.181 NA
ATOM     22  N   UNL     1      29.178 -22.362 -15.846  0.00  0.00    -0.204 NA
ATOM     23  N   UNL     1      27.683 -22.837 -17.590  0.00  0.00    -0.303 N 
ATOM     24  C   UNL     1      30.432 -24.163 -14.857  0.00  0.00    +0.020 C 
ATOM     25  C   UNL     1      29.799 -25.018 -15.736  0.00  0.00    +0.106 C 
ATOM     26  C   UNL     1      30.079 -22.832 -14.959  0.00  0.00    +0.163 C 
ATOM     27  C   UNL     1      28.630 -23.295 -16.648  0.00  0.00    +0.084 C 
ATOM     28  H   UNL     1      27.250 -23.475 -18.203  0.00  0.00    +0.154 HD
ATOM     29  H   UNL     1      27.454 -21.880 -17.635  0.00  0.00    +0.154 HD
ENDBRANCH  20  24
ENDBRANCH  18  20
ENDBRANCH   6  18
BRANCH   5  30
ATOM     30  C   UNL     1      38.320 -25.027 -13.515  0.00  0.00    +0.015 C 
ATOM     31  C   UNL     1      38.611 -26.195 -14.465  0.00  0.00    +0.001 C 
ENDBRANCH   5  30
TORSDOF 5
ENDMDL
MODEL 8
REMARK VINA RESULT:     -10.3      2.753      7.715
REMARK  Name = 44629554
REMARK  5 active torsions:
REMARK  status: ('A' for Active; 'I' for Inactive)
REMARK    1  A    between atoms: C_5  and  C_30
REMARK    2  A    between atoms: C_6  and  N_18
REMARK    3  A    between atoms: C_7  and  C_12
REMARK    4  A    between atoms: N_18  and  C_20
REMARK    5  A    between atoms: C_20  and  C_24
REMARK                            x       y       z     vdW  Elec       q    Type
REMARK                         _______ _______ _______ _____ _____    ______ ____
ROOT
ATOM      1  N   UNL     1      32.849 -23.877 -15.938  0.00  0.00    -0.152 N 
ATOM      2  N   UNL     1      32.553 -22.450 -17.856  0.00  0.00    -0.389 NA
ATOM      3  N   UNL     1      32.103 -24.504 -14.985  0.00  0.00    -0.174 NA
ATOM      4  C   UNL     1      32.035 -23.159 -16.817  0.00  0.00    +0.189 C 
ATOM      5  C   UNL     1      30.740 -23.346 -16.394  0.00  0.00    +0.112 C 
ATOM      6  C   UNL     1      34.245 -23.893 -16.085  0.00  0.00    +0.126 C 
ATOM      7  C   UNL     1      33.846 -22.476 -18.001  0.00  0.00    +0.140 C 
ATOM      8  C   UNL     1      34.793 -23.204 -17.100  0.00  0.00    +0.064 C 
ATOM      9  C   UNL     1      30.844 -24.176 -15.272  0.00  0.00    +0.100 C 
ENDROOT
BRANCH   7  12
ATOM     10  F   UNL     1      32.312 -21.004 -19.857  0.00  0.00    -0.204 F 
ATOM     11  F   UNL     1      36.631 -22.397 -18.454  0.00  0.00    -0.204 F 
ATOM     12  C   UNL     1      34.456 -21.720 -19.127  0.00  0.00    +0.085 C 
ATOM     13  C   UNL     1      33.644 -21.010 -20.011  0.00  0.00    +0.145 C 
ATOM     14  C   UNL     1      35.840 -21.718 -19.297  0.00  0.00    +0.145 C 
ATOM     15  C   UNL     1      34.216 -20.299 -21.067  0.00  0.00    +0.030 C 
ATOM     16  C   UNL     1      36.413 -21.008 -20.353  0.00  0.00    +0.030 C 
ATOM     17  C   UNL     1      35.600 -20.298 -21.237  0.00  0.00    +0.005 C 
ENDBRANCH   7  12
BRANCH   6  18
ATOM     18  N   UNL     1      34.967 -24.608 -15.171  0.00  0.00    -0.316 N 
ATOM     19  H   UNL     1      34.876 -25.588 -15.168  0.00  0.00    +0.148 HD
BRANCH  18  20
ATOM     20  C   UNL     1      35.853 -24.001 -14.214  0.00  0.00    +0.114 C 
BRANCH  20  24
ATOM     21  N   UNL     1      38.703 -26.373 -13.457  0.00  0.00    -0.181 NA
ATOM     22  N   UNL     1      39.435 -24.806 -15.134  0.00  0.00    -0.204 NA
ATOM     23  N   UNL     1      40.874 -26.480 -14.342  0.00  0.00    -0.303 N 
ATOM     24  C   UNL     1      37.201 -24.667 -14.248  0.00  0.00    +0.020 C 
ATOM     25  C   UNL     1      37.505 -25.752 -13.452  0.00  0.00    +0.106 C 
ATOM     26  C   UNL     1      38.215 -24.232 -15.078  0.00  0.00    +0.163 C 
ATOM     27  C   UNL     1      39.608 -25.856 -14.309  0.00  0.00    +0.084 C 
ATOM     28  H   UNL     1      41.057 -27.253 -13.760  0.00  0.00    +0.154 HD
ATOM     29  H   UNL     1      41.574 -26.143 -14.947  0.00  0.00    +0.154 HD
ENDBRANCH  20  24
ENDBRANCH  18  20
ENDBRANCH   6  18
BRANCH   5  30
ATOM     30  C   UNL     1      29.511 -22.796 -16.990  0.00  0.00    +0.015 C 
ATOM     31  C   UNL     1      28.403 -23.843 -17.154  0.00  0.00    +0.001 C 
ENDBRANCH   5  30
TORSDOF 5
ENDMDL
MODEL 9
REMARK VINA RESULT:     -10.0      8.424     12.329
REMARK  Name = 44629554
REMARK  5 active torsions:
REMARK  status: ('A' for Active; 'I' for Inactive)
REMARK    1  A    between atoms: C_5  and  C_30
REMARK    2  A    between atoms: C_6  and  N_18
REMARK    3  A    between atoms: C_7  and  C_12
REMARK    4  A    between atoms: N_18  and  C_20
REMARK    5  A    between atoms: C_20  and  C_24
REMARK                            x       y       z     vdW  Elec       q    Type
REMARK                         _______ _______ _______ _____ _____    ______ ____
ROOT
ATOM      1  N   UNL     1      34.659 -15.639 -23.814  0.00  0.00    -0.152 N 
ATOM      2  N   UNL     1      33.197 -13.730 -23.685  0.00  0.00    -0.389 NA
ATOM      3  N   UNL     1      35.183 -16.484 -24.746  0.00  0.00    -0.174 NA
ATOM      4  C   UNL     1      33.833 -14.685 -24.413  0.00  0.00    +0.189 C 
ATOM      5  C   UNL     1      33.843 -14.950 -25.763  0.00  0.00    +0.112 C 
ATOM      6  C   UNL     1      34.865 -15.657 -22.426  0.00  0.00    +0.126 C 
ATOM      7  C   UNL     1      33.399 -13.736 -22.398  0.00  0.00    +0.140 C 
ATOM      8  C   UNL     1      34.254 -14.727 -21.672  0.00  0.00    +0.064 C 
ATOM      9  C   UNL     1      34.685 -16.059 -25.906  0.00  0.00    +0.100 C 
ENDROOT
BRANCH   7  12
ATOM     10  F   UNL     1      32.911 -11.112 -23.314  0.00  0.00    -0.204 F 
ATOM     11  F   UNL     1      32.510 -14.248 -19.769  0.00  0.00    -0.204 F 
ATOM     12  C   UNL     1      32.728 -12.706 -21.562  0.00  0.00    +0.085 C 
ATOM     13  C   UNL     1      32.514 -11.426 -22.072  0.00  0.00    +0.145 C 
ATOM     14  C   UNL     1      32.310 -13.020 -20.270  0.00  0.00    +0.145 C 
ATOM     15  C   UNL     1      31.883 -10.458 -21.288  0.00  0.00    +0.030 C 
ATOM     16  C   UNL     1      31.680 -12.054 -19.485  0.00  0.00    +0.030 C 
ATOM     17  C   UNL     1      31.467 -10.773 -19.995  0.00  0.00    +0.005 C 
ENDBRANCH   7  12
BRANCH   6  18
ATOM     18  N   UNL     1      35.677 -16.634 -21.921  0.00  0.00    -0.316 N 
ATOM     19  H   UNL     1      36.108 -16.479 -21.051  0.00  0.00    +0.148 HD
BRANCH  18  20
ATOM     20  C   UNL     1      35.931 -17.878 -22.599  0.00  0.00    +0.114 C 
BRANCH  20  24
ATOM     21  N   UNL     1      36.800 -20.515 -20.027  0.00  0.00    -0.181 NA
ATOM     22  N   UNL     1      34.475 -20.750 -20.611  0.00  0.00    -0.204 NA
ATOM     23  N   UNL     1      35.472 -22.178 -19.040  0.00  0.00    -0.303 N 
ATOM     24  C   UNL     1      35.808 -19.032 -21.643  0.00  0.00    +0.020 C 
ATOM     25  C   UNL     1      36.875 -19.482 -20.893  0.00  0.00    +0.106 C 
ATOM     26  C   UNL     1      34.620 -19.711 -21.460  0.00  0.00    +0.163 C 
ATOM     27  C   UNL     1      35.588 -21.094 -19.937  0.00  0.00    +0.084 C 
ATOM     28  H   UNL     1      36.254 -22.473 -18.520  0.00  0.00    +0.154 HD
ATOM     29  H   UNL     1      34.609 -22.640 -18.934  0.00  0.00    +0.154 HD
ENDBRANCH  20  24
ENDBRANCH  18  20
ENDBRANCH   6  18
BRANCH   5  30
ATOM     30  C   UNL     1      33.128 -14.226 -26.826  0.00  0.00    +0.015 C 
ATOM     31  C   UNL     1      33.843 -12.940 -27.262  0.00  0.00    +0.001 C 
ENDBRANCH   5  30
TORSDOF 5
ENDMDL
