MODEL 1
REMARK VINA RESULT:     -13.1      0.000      0.000
REMARK  Name = 5073
REMARK  4 active torsions:
REMARK  status: ('A' for Active; 'I' for Inactive)
REMARK    1  A    between atoms: N_1  and  C_18
REMARK    2  A    between atoms: C_2  and  C_11
REMARK    3  A    between atoms: C_18  and  C_19
REMARK    4  A    between atoms: C_19  and  C_23
REMARK                            x       y       z     vdW  Elec       q    Type
REMARK                         _______ _______ _______ _____ _____    ______ ____
ROOT
ATOM      1  N   UNL     1      36.022 -19.693 -20.796  0.00  0.00    +0.387 N 
ATOM      2  C   UNL     1      35.557 -18.642 -23.496  0.00  0.00    +0.039 C 
ATOM      3  C   UNL     1      34.479 -19.407 -22.710  0.00  0.00    -0.017 C 
ATOM      4  C   UNL     1      36.556 -17.999 -22.519  0.00  0.00    -0.017 C 
ATOM      5  C   UNL     1      35.106 -20.385 -21.714  0.00  0.00    -0.077 C 
ATOM      6  C   UNL     1      37.107 -19.029 -21.530  0.00  0.00    -0.077 C 
ATOM      7  H   UNL     1      35.490 -18.977 -20.302  0.00  0.00    -0.080 HD
ENDROOT
BRANCH   2  11
ATOM      8  F   UNL     1      33.749 -12.332 -24.953  0.00  0.00    -0.204 F 
ATOM      9  O   UNL     1      34.098 -16.932 -26.310  0.00  0.00    -0.354 OA
ATOM     10  N   UNL     1      34.575 -18.069 -25.672  0.00  0.00    -0.081 NA
ATOM     11  C   UNL     1      34.972 -17.648 -24.473  0.00  0.00    +0.100 A 
ATOM     12  C   UNL     1      34.781 -16.272 -24.282  0.00  0.00    +0.054 A 
ATOM     13  C   UNL     1      34.221 -15.861 -25.480  0.00  0.00    +0.179 A 
ATOM     14  C   UNL     1      35.001 -15.324 -23.273  0.00  0.00    +0.007 C 
ATOM     15  C   UNL     1      33.854 -14.549 -25.765  0.00  0.00    +0.070 C 
ATOM     16  C   UNL     1      34.641 -13.992 -23.525  0.00  0.00    +0.030 C 
ATOM     17  C   UNL     1      34.079 -13.614 -24.748  0.00  0.00    +0.143 C 
ENDBRANCH   2  11
BRANCH   1  18
ATOM     18  C   UNL     1      36.568 -20.632 -19.815  0.00  0.00    -0.076 C 
BRANCH  18  19
ATOM     19  C   UNL     1      35.833 -21.962 -19.907  0.00  0.00    -0.007 C 
BRANCH  19  23
ATOM     20  O   UNL     1      33.125 -22.487 -19.545  0.00  0.00    -0.274 OA
ATOM     21  N   UNL     1      33.301 -22.978 -17.274  0.00  0.00    -0.237 N 
ATOM     22  N   UNL     1      35.408 -22.809 -16.211  0.00  0.00    -0.399 NA
ATOM     23  C   UNL     1      35.278 -22.359 -18.571  0.00  0.00    +0.123 C 
ATOM     24  C   UNL     1      31.848 -23.152 -17.169  0.00  0.00    +0.100 C 
ATOM     25  C   UNL     1      31.385 -23.887 -15.925  0.00  0.00    +0.022 C 
ATOM     26  C   UNL     1      34.134 -23.039 -16.172  0.00  0.00    +0.165 C 
ATOM     27  C   UNL     1      32.058 -23.281 -14.711  0.00  0.00    +0.011 C 
ATOM     28  C   UNL     1      33.556 -23.466 -14.835  0.00  0.00    +0.075 C 
ATOM     29  C   UNL     1      33.804 -22.614 -18.526  0.00  0.00    +0.237 C 
ATOM     30  C   UNL     1      35.970 -22.474 -17.420  0.00  0.00    +0.096 C 
ATOM     31  C   UNL     1      37.460 -22.272 -17.338  0.00  0.00    +0.062 C 
ENDBRANCH  19  23
ENDBRANCH  18  19
ENDBRANCH   1  18
TORSDOF 4
ENDMDL
MODEL 2
REMARK VINA RESULT:     -12.3      3.712      9.686
REMARK  Name = 5073
REMARK  4 active torsions:
REMARK  status: ('A' for Active; 'I' for Inactive)
REMARK    1  A    between atoms: N_1  and  C_18
REMARK    2  A    between atoms: C_2  and  C_11
REMARK    3  A    between atoms: C_18  and  C_19
REMARK    4  A    between atoms: C_19  and  C_23
REMARK                            x       y       z     vdW  Elec       q    Type
REMARK                         _______ _______ _______ _____ _____    ______ ____
ROOT
ATOM      1  N   UNL     1      35.158 -19.497 -21.604  0.00  0.00    +0.387 N 
ATOM      2  C   UNL     1      35.227 -21.763 -19.741  0.00  0.00    +0.039 C 
ATOM      3  C   UNL     1      36.457 -20.882 -20.016  0.00  0.00    -0.017 C 
ATOM      4  C   UNL     1      33.942 -20.968 -20.028  0.00  0.00    -0.017 C 
ATOM      5  C   UNL     1      36.397 -20.265 -21.416  0.00  0.00    -0.077 C 
ATOM      6  C   UNL     1      33.974 -20.348 -21.427  0.00  0.00    -0.077 C 
ATOM      7  H   UNL     1      35.131 -18.766 -20.893  0.00  0.00    -0.080 HD
ENDROOT
BRANCH   2  11
ATOM      8  F   UNL     1      31.881 -24.377 -14.528  0.00  0.00    -0.204 F 
ATOM      9  O   UNL     1      36.075 -23.103 -16.507  0.00  0.00    -0.354 OA
ATOM     10  N   UNL     1      36.405 -22.534 -17.730  0.00  0.00    -0.081 NA
ATOM     11  C   UNL     1      35.242 -22.369 -18.357  0.00  0.00    +0.100 A 
ATOM     12  C   UNL     1      34.144 -22.806 -17.602  0.00  0.00    +0.054 A 
ATOM     13  C   UNL     1      34.725 -23.265 -16.432  0.00  0.00    +0.179 A 
ATOM     14  C   UNL     1      32.750 -22.878 -17.743  0.00  0.00    +0.007 C 
ATOM     15  C   UNL     1      34.016 -23.804 -15.363  0.00  0.00    +0.070 C 
ATOM     16  C   UNL     1      32.004 -23.415 -16.685  0.00  0.00    +0.030 C 
ATOM     17  C   UNL     1      32.627 -23.870 -15.518  0.00  0.00    +0.143 C 
ENDBRANCH   2  11
BRANCH   1  18
ATOM     18  C   UNL     1      35.143 -18.867 -22.925  0.00  0.00    -0.076 C 
BRANCH  18  19
ATOM     19  C   UNL     1      36.029 -17.630 -22.918  0.00  0.00    -0.007 C 
BRANCH  19  23
ATOM     20  O   UNL     1      35.059 -16.304 -20.672  0.00  0.00    -0.274 OA
ATOM     21  N   UNL     1      33.984 -14.616 -21.863  0.00  0.00    -0.237 N 
ATOM     22  N   UNL     1      34.026 -14.658 -24.229  0.00  0.00    -0.399 NA
ATOM     23  C   UNL     1      35.205 -16.381 -23.033  0.00  0.00    +0.123 C 
ATOM     24  C   UNL     1      33.451 -14.041 -20.624  0.00  0.00    +0.100 C 
ATOM     25  C   UNL     1      32.943 -12.617 -20.752  0.00  0.00    +0.022 C 
ATOM     26  C   UNL     1      33.643 -14.127 -23.111  0.00  0.00    +0.165 C 
ATOM     27  C   UNL     1      32.032 -12.522 -21.958  0.00  0.00    +0.011 C 
ATOM     28  C   UNL     1      32.828 -12.850 -23.204  0.00  0.00    +0.075 C 
ATOM     29  C   UNL     1      34.755 -15.775 -21.740  0.00  0.00    +0.237 C 
ATOM     30  C   UNL     1      34.812 -15.785 -24.175  0.00  0.00    +0.096 C 
ATOM     31  C   UNL     1      35.221 -16.279 -25.538  0.00  0.00    +0.062 C 
ENDBRANCH  19  23
ENDBRANCH  18  19
ENDBRANCH   1  18
TORSDOF 4
ENDMDL
MODEL 3
REMARK VINA RESULT:     -12.2      3.614     10.278
REMARK  Name = 5073
REMARK  4 active torsions:
REMARK  status: ('A' for Active; 'I' for Inactive)
REMARK    1  A    between atoms: N_1  and  C_18
REMARK    2  A    between atoms: C_2  and  C_11
REMARK    3  A    between atoms: C_18  and  C_19
REMARK    4  A    between atoms: C_19  and  C_23
REMARK                            x       y       z     vdW  Elec       q    Type
REMARK                         _______ _______ _______ _____ _____    ______ ____
ROOT
ATOM      1  N   UNL     1      34.587 -20.758 -20.352  0.00  0.00    +0.387 N 
ATOM      2  C   UNL     1      34.446 -22.876 -18.325  0.00  0.00    +0.039 C 
ATOM      3  C   UNL     1      35.728 -22.069 -18.589  0.00  0.00    -0.017 C 
ATOM      4  C   UNL     1      33.217 -22.054 -18.749  0.00  0.00    -0.017 C 
ATOM      5  C   UNL     1      35.777 -21.560 -20.031  0.00  0.00    -0.077 C 
ATOM      6  C   UNL     1      33.358 -21.545 -20.185  0.00  0.00    -0.077 C 
ATOM      7  H   UNL     1      34.551 -19.975 -19.700  0.00  0.00    -0.080 HD
ENDROOT
BRANCH   2  11
ATOM      8  F   UNL     1      30.739 -24.111 -12.852  0.00  0.00    -0.204 F 
ATOM      9  O   UNL     1      35.029 -24.195 -15.024  0.00  0.00    -0.354 OA
ATOM     10  N   UNL     1      35.450 -23.821 -16.293  0.00  0.00    -0.081 NA
ATOM     11  C   UNL     1      34.352 -23.374 -16.901  0.00  0.00    +0.100 A 
ATOM     12  C   UNL     1      33.211 -23.436 -16.089  0.00  0.00    +0.054 A 
ATOM     13  C   UNL     1      33.693 -23.966 -14.904  0.00  0.00    +0.179 A 
ATOM     14  C   UNL     1      31.848 -23.121 -16.189  0.00  0.00    +0.007 C 
ATOM     15  C   UNL     1      32.910 -24.216 -13.781  0.00  0.00    +0.070 C 
ATOM     16  C   UNL     1      31.029 -23.359 -15.075  0.00  0.00    +0.030 C 
ATOM     17  C   UNL     1      31.553 -23.897 -13.895  0.00  0.00    +0.143 C 
ENDBRANCH   2  11
BRANCH   1  18
ATOM     18  C   UNL     1      34.678 -20.232 -21.714  0.00  0.00    -0.076 C 
BRANCH  18  19
ATOM     19  C   UNL     1      35.728 -19.132 -21.775  0.00  0.00    -0.007 C 
BRANCH  19  23
ATOM     20  O   UNL     1      35.330 -16.469 -21.073  0.00  0.00    -0.274 OA
ATOM     21  N   UNL     1      34.827 -15.749 -23.230  0.00  0.00    -0.237 N 
ATOM     22  N   UNL     1      34.767 -17.324 -24.995  0.00  0.00    -0.399 NA
ATOM     23  C   UNL     1      35.356 -18.094 -22.793  0.00  0.00    +0.123 C 
ATOM     24  C   UNL     1      34.558 -14.391 -22.746  0.00  0.00    +0.100 C 
ATOM     25  C   UNL     1      34.543 -13.323 -23.824  0.00  0.00    +0.022 C 
ATOM     26  C   UNL     1      34.621 -16.117 -24.548  0.00  0.00    +0.165 C 
ATOM     27  C   UNL     1      33.670 -13.789 -24.971  0.00  0.00    +0.011 C 
ATOM     28  C   UNL     1      34.269 -15.047 -25.565  0.00  0.00    +0.075 C 
ATOM     29  C   UNL     1      35.178 -16.702 -22.272  0.00  0.00    +0.237 C 
ATOM     30  C   UNL     1      35.140 -18.304 -24.106  0.00  0.00    +0.096 C 
ATOM     31  C   UNL     1      35.314 -19.651 -24.759  0.00  0.00    +0.062 C 
ENDBRANCH  19  23
ENDBRANCH  18  19
ENDBRANCH   1  18
TORSDOF 4
ENDMDL
MODEL 4
REMARK VINA RESULT:     -12.2      2.555      4.373
REMARK  Name = 5073
REMARK  4 active torsions:
REMARK  status: ('A' for Active; 'I' for Inactive)
REMARK    1  A    between atoms: N_1  and  C_18
REMARK    2  A    between atoms: C_2  and  C_11
REMARK    3  A    between atoms: C_18  and  C_19
REMARK    4  A    between atoms: C_19  and  C_23
REMARK                            x       y       z     vdW  Elec       q    Type
REMARK                         _______ _______ _______ _____ _____    ______ ____
ROOT
ATOM      1  N   UNL     1      34.422 -22.171 -18.636  0.00  0.00    +0.387 N 
ATOM      2  C   UNL     1      35.136 -20.584 -21.000  0.00  0.00    +0.039 C 
ATOM      3  C   UNL     1      33.712 -20.605 -20.417  0.00  0.00    -0.017 C 
ATOM      4  C   UNL     1      36.153 -20.933 -19.901  0.00  0.00    -0.017 C 
ATOM      5  C   UNL     1      33.429 -21.922 -19.691  0.00  0.00    -0.077 C 
ATOM      6  C   UNL     1      35.781 -22.238 -19.193  0.00  0.00    -0.077 C 
ATOM      7  H   UNL     1      34.388 -21.389 -17.982  0.00  0.00    -0.080 HD
ENDROOT
BRANCH   2  11
ATOM      8  F   UNL     1      34.578 -16.644 -26.420  0.00  0.00    -0.204 F 
ATOM      9  O   UNL     1      36.312 -17.325 -21.987  0.00  0.00    -0.354 OA
ATOM     10  N   UNL     1      36.206 -18.376 -21.084  0.00  0.00    -0.081 NA
ATOM     11  C   UNL     1      35.459 -19.286 -21.705  0.00  0.00    +0.100 A 
ATOM     12  C   UNL     1      35.059 -18.888 -22.988  0.00  0.00    +0.054 A 
ATOM     13  C   UNL     1      35.627 -17.632 -23.122  0.00  0.00    +0.179 A 
ATOM     14  C   UNL     1      34.301 -19.408 -24.048  0.00  0.00    +0.007 C 
ATOM     15  C   UNL     1      35.500 -16.830 -24.252  0.00  0.00    +0.070 C 
ATOM     16  C   UNL     1      34.153 -18.627 -25.203  0.00  0.00    +0.030 C 
ATOM     17  C   UNL     1      34.742 -17.362 -25.300  0.00  0.00    +0.143 C 
ENDBRANCH   2  11
BRANCH   1  18
ATOM     18  C   UNL     1      34.104 -23.403 -17.915  0.00  0.00    -0.076 C 
BRANCH  18  19
ATOM     19  C   UNL     1      33.188 -23.091 -16.739  0.00  0.00    -0.007 C 
BRANCH  19  23
ATOM     20  O   UNL     1      35.789 -22.391 -16.040  0.00  0.00    -0.274 OA
ATOM     21  N   UNL     1      35.775 -23.513 -13.999  0.00  0.00    -0.237 N 
ATOM     22  N   UNL     1      33.854 -24.739 -13.363  0.00  0.00    -0.399 NA
ATOM     23  C   UNL     1      33.806 -23.539 -15.447  0.00  0.00    +0.123 C 
ATOM     24  C   UNL     1      37.179 -23.160 -13.762  0.00  0.00    +0.100 C 
ATOM     25  C   UNL     1      37.638 -23.316 -12.324  0.00  0.00    +0.022 C 
ATOM     26  C   UNL     1      35.066 -24.339 -13.145  0.00  0.00    +0.165 C 
ATOM     27  C   UNL     1      37.214 -24.677 -11.813  0.00  0.00    +0.011 C 
ATOM     28  C   UNL     1      35.702 -24.761 -11.833  0.00  0.00    +0.075 C 
ATOM     29  C   UNL     1      35.211 -23.084 -15.203  0.00  0.00    +0.237 C 
ATOM     30  C   UNL     1      33.232 -24.328 -14.518  0.00  0.00    +0.096 C 
ATOM     31  C   UNL     1      31.816 -24.828 -14.631  0.00  0.00    +0.062 C 
ENDBRANCH  19  23
ENDBRANCH  18  19
ENDBRANCH   1  18
TORSDOF 4
ENDMDL
MODEL 5
REMARK VINA RESULT:     -12.1      3.327     10.129
REMARK  Name = 5073
REMARK  4 active torsions:
REMARK  status: ('A' for Active; 'I' for Inactive)
REMARK    1  A    between atoms: N_1  and  C_18
REMARK    2  A    between atoms: C_2  and  C_11
REMARK    3  A    between atoms: C_18  and  C_19
REMARK    4  A    between atoms: C_19  and  C_23
REMARK                            x       y       z     vdW  Elec       q    Type
REMARK                         _______ _______ _______ _____ _____    ______ ____
ROOT
ATOM      1  N   UNL     1      35.857 -19.101 -21.460  0.00  0.00    +0.387 N 
ATOM      2  C   UNL     1      35.044 -21.557 -20.075  0.00  0.00    +0.039 C 
ATOM      3  C   UNL     1      36.379 -20.849 -19.788  0.00  0.00    -0.017 C 
ATOM      4  C   UNL     1      34.027 -20.545 -20.628  0.00  0.00    -0.017 C 
ATOM      5  C   UNL     1      36.868 -20.068 -21.010  0.00  0.00    -0.077 C 
ATOM      6  C   UNL     1      34.602 -19.774 -21.819  0.00  0.00    -0.077 C 
ATOM      7  H   UNL     1      35.664 -18.465 -20.686  0.00  0.00    -0.080 HD
ENDROOT
BRANCH   2  11
ATOM      8  F   UNL     1      36.039 -24.077 -13.921  0.00  0.00    -0.204 F 
ATOM      9  O   UNL     1      33.108 -23.422 -17.678  0.00  0.00    -0.354 OA
ATOM     10  N   UNL     1      33.272 -22.784 -18.900  0.00  0.00    -0.081 NA
ATOM     11  C   UNL     1      34.519 -22.320 -18.880  0.00  0.00    +0.100 A 
ATOM     12  C   UNL     1      35.200 -22.622 -17.692  0.00  0.00    +0.054 A 
ATOM     13  C   UNL     1      34.259 -23.324 -16.958  0.00  0.00    +0.179 A 
ATOM     14  C   UNL     1      36.469 -22.400 -17.138  0.00  0.00    +0.007 C 
ATOM     15  C   UNL     1      34.483 -23.838 -15.684  0.00  0.00    +0.070 C 
ATOM     16  C   UNL     1      36.730 -22.905 -15.856  0.00  0.00    +0.030 C 
ATOM     17  C   UNL     1      35.753 -23.610 -15.144  0.00  0.00    +0.143 C 
ENDBRANCH   2  11
BRANCH   1  18
ATOM     18  C   UNL     1      36.362 -18.323 -22.592  0.00  0.00    -0.076 C 
BRANCH  18  19
ATOM     19  C   UNL     1      35.285 -18.206 -23.661  0.00  0.00    -0.007 C 
BRANCH  19  23
ATOM     20  O   UNL     1      34.647 -17.267 -26.202  0.00  0.00    -0.274 OA
ATOM     21  N   UNL     1      34.279 -15.066 -25.534  0.00  0.00    -0.237 N 
ATOM     22  N   UNL     1      34.604 -14.473 -23.266  0.00  0.00    -0.399 NA
ATOM     23  C   UNL     1      34.928 -16.769 -23.905  0.00  0.00    +0.123 C 
ATOM     24  C   UNL     1      34.041 -14.654 -26.921  0.00  0.00    +0.100 C 
ATOM     25  C   UNL     1      33.347 -13.314 -27.075  0.00  0.00    +0.022 C 
ATOM     26  C   UNL     1      34.315 -14.159 -24.489  0.00  0.00    +0.165 C 
ATOM     27  C   UNL     1      34.045 -12.291 -26.203  0.00  0.00    +0.011 C 
ATOM     28  C   UNL     1      33.927 -12.716 -24.754  0.00  0.00    +0.075 C 
ATOM     29  C   UNL     1      34.604 -16.408 -25.321  0.00  0.00    +0.237 C 
ATOM     30  C   UNL     1      34.905 -15.784 -22.986  0.00  0.00    +0.096 C 
ATOM     31  C   UNL     1      35.183 -16.022 -21.525  0.00  0.00    +0.062 C 
ENDBRANCH  19  23
ENDBRANCH  18  19
ENDBRANCH   1  18
TORSDOF 4
ENDMDL
MODEL 6
REMARK VINA RESULT:     -12.0      1.240      2.118
REMARK  Name = 5073
REMARK  4 active torsions:
REMARK  status: ('A' for Active; 'I' for Inactive)
REMARK    1  A    between atoms: N_1  and  C_18
REMARK    2  A    between atoms: C_2  and  C_11
REMARK    3  A    between atoms: C_18  and  C_19
REMARK    4  A    between atoms: C_19  and  C_23
REMARK                            x       y       z     vdW  Elec       q    Type
REMARK                         _______ _______ _______ _____ _____    ______ ____
ROOT
ATOM      1  N   UNL     1      36.161 -19.355 -20.977  0.00  0.00    +0.387 N 
ATOM      2  C   UNL     1      35.558 -18.365 -23.673  0.00  0.00    +0.039 C 
ATOM      3  C   UNL     1      34.527 -19.128 -22.823  0.00  0.00    -0.017 C 
ATOM      4  C   UNL     1      36.591 -17.689 -22.757  0.00  0.00    -0.017 C 
ATOM      5  C   UNL     1      35.213 -20.077 -21.838  0.00  0.00    -0.077 C 
ATOM      6  C   UNL     1      37.202 -18.691 -21.774  0.00  0.00    -0.077 C 
ATOM      7  H   UNL     1      35.642 -18.635 -20.474  0.00  0.00    -0.080 HD
ENDROOT
BRANCH   2  11
ATOM      8  F   UNL     1      33.613 -12.107 -25.178  0.00  0.00    -0.204 F 
ATOM      9  O   UNL     1      33.944 -16.733 -26.449  0.00  0.00    -0.354 OA
ATOM     10  N   UNL     1      34.464 -17.851 -25.811  0.00  0.00    -0.081 NA
ATOM     11  C   UNL     1      34.915 -17.399 -24.642  0.00  0.00    +0.100 A 
ATOM     12  C   UNL     1      34.719 -16.021 -24.473  0.00  0.00    +0.054 A 
ATOM     13  C   UNL     1      34.097 -15.642 -25.650  0.00  0.00    +0.179 A 
ATOM     14  C   UNL     1      34.978 -15.048 -23.496  0.00  0.00    +0.007 C 
ATOM     15  C   UNL     1      33.702 -14.341 -25.945  0.00  0.00    +0.070 C 
ATOM     16  C   UNL     1      34.592 -13.726 -23.759  0.00  0.00    +0.030 C 
ATOM     17  C   UNL     1      33.967 -13.381 -24.962  0.00  0.00    +0.143 C 
ENDBRANCH   2  11
BRANCH   1  18
ATOM     18  C   UNL     1      36.764 -20.266 -20.005  0.00  0.00    -0.076 C 
BRANCH  18  19
ATOM     19  C   UNL     1      36.200 -21.668 -20.190  0.00  0.00    -0.007 C 
BRANCH  19  23
ATOM     20  O   UNL     1      37.664 -22.206 -17.885  0.00  0.00    -0.274 OA
ATOM     21  N   UNL     1      35.827 -22.848 -16.606  0.00  0.00    -0.237 N 
ATOM     22  N   UNL     1      33.678 -22.883 -17.597  0.00  0.00    -0.399 NA
ATOM     23  C   UNL     1      35.541 -22.150 -18.931  0.00  0.00    +0.123 C 
ATOM     24  C   UNL     1      36.695 -23.183 -15.473  0.00  0.00    +0.100 C 
ATOM     25  C   UNL     1      35.980 -23.315 -14.142  0.00  0.00    +0.022 C 
ATOM     26  C   UNL     1      34.464 -23.088 -16.588  0.00  0.00    +0.165 C 
ATOM     27  C   UNL     1      34.767 -24.205 -14.316  0.00  0.00    +0.011 C 
ATOM     28  C   UNL     1      33.815 -23.553 -15.298  0.00  0.00    +0.075 C 
ATOM     29  C   UNL     1      36.453 -22.395 -17.769  0.00  0.00    +0.237 C 
ATOM     30  C   UNL     1      34.230 -22.410 -18.764  0.00  0.00    +0.096 C 
ATOM     31  C   UNL     1      33.206 -22.178 -19.844  0.00  0.00    +0.062 C 
ENDBRANCH  19  23
ENDBRANCH  18  19
ENDBRANCH   1  18
TORSDOF 4
ENDMDL
MODEL 7
REMARK VINA RESULT:     -12.0      4.421     10.328
REMARK  Name = 5073
REMARK  4 active torsions:
REMARK  status: ('A' for Active; 'I' for Inactive)
REMARK    1  A    between atoms: N_1  and  C_18
REMARK    2  A    between atoms: C_2  and  C_11
REMARK    3  A    between atoms: C_18  and  C_19
REMARK    4  A    between atoms: C_19  and  C_23
REMARK                            x       y       z     vdW  Elec       q    Type
REMARK                         _______ _______ _______ _____ _____    ______ ____
ROOT
ATOM      1  N   UNL     1      35.334 -15.450 -23.672  0.00  0.00    +0.387 N 
ATOM      2  C   UNL     1      35.051 -17.966 -22.187  0.00  0.00    +0.039 C 
ATOM      3  C   UNL     1      35.629 -17.908 -23.611  0.00  0.00    -0.017 C 
ATOM      4  C   UNL     1      35.252 -16.612 -21.487  0.00  0.00    -0.017 C 
ATOM      5  C   UNL     1      35.076 -16.709 -24.386  0.00  0.00    -0.077 C 
ATOM      6  C   UNL     1      34.713 -15.460 -22.340  0.00  0.00    -0.077 C 
ATOM      7  H   UNL     1      36.342 -15.360 -23.549  0.00  0.00    -0.080 HD
ENDROOT
BRANCH   2  11
ATOM      8  F   UNL     1      33.953 -23.562 -18.624  0.00  0.00    -0.204 F 
ATOM      9  O   UNL     1      37.071 -20.383 -20.441  0.00  0.00    -0.354 OA
ATOM     10  N   UNL     1      36.909 -19.235 -21.205  0.00  0.00    -0.081 NA
ATOM     11  C   UNL     1      35.594 -19.126 -21.384  0.00  0.00    +0.100 A 
ATOM     12  C   UNL     1      34.868 -20.156 -20.770  0.00  0.00    +0.054 A 
ATOM     13  C   UNL     1      35.853 -20.932 -20.183  0.00  0.00    +0.179 A 
ATOM     14  C   UNL     1      33.526 -20.540 -20.631  0.00  0.00    +0.007 C 
ATOM     15  C   UNL     1      35.607 -22.089 -19.449  0.00  0.00    +0.070 C 
ATOM     16  C   UNL     1      33.241 -21.700 -19.896  0.00  0.00    +0.030 C 
ATOM     17  C   UNL     1      34.264 -22.458 -19.318  0.00  0.00    +0.143 C 
ENDBRANCH   2  11
BRANCH   1  18
ATOM     18  C   UNL     1      34.851 -14.312 -24.452  0.00  0.00    -0.076 C 
BRANCH  18  19
ATOM     19  C   UNL     1      33.444 -13.939 -24.008  0.00  0.00    -0.007 C 
BRANCH  19  23
ATOM     20  O   UNL     1      32.172 -13.069 -21.691  0.00  0.00    -0.274 OA
ATOM     21  N   UNL     1      32.582 -10.805 -22.055  0.00  0.00    -0.237 N 
ATOM     22  N   UNL     1      33.710 -10.133 -24.023  0.00  0.00    -0.399 NA
ATOM     23  C   UNL     1      33.364 -12.484 -23.650  0.00  0.00    +0.123 C 
ATOM     24  C   UNL     1      31.818 -10.444 -20.856  0.00  0.00    +0.100 C 
ATOM     25  C   UNL     1      32.064  -9.036 -20.347  0.00  0.00    +0.022 C 
ATOM     26  C   UNL     1      33.102  -9.854 -22.914  0.00  0.00    +0.165 C 
ATOM     27  C   UNL     1      31.957  -8.065 -21.503  0.00  0.00    +0.011 C 
ATOM     28  C   UNL     1      33.031  -8.390 -22.521  0.00  0.00    +0.075 C 
ATOM     29  C   UNL     1      32.653 -12.164 -22.372  0.00  0.00    +0.237 C 
ATOM     30  C   UNL     1      33.838 -11.454 -24.379  0.00  0.00    +0.096 C 
ATOM     31  C   UNL     1      34.596 -11.644 -25.666  0.00  0.00    +0.062 C 
ENDBRANCH  19  23
ENDBRANCH  18  19
ENDBRANCH   1  18
TORSDOF 4
ENDMDL
MODEL 8
REMARK VINA RESULT:     -12.0      3.698      9.589
REMARK  Name = 5073
REMARK  4 active torsions:
REMARK  status: ('A' for Active; 'I' for Inactive)
REMARK    1  A    between atoms: N_1  and  C_18
REMARK    2  A    between atoms: C_2  and  C_11
REMARK    3  A    between atoms: C_18  and  C_19
REMARK    4  A    between atoms: C_19  and  C_23
REMARK                            x       y       z     vdW  Elec       q    Type
REMARK                         _______ _______ _______ _____ _____    ______ ____
ROOT
ATOM      1  N   UNL     1      35.129 -19.414 -21.766  0.00  0.00    +0.387 N 
ATOM      2  C   UNL     1      34.915 -21.683 -19.917  0.00  0.00    +0.039 C 
ATOM      3  C   UNL     1      36.216 -20.883 -20.096  0.00  0.00    -0.017 C 
ATOM      4  C   UNL     1      33.709 -20.806 -20.292  0.00  0.00    -0.017 C 
ATOM      5  C   UNL     1      36.299 -20.261 -21.492  0.00  0.00    -0.077 C 
ATOM      6  C   UNL     1      33.883 -20.187 -21.681  0.00  0.00    -0.077 C 
ATOM      7  H   UNL     1      35.097 -18.685 -21.054  0.00  0.00    -0.080 HD
ENDROOT
BRANCH   2  11
ATOM      8  F   UNL     1      37.723 -23.315 -14.030  0.00  0.00    -0.204 F 
ATOM      9  O   UNL     1      33.838 -23.262 -16.864  0.00  0.00    -0.354 OA
ATOM     10  N   UNL     1      33.618 -22.790 -18.151  0.00  0.00    -0.081 NA
ATOM     11  C   UNL     1      34.790 -22.292 -18.539  0.00  0.00    +0.100 A 
ATOM     12  C   UNL     1      35.788 -22.410 -17.562  0.00  0.00    +0.054 A 
ATOM     13  C   UNL     1      35.133 -23.034 -16.513  0.00  0.00    +0.179 A 
ATOM     14  C   UNL     1      37.143 -22.078 -17.417  0.00  0.00    +0.007 C 
ATOM     15  C   UNL     1      35.731 -23.363 -15.300  0.00  0.00    +0.070 C 
ATOM     16  C   UNL     1      37.778 -22.397 -16.208  0.00  0.00    +0.030 C 
ATOM     17  C   UNL     1      37.083 -23.027 -15.171  0.00  0.00    +0.143 C 
ENDBRANCH   2  11
BRANCH   1  18
ATOM     18  C   UNL     1      35.252 -18.782 -23.080  0.00  0.00    -0.076 C 
BRANCH  18  19
ATOM     19  C   UNL     1      36.101 -17.524 -22.972  0.00  0.00    -0.007 C 
BRANCH  19  23
ATOM     20  O   UNL     1      35.075 -16.324 -20.680  0.00  0.00    -0.274 OA
ATOM     21  N   UNL     1      33.965 -14.614 -21.808  0.00  0.00    -0.237 N 
ATOM     22  N   UNL     1      34.031 -14.552 -24.173  0.00  0.00    -0.399 NA
ATOM     23  C   UNL     1      35.244 -16.294 -23.040  0.00  0.00    +0.123 C 
ATOM     24  C   UNL     1      33.405 -14.108 -20.551  0.00  0.00    +0.100 C 
ATOM     25  C   UNL     1      32.861 -12.694 -20.622  0.00  0.00    +0.022 C 
ATOM     26  C   UNL     1      33.623 -14.080 -23.038  0.00  0.00    +0.165 C 
ATOM     27  C   UNL     1      31.959 -12.570 -21.832  0.00  0.00    +0.011 C 
ATOM     28  C   UNL     1      32.775 -12.822 -23.083  0.00  0.00    +0.075 C 
ATOM     29  C   UNL     1      34.766 -15.756 -21.728  0.00  0.00    +0.237 C 
ATOM     30  C   UNL     1      34.845 -15.659 -24.160  0.00  0.00    +0.096 C 
ATOM     31  C   UNL     1      35.280 -16.081 -25.539  0.00  0.00    +0.062 C 
ENDBRANCH  19  23
ENDBRANCH  18  19
ENDBRANCH   1  18
TORSDOF 4
ENDMDL
MODEL 9
REMARK VINA RESULT:     -11.9      4.939     10.713
REMARK  Name = 5073
REMARK  4 active torsions:
REMARK  status: ('A' for Active; 'I' for Inactive)
REMARK    1  A    between atoms: N_1  and  C_18
REMARK    2  A    between atoms: C_2  and  C_11
REMARK    3  A    between atoms: C_18  and  C_19
REMARK    4  A    between atoms: C_19  and  C_23
REMARK                            x       y       z     vdW  Elec       q    Type
REMARK                         _______ _______ _______ _____ _____    ______ ____
ROOT
ATOM      1  N   UNL     1      34.998 -14.520 -22.972  0.00  0.00    +0.387 N 
ATOM      2  C   UNL     1      34.957 -17.317 -22.085  0.00  0.00    +0.039 C 
ATOM      3  C   UNL     1      35.602 -16.881 -23.412  0.00  0.00    -0.017 C 
ATOM      4  C   UNL     1      34.944 -16.138 -21.099  0.00  0.00    -0.017 C 
ATOM      5  C   UNL     1      34.944 -15.611 -23.957  0.00  0.00    -0.077 C 
ATOM      6  C   UNL     1      34.310 -14.895 -21.729  0.00  0.00    -0.077 C 
ATOM      7  H   UNL     1      35.978 -14.346 -22.750  0.00  0.00    -0.080 HD
ENDROOT
BRANCH   2  11
ATOM      8  F   UNL     1      34.325 -23.416 -19.324  0.00  0.00    -0.204 F 
ATOM      9  O   UNL     1      37.187 -19.873 -20.869  0.00  0.00    -0.354 OA
ATOM     10  N   UNL     1      36.927 -18.634 -21.440  0.00  0.00    -0.081 NA
ATOM     11  C   UNL     1      35.600 -18.557 -21.505  0.00  0.00    +0.100 A 
ATOM     12  C   UNL     1      34.958 -19.697 -21.001  0.00  0.00    +0.054 A 
ATOM     13  C   UNL     1      36.011 -20.506 -20.608  0.00  0.00    +0.179 A 
ATOM     14  C   UNL     1      33.644 -20.155 -20.823  0.00  0.00    +0.007 C 
ATOM     15  C   UNL     1      35.861 -21.767 -20.038  0.00  0.00    +0.070 C 
ATOM     16  C   UNL     1      33.456 -21.421 -20.251  0.00  0.00    +0.030 C 
ATOM     17  C   UNL     1      34.545 -22.211 -19.867  0.00  0.00    +0.143 C 
ENDBRANCH   2  11
BRANCH   1  18
ATOM     18  C   UNL     1      34.417 -13.299 -23.530  0.00  0.00    -0.076 C 
BRANCH  18  19
ATOM     19  C   UNL     1      32.965 -13.170 -23.093  0.00  0.00    -0.007 C 
BRANCH  19  23
ATOM     20  O   UNL     1      33.444 -10.830 -24.521  0.00  0.00    -0.274 OA
ATOM     21  N   UNL     1      32.761  -9.394 -22.819  0.00  0.00    -0.237 N 
ATOM     22  N   UNL     1      32.068 -10.299 -20.745  0.00  0.00    -0.399 NA
ATOM     23  C   UNL     1      32.703 -11.816 -22.501  0.00  0.00    +0.123 C 
ATOM     24  C   UNL     1      33.125  -8.222 -23.623  0.00  0.00    +0.100 C 
ATOM     25  C   UNL     1      32.523  -6.913 -23.146  0.00  0.00    +0.022 C 
ATOM     26  C   UNL     1      32.320  -9.286 -21.513  0.00  0.00    +0.165 C 
ATOM     27  C   UNL     1      32.751  -6.776 -21.655  0.00  0.00    +0.011 C 
ATOM     28  C   UNL     1      32.039  -7.907 -20.942  0.00  0.00    +0.075 C 
ATOM     29  C   UNL     1      33.004 -10.647 -23.386  0.00  0.00    +0.237 C 
ATOM     30  C   UNL     1      32.261 -11.561 -21.254  0.00  0.00    +0.096 C 
ATOM     31  C   UNL     1      31.895 -12.648 -20.277  0.00  0.00    +0.062 C 
ENDBRANCH  19  23
ENDBRANCH  18  19
ENDBRANCH   1  18
TORSDOF 4
ENDMDL
