MODEL 1
REMARK VINA RESULT:     -11.8      0.000      0.000
REMARK  Name = 154000
REMARK  7 active torsions:
REMARK  status: ('A' for Active; 'I' for Inactive)
REMARK    1  A    between atoms: O_1  and  C_5
REMARK    2  A    between atoms: O_1  and  C_17
REMARK    3  A    between atoms: C_2  and  C_8
REMARK    4  A    between atoms: C_8  and  C_13
REMARK    5  A    between atoms: C_17  and  C_18
REMARK    6  A    between atoms: C_18  and  C_21
REMARK    7  A    between atoms: C_23  and  C_25
REMARK                            x       y       z     vdW  Elec       q    Type
REMARK                         _______ _______ _______ _____ _____    ______ ____
ROOT
ATOM      1  O   UNL     1      36.125 -18.987 -21.723  0.00  0.00    -0.475 OA
ENDROOT
BRANCH   1   5
ATOM      2  C   UNL     1      34.376 -22.043 -19.558  0.00  0.00    -0.021 C 
ATOM      3  C   UNL     1      33.572 -21.172 -20.278  0.00  0.00    -0.001 C 
ATOM      4  C   UNL     1      35.756 -21.907 -19.551  0.00  0.00    -0.001 C 
ATOM      5  C   UNL     1      35.548 -19.993 -21.010  0.00  0.00    +0.139 C 
ATOM      6  C   UNL     1      34.161 -20.141 -21.008  0.00  0.00    +0.037 C 
ATOM      7  C   UNL     1      36.345 -20.876 -20.282  0.00  0.00    +0.037 C 
BRANCH   2   8
ATOM      8  C   UNL     1      33.738 -23.157 -18.767  0.00  0.00    +0.047 C 
BRANCH   8  13
ATOM      9  O   UNL     1      32.229 -23.936 -15.773  0.00  0.00    -0.346 OA
ATOM     10  O   UNL     1      35.642 -23.682 -16.473  0.00  0.00    -0.272 OA
ATOM     11  O   UNL     1      31.113 -22.650 -17.314  0.00  0.00    -0.247 OA
ATOM     12  N   UNL     1      33.585 -24.240 -15.531  0.00  0.00    -0.144 N 
ATOM     13  C   UNL     1      33.548 -22.782 -17.309  0.00  0.00    +0.184 C 
ATOM     14  C   UNL     1      34.425 -23.606 -16.415  0.00  0.00    +0.264 C 
ATOM     15  C   UNL     1      32.149 -23.085 -16.840  0.00  0.00    +0.348 C 
ATOM     16  H   UNL     1      33.894 -24.838 -14.812  0.00  0.00    +0.196 HD
ENDBRANCH   8  13
ENDBRANCH   2   8
ENDBRANCH   1   5
BRANCH   1  17
ATOM     17  C   UNL     1      35.351 -18.410 -22.774  0.00  0.00    +0.213 C 
BRANCH  17  18
ATOM     18  C   UNL     1      35.997 -17.106 -23.234  0.00  0.00    +0.105 C 
BRANCH  18  21
ATOM     19  O   UNL     1      33.609 -14.456 -24.009  0.00  0.00    -0.449 OA
ATOM     20  N   UNL     1      34.665 -15.300 -22.195  0.00  0.00    -0.373 NA
ATOM     21  C   UNL     1      35.019 -15.969 -23.319  0.00  0.00    +0.134 C 
ATOM     22  C   UNL     1      34.402 -15.485 -24.421  0.00  0.00    +0.216 C 
ATOM     23  C   UNL     1      33.822 -14.408 -22.666  0.00  0.00    +0.277 C 
ATOM     24  C   UNL     1      34.398 -15.799 -25.854  0.00  0.00    +0.055 C 
BRANCH  23  25
ATOM     25  C   UNL     1      33.090 -13.388 -21.967  0.00  0.00    +0.066 C 
ATOM     26  C   UNL     1      32.769 -13.552 -20.616  0.00  0.00    +0.006 C 
ATOM     27  C   UNL     1      32.693 -12.227 -22.635  0.00  0.00    +0.006 C 
ATOM     28  C   UNL     1      32.056 -12.562 -19.940  0.00  0.00    +0.000 C 
ATOM     29  C   UNL     1      31.981 -11.236 -21.958  0.00  0.00    +0.000 C 
ATOM     30  C   UNL     1      31.662 -11.404 -20.610  0.00  0.00    +0.000 C 
ENDBRANCH  23  25
ENDBRANCH  18  21
ENDBRANCH  17  18
ENDBRANCH   1  17
TORSDOF 7
ENDMDL
MODEL 2
REMARK VINA RESULT:     -11.5      3.527     10.178
REMARK  Name = 154000
REMARK  7 active torsions:
REMARK  status: ('A' for Active; 'I' for Inactive)
REMARK    1  A    between atoms: O_1  and  C_5
REMARK    2  A    between atoms: O_1  and  C_17
REMARK    3  A    between atoms: C_2  and  C_8
REMARK    4  A    between atoms: C_8  and  C_13
REMARK    5  A    between atoms: C_17  and  C_18
REMARK    6  A    between atoms: C_18  and  C_21
REMARK    7  A    between atoms: C_23  and  C_25
REMARK                            x       y       z     vdW  Elec       q    Type
REMARK                         _______ _______ _______ _____ _____    ______ ____
ROOT
ATOM      1  O   UNL     1      36.390 -22.915 -17.453  0.00  0.00    -0.475 OA
ENDROOT
BRANCH   1   5
ATOM      2  C   UNL     1      34.927 -20.687 -20.613  0.00  0.00    -0.021 C 
ATOM      3  C   UNL     1      34.060 -21.490 -19.887  0.00  0.00    -0.001 C 
ATOM      4  C   UNL     1      36.276 -20.619 -20.298  0.00  0.00    -0.001 C 
ATOM      5  C   UNL     1      35.908 -22.182 -18.494  0.00  0.00    +0.139 C 
ATOM      6  C   UNL     1      34.553 -22.242 -18.821  0.00  0.00    +0.037 C 
ATOM      7  C   UNL     1      36.769 -21.371 -19.232  0.00  0.00    +0.037 C 
BRANCH   2   8
ATOM      8  C   UNL     1      34.394 -19.875 -21.766  0.00  0.00    +0.047 C 
BRANCH   8  13
ATOM      9  O   UNL     1      35.229 -17.880 -24.442  0.00  0.00    -0.346 OA
ATOM     10  O   UNL     1      35.601 -17.197 -21.037  0.00  0.00    -0.272 OA
ATOM     11  O   UNL     1      35.195 -20.163 -24.687  0.00  0.00    -0.247 OA
ATOM     12  N   UNL     1      35.349 -17.001 -23.345  0.00  0.00    -0.144 N 
ATOM     13  C   UNL     1      35.497 -19.134 -22.497  0.00  0.00    +0.184 C 
ATOM     14  C   UNL     1      35.493 -17.675 -22.156  0.00  0.00    +0.264 C 
ATOM     15  C   UNL     1      35.290 -19.168 -23.989  0.00  0.00    +0.348 C 
ATOM     16  H   UNL     1      35.332 -16.020 -23.423  0.00  0.00    +0.196 HD
ENDBRANCH   8  13
ENDBRANCH   2   8
ENDBRANCH   1   5
BRANCH   1  17
ATOM     17  C   UNL     1      36.461 -22.270 -16.182  0.00  0.00    +0.213 C 
BRANCH  17  18
ATOM     18  C   UNL     1      36.495 -23.318 -15.073  0.00  0.00    +0.105 C 
BRANCH  18  21
ATOM     19  O   UNL     1      33.425 -24.479 -13.476  0.00  0.00    -0.449 OA
ATOM     20  N   UNL     1      34.062 -23.563 -15.444  0.00  0.00    -0.373 NA
ATOM     21  C   UNL     1      35.124 -23.730 -14.619  0.00  0.00    +0.134 C 
ATOM     22  C   UNL     1      34.771 -24.276 -13.433  0.00  0.00    +0.216 C 
ATOM     23  C   UNL     1      33.075 -24.027 -14.712  0.00  0.00    +0.277 C 
ATOM     24  C   UNL     1      35.467 -24.671 -12.202  0.00  0.00    +0.055 C 
BRANCH  23  25
ATOM     25  C   UNL     1      31.676 -24.126 -15.025  0.00  0.00    +0.066 C 
ATOM     26  C   UNL     1      31.037 -23.099 -15.727  0.00  0.00    +0.006 C 
ATOM     27  C   UNL     1      30.944 -25.248 -14.627  0.00  0.00    +0.006 C 
ATOM     28  C   UNL     1      29.679 -23.195 -16.028  0.00  0.00    +0.000 C 
ATOM     29  C   UNL     1      29.586 -25.345 -14.929  0.00  0.00    +0.000 C 
ATOM     30  C   UNL     1      28.953 -24.318 -15.630  0.00  0.00    +0.000 C 
ENDBRANCH  23  25
ENDBRANCH  18  21
ENDBRANCH  17  18
ENDBRANCH   1  17
TORSDOF 7
ENDMDL
MODEL 3
REMARK VINA RESULT:     -11.5      3.242     10.881
REMARK  Name = 154000
REMARK  7 active torsions:
REMARK  status: ('A' for Active; 'I' for Inactive)
REMARK    1  A    between atoms: O_1  and  C_5
REMARK    2  A    between atoms: O_1  and  C_17
REMARK    3  A    between atoms: C_2  and  C_8
REMARK    4  A    between atoms: C_8  and  C_13
REMARK    5  A    between atoms: C_17  and  C_18
REMARK    6  A    between atoms: C_18  and  C_21
REMARK    7  A    between atoms: C_23  and  C_25
REMARK                            x       y       z     vdW  Elec       q    Type
REMARK                         _______ _______ _______ _____ _____    ______ ____
ROOT
ATOM      1  O   UNL     1      33.237 -23.258 -18.382  0.00  0.00    -0.475 OA
ENDROOT
BRANCH   1   5
ATOM      2  C   UNL     1      35.296 -20.509 -20.682  0.00  0.00    -0.021 C 
ATOM      3  C   UNL     1      36.005 -21.433 -19.928  0.00  0.00    -0.001 C 
ATOM      4  C   UNL     1      33.910 -20.491 -20.678  0.00  0.00    -0.001 C 
ATOM      5  C   UNL     1      33.916 -22.353 -19.139  0.00  0.00    +0.139 C 
ATOM      6  C   UNL     1      35.311 -22.361 -19.152  0.00  0.00    +0.037 C 
ATOM      7  C   UNL     1      33.216 -21.419 -19.902  0.00  0.00    +0.037 C 
BRANCH   2   8
ATOM      8  C   UNL     1      36.048 -19.506 -21.520  0.00  0.00    +0.047 C 
BRANCH   8  13
ATOM      9  O   UNL     1      35.667 -16.559 -23.256  0.00  0.00    -0.346 OA
ATOM     10  O   UNL     1      35.248 -19.825 -24.421  0.00  0.00    -0.272 OA
ATOM     11  O   UNL     1      35.351 -16.594 -20.981  0.00  0.00    -0.247 OA
ATOM     12  N   UNL     1      35.636 -17.532 -24.277  0.00  0.00    -0.144 N 
ATOM     13  C   UNL     1      35.112 -18.619 -22.319  0.00  0.00    +0.184 C 
ATOM     14  C   UNL     1      35.331 -18.781 -23.792  0.00  0.00    +0.264 C 
ATOM     15  C   UNL     1      35.382 -17.159 -22.061  0.00  0.00    +0.348 C 
ATOM     16  H   UNL     1      35.813 -17.338 -25.225  0.00  0.00    +0.196 HD
ENDBRANCH   8  13
ENDBRANCH   2   8
ENDBRANCH   1   5
BRANCH   1  17
ATOM     17  C   UNL     1      32.482 -22.749 -17.283  0.00  0.00    +0.213 C 
BRANCH  17  18
ATOM     18  C   UNL     1      31.936 -23.907 -16.452  0.00  0.00    +0.105 C 
BRANCH  18  21
ATOM     19  O   UNL     1      33.323 -24.561 -13.140  0.00  0.00    -0.449 OA
ATOM     20  N   UNL     1      34.071 -24.050 -15.213  0.00  0.00    -0.373 NA
ATOM     21  C   UNL     1      32.719 -24.140 -15.192  0.00  0.00    +0.134 C 
ATOM     22  C   UNL     1      32.243 -24.445 -13.963  0.00  0.00    +0.216 C 
ATOM     23  C   UNL     1      34.379 -24.310 -13.962  0.00  0.00    +0.277 C 
ATOM     24  C   UNL     1      30.921 -24.661 -13.365  0.00  0.00    +0.055 C 
BRANCH  23  25
ATOM     25  C   UNL     1      35.670 -24.371 -13.334  0.00  0.00    +0.066 C 
ATOM     26  C   UNL     1      36.755 -24.936 -14.010  0.00  0.00    +0.006 C 
ATOM     27  C   UNL     1      35.847 -23.866 -12.043  0.00  0.00    +0.006 C 
ATOM     28  C   UNL     1      38.007 -24.996 -13.398  0.00  0.00    +0.000 C 
ATOM     29  C   UNL     1      37.099 -23.926 -11.432  0.00  0.00    +0.000 C 
ATOM     30  C   UNL     1      38.180 -24.491 -12.109  0.00  0.00    +0.000 C 
ENDBRANCH  23  25
ENDBRANCH  18  21
ENDBRANCH  17  18
ENDBRANCH   1  17
TORSDOF 7
ENDMDL
MODEL 4
REMARK VINA RESULT:     -11.4      3.652     11.237
REMARK  Name = 154000
REMARK  7 active torsions:
REMARK  status: ('A' for Active; 'I' for Inactive)
REMARK    1  A    between atoms: O_1  and  C_5
REMARK    2  A    between atoms: O_1  and  C_17
REMARK    3  A    between atoms: C_2  and  C_8
REMARK    4  A    between atoms: C_8  and  C_13
REMARK    5  A    between atoms: C_17  and  C_18
REMARK    6  A    between atoms: C_18  and  C_21
REMARK    7  A    between atoms: C_23  and  C_25
REMARK                            x       y       z     vdW  Elec       q    Type
REMARK                         _______ _______ _______ _____ _____    ______ ____
ROOT
ATOM      1  O   UNL     1      34.427 -13.912 -24.018  0.00  0.00    -0.475 OA
ENDROOT
BRANCH   1   5
ATOM      2  C   UNL     1      32.538 -10.423 -22.860  0.00  0.00    -0.021 C 
ATOM      3  C   UNL     1      32.227 -11.612 -22.216  0.00  0.00    -0.001 C 
ATOM      4  C   UNL     1      33.471 -10.384 -23.885  0.00  0.00    -0.001 C 
ATOM      5  C   UNL     1      33.805 -12.764 -23.636  0.00  0.00    +0.139 C 
ATOM      6  C   UNL     1      32.864 -12.789 -22.606  0.00  0.00    +0.037 C 
ATOM      7  C   UNL     1      34.108 -11.562 -24.275  0.00  0.00    +0.037 C 
BRANCH   2   8
ATOM      8  C   UNL     1      31.848  -9.150 -22.438  0.00  0.00    +0.047 C 
BRANCH   8  13
ATOM      9  O   UNL     1      32.105  -5.725 -22.645  0.00  0.00    -0.346 OA
ATOM     10  O   UNL     1      33.317  -7.837 -20.141  0.00  0.00    -0.272 OA
ATOM     11  O   UNL     1      31.908  -6.974 -24.563  0.00  0.00    -0.247 OA
ATOM     12  N   UNL     1      32.526  -5.993 -21.326  0.00  0.00    -0.144 N 
ATOM     13  C   UNL     1      32.776  -7.953 -22.504  0.00  0.00    +0.184 C 
ATOM     14  C   UNL     1      32.921  -7.300 -21.163  0.00  0.00    +0.264 C 
ATOM     15  C   UNL     1      32.214  -6.869 -23.387  0.00  0.00    +0.348 C 
ATOM     16  H   UNL     1      32.535  -5.322 -20.606  0.00  0.00    +0.196 HD
ENDBRANCH   8  13
ENDBRANCH   2   8
ENDBRANCH   1   5
BRANCH   1  17
ATOM     17  C   UNL     1      34.542 -14.946 -23.039  0.00  0.00    +0.213 C 
BRANCH  17  18
ATOM     18  C   UNL     1      35.649 -15.915 -23.440  0.00  0.00    +0.105 C 
BRANCH  18  21
ATOM     19  O   UNL     1      34.665 -19.426 -23.280  0.00  0.00    -0.449 OA
ATOM     20  N   UNL     1      35.482 -17.837 -21.893  0.00  0.00    -0.373 NA
ATOM     21  C   UNL     1      35.306 -17.347 -23.144  0.00  0.00    +0.134 C 
ATOM     22  C   UNL     1      34.818 -18.278 -23.996  0.00  0.00    +0.216 C 
ATOM     23  C   UNL     1      35.082 -19.081 -22.031  0.00  0.00    +0.277 C 
ATOM     24  C   UNL     1      34.444 -18.320 -25.414  0.00  0.00    +0.055 C 
BRANCH  23  25
ATOM     25  C   UNL     1      35.024 -20.134 -21.054  0.00  0.00    +0.066 C 
ATOM     26  C   UNL     1      33.789 -20.624 -20.620  0.00  0.00    +0.006 C 
ATOM     27  C   UNL     1      36.203 -20.672 -20.531  0.00  0.00    +0.006 C 
ATOM     28  C   UNL     1      33.735 -21.643 -19.670  0.00  0.00    +0.000 C 
ATOM     29  C   UNL     1      36.149 -21.692 -19.582  0.00  0.00    +0.000 C 
ATOM     30  C   UNL     1      34.914 -22.178 -19.151  0.00  0.00    +0.000 C 
ENDBRANCH  23  25
ENDBRANCH  18  21
ENDBRANCH  17  18
ENDBRANCH   1  17
TORSDOF 7
ENDMDL
MODEL 5
REMARK VINA RESULT:     -11.4      2.570     10.244
REMARK  Name = 154000
REMARK  7 active torsions:
REMARK  status: ('A' for Active; 'I' for Inactive)
REMARK    1  A    between atoms: O_1  and  C_5
REMARK    2  A    between atoms: O_1  and  C_17
REMARK    3  A    between atoms: C_2  and  C_8
REMARK    4  A    between atoms: C_8  and  C_13
REMARK    5  A    between atoms: C_17  and  C_18
REMARK    6  A    between atoms: C_18  and  C_21
REMARK    7  A    between atoms: C_23  and  C_25
REMARK                            x       y       z     vdW  Elec       q    Type
REMARK                         _______ _______ _______ _____ _____    ______ ____
ROOT
ATOM      1  O   UNL     1      35.098 -20.485 -21.376  0.00  0.00    -0.475 OA
ENDROOT
BRANCH   1   5
ATOM      2  C   UNL     1      35.381 -17.152 -23.805  0.00  0.00    -0.021 C 
ATOM      3  C   UNL     1      35.710 -17.046 -22.462  0.00  0.00    -0.001 C 
ATOM      4  C   UNL     1      34.959 -18.356 -24.348  0.00  0.00    -0.001 C 
ATOM      5  C   UNL     1      35.191 -19.387 -22.175  0.00  0.00    +0.139 C 
ATOM      6  C   UNL     1      35.614 -18.170 -21.642  0.00  0.00    +0.037 C 
ATOM      7  C   UNL     1      34.863 -19.480 -23.528  0.00  0.00    +0.037 C 
BRANCH   2   8
ATOM      8  C   UNL     1      35.483 -15.936 -24.691  0.00  0.00    +0.047 C 
BRANCH   8  13
ATOM      9  O   UNL     1      34.031 -12.827 -24.960  0.00  0.00    -0.346 OA
ATOM     10  O   UNL     1      33.555 -15.620 -27.002  0.00  0.00    -0.272 OA
ATOM     11  O   UNL     1      34.734 -13.586 -22.909  0.00  0.00    -0.247 OA
ATOM     12  N   UNL     1      33.683 -13.444 -26.180  0.00  0.00    -0.144 N 
ATOM     13  C   UNL     1      34.193 -15.138 -24.710  0.00  0.00    +0.184 C 
ATOM     14  C   UNL     1      33.773 -14.814 -26.112  0.00  0.00    +0.264 C 
ATOM     15  C   UNL     1      34.365 -13.794 -24.053  0.00  0.00    +0.348 C 
ATOM     16  H   UNL     1      33.408 -12.950 -26.985  0.00  0.00    +0.196 HD
ENDBRANCH   8  13
ENDBRANCH   2   8
ENDBRANCH   1   5
BRANCH   1  17
ATOM     17  C   UNL     1      35.994 -20.559 -20.267  0.00  0.00    +0.213 C 
BRANCH  17  18
ATOM     18  C   UNL     1      36.220 -22.018 -19.884  0.00  0.00    +0.105 C 
BRANCH  18  21
ATOM     19  O   UNL     1      35.496 -22.706 -16.374  0.00  0.00    -0.449 OA
ATOM     20  N   UNL     1      34.405 -22.711 -18.355  0.00  0.00    -0.373 NA
ATOM     21  C   UNL     1      35.701 -22.349 -18.514  0.00  0.00    +0.134 C 
ATOM     22  C   UNL     1      36.378 -22.337 -17.344  0.00  0.00    +0.216 C 
ATOM     23  C   UNL     1      34.338 -22.914 -17.058  0.00  0.00    +0.277 C 
ATOM     24  C   UNL     1      37.750 -22.038 -16.920  0.00  0.00    +0.055 C 
BRANCH  23  25
ATOM     25  C   UNL     1      33.217 -23.321 -16.256  0.00  0.00    +0.066 C 
ATOM     26  C   UNL     1      31.927 -23.316 -16.794  0.00  0.00    +0.006 C 
ATOM     27  C   UNL     1      33.411 -23.721 -14.931  0.00  0.00    +0.006 C 
ATOM     28  C   UNL     1      30.840 -23.709 -16.014  0.00  0.00    +0.000 C 
ATOM     29  C   UNL     1      32.324 -24.115 -14.151  0.00  0.00    +0.000 C 
ATOM     30  C   UNL     1      31.038 -24.109 -14.692  0.00  0.00    +0.000 C 
ENDBRANCH  23  25
ENDBRANCH  18  21
ENDBRANCH  17  18
ENDBRANCH   1  17
TORSDOF 7
ENDMDL
MODEL 6
REMARK VINA RESULT:     -11.4      3.198      5.607
REMARK  Name = 154000
REMARK  7 active torsions:
REMARK  status: ('A' for Active; 'I' for Inactive)
REMARK    1  A    between atoms: O_1  and  C_5
REMARK    2  A    between atoms: O_1  and  C_17
REMARK    3  A    between atoms: C_2  and  C_8
REMARK    4  A    between atoms: C_8  and  C_13
REMARK    5  A    between atoms: C_17  and  C_18
REMARK    6  A    between atoms: C_18  and  C_21
REMARK    7  A    between atoms: C_23  and  C_25
REMARK                            x       y       z     vdW  Elec       q    Type
REMARK                         _______ _______ _______ _____ _____    ______ ____
ROOT
ATOM      1  O   UNL     1      34.107 -14.735 -25.920  0.00  0.00    -0.475 OA
ENDROOT
BRANCH   1   5
ATOM      2  C   UNL     1      35.107 -18.193 -23.887  0.00  0.00    -0.021 C 
ATOM      3  C   UNL     1      34.470 -18.285 -25.116  0.00  0.00    -0.001 C 
ATOM      4  C   UNL     1      35.414 -16.961 -23.329  0.00  0.00    -0.001 C 
ATOM      5  C   UNL     1      34.436 -15.874 -25.251  0.00  0.00    +0.139 C 
ATOM      6  C   UNL     1      34.132 -17.119 -25.802  0.00  0.00    +0.037 C 
ATOM      7  C   UNL     1      35.076 -15.795 -24.015  0.00  0.00    +0.037 C 
BRANCH   2   8
ATOM      8  C   UNL     1      35.471 -19.454 -23.145  0.00  0.00    +0.047 C 
BRANCH   8  13
ATOM      9  O   UNL     1      35.312 -20.950 -20.051  0.00  0.00    -0.346 OA
ATOM     10  O   UNL     1      37.834 -18.905 -21.336  0.00  0.00    -0.272 OA
ATOM     11  O   UNL     1      33.374 -20.444 -21.175  0.00  0.00    -0.247 OA
ATOM     12  N   UNL     1      36.643 -20.486 -20.108  0.00  0.00    -0.144 N 
ATOM     13  C   UNL     1      35.451 -19.254 -21.642  0.00  0.00    +0.184 C 
ATOM     14  C   UNL     1      36.804 -19.491 -21.042  0.00  0.00    +0.264 C 
ATOM     15  C   UNL     1      34.562 -20.262 -20.963  0.00  0.00    +0.348 C 
ATOM     16  H   UNL     1      37.370 -20.834 -19.543  0.00  0.00    +0.196 HD
ENDBRANCH   8  13
ENDBRANCH   2   8
ENDBRANCH   1   5
BRANCH   1  17
ATOM     17  C   UNL     1      33.308 -13.779 -25.221  0.00  0.00    +0.213 C 
BRANCH  17  18
ATOM     18  C   UNL     1      34.207 -12.723 -24.586  0.00  0.00    +0.105 C 
BRANCH  18  21
ATOM     19  O   UNL     1      32.258 -10.922 -22.081  0.00  0.00    -0.449 OA
ATOM     20  N   UNL     1      33.430 -10.461 -23.960  0.00  0.00    -0.373 NA
ATOM     21  C   UNL     1      33.458 -11.787 -23.682  0.00  0.00    +0.134 C 
ATOM     22  C   UNL     1      32.764 -12.091 -22.562  0.00  0.00    +0.216 C 
ATOM     23  C   UNL     1      32.700  -9.993 -22.972  0.00  0.00    +0.277 C 
ATOM     24  C   UNL     1      32.459 -13.312 -21.807  0.00  0.00    +0.055 C 
BRANCH  23  25
ATOM     25  C   UNL     1      32.300  -8.641 -22.695  0.00  0.00    +0.066 C 
ATOM     26  C   UNL     1      32.683  -8.024 -21.500  0.00  0.00    +0.006 C 
ATOM     27  C   UNL     1      31.524  -7.935 -23.618  0.00  0.00    +0.006 C 
ATOM     28  C   UNL     1      32.293  -6.713 -21.231  0.00  0.00    +0.000 C 
ATOM     29  C   UNL     1      31.134  -6.623 -23.349  0.00  0.00    +0.000 C 
ATOM     30  C   UNL     1      31.519  -6.011 -22.155  0.00  0.00    +0.000 C 
ENDBRANCH  23  25
ENDBRANCH  18  21
ENDBRANCH  17  18
ENDBRANCH   1  17
TORSDOF 7
ENDMDL
MODEL 7
REMARK VINA RESULT:     -11.4      3.588     11.156
REMARK  Name = 154000
REMARK  7 active torsions:
REMARK  status: ('A' for Active; 'I' for Inactive)
REMARK    1  A    between atoms: O_1  and  C_5
REMARK    2  A    between atoms: O_1  and  C_17
REMARK    3  A    between atoms: C_2  and  C_8
REMARK    4  A    between atoms: C_8  and  C_13
REMARK    5  A    between atoms: C_17  and  C_18
REMARK    6  A    between atoms: C_18  and  C_21
REMARK    7  A    between atoms: C_23  and  C_25
REMARK                            x       y       z     vdW  Elec       q    Type
REMARK                         _______ _______ _______ _____ _____    ______ ____
ROOT
ATOM      1  O   UNL     1      33.741 -14.434 -23.634  0.00  0.00    -0.475 OA
ENDROOT
BRANCH   1   5
ATOM      2  C   UNL     1      33.334 -10.324 -23.449  0.00  0.00    -0.021 C 
ATOM      3  C   UNL     1      32.622 -11.120 -22.563  0.00  0.00    -0.001 C 
ATOM      4  C   UNL     1      34.179 -10.883 -24.396  0.00  0.00    -0.001 C 
ATOM      5  C   UNL     1      33.606 -13.081 -23.573  0.00  0.00    +0.139 C 
ATOM      6  C   UNL     1      32.759 -12.506 -22.625  0.00  0.00    +0.037 C 
ATOM      7  C   UNL     1      34.316 -12.269 -24.458  0.00  0.00    +0.037 C 
BRANCH   2   8
ATOM      8  C   UNL     1      33.185  -8.825 -23.382  0.00  0.00    +0.047 C 
BRANCH   8  13
ATOM      9  O   UNL     1      31.806  -6.536 -21.215  0.00  0.00    -0.346 OA
ATOM     10  O   UNL     1      30.717  -7.410 -24.416  0.00  0.00    -0.272 OA
ATOM     11  O   UNL     1      33.011  -8.308 -20.389  0.00  0.00    -0.247 OA
ATOM     12  N   UNL     1      31.125  -6.276 -22.422  0.00  0.00    -0.144 N 
ATOM     13  C   UNL     1      31.961  -8.412 -22.587  0.00  0.00    +0.184 C 
ATOM     14  C   UNL     1      31.189  -7.338 -23.292  0.00  0.00    +0.264 C 
ATOM     15  C   UNL     1      32.343  -7.792 -21.269  0.00  0.00    +0.348 C 
ATOM     16  H   UNL     1      30.658  -5.432 -22.618  0.00  0.00    +0.196 HD
ENDBRANCH   8  13
ENDBRANCH   2   8
ENDBRANCH   1   5
BRANCH   1  17
ATOM     17  C   UNL     1      34.672 -15.035 -22.735  0.00  0.00    +0.213 C 
BRANCH  17  18
ATOM     18  C   UNL     1      35.560 -16.018 -23.493  0.00  0.00    +0.105 C 
BRANCH  18  21
ATOM     19  O   UNL     1      34.678 -19.551 -23.243  0.00  0.00    -0.449 OA
ATOM     20  N   UNL     1      35.454 -17.905 -21.899  0.00  0.00    -0.373 NA
ATOM     21  C   UNL     1      35.260 -17.451 -23.161  0.00  0.00    +0.134 C 
ATOM     22  C   UNL     1      34.796 -18.416 -23.988  0.00  0.00    +0.216 C 
ATOM     23  C   UNL     1      35.090 -19.164 -22.005  0.00  0.00    +0.277 C 
ATOM     24  C   UNL     1      34.418 -18.503 -25.403  0.00  0.00    +0.055 C 
BRANCH  23  25
ATOM     25  C   UNL     1      35.067 -20.193 -21.003  0.00  0.00    +0.066 C 
ATOM     26  C   UNL     1      33.848 -20.710 -20.553  0.00  0.00    +0.006 C 
ATOM     27  C   UNL     1      36.263 -20.682 -20.470  0.00  0.00    +0.006 C 
ATOM     28  C   UNL     1      33.827 -21.708 -19.579  0.00  0.00    +0.000 C 
ATOM     29  C   UNL     1      36.241 -21.680 -19.496  0.00  0.00    +0.000 C 
ATOM     30  C   UNL     1      35.023 -22.193 -19.050  0.00  0.00    +0.000 C 
ENDBRANCH  23  25
ENDBRANCH  18  21
ENDBRANCH  17  18
ENDBRANCH   1  17
TORSDOF 7
ENDMDL
MODEL 8
REMARK VINA RESULT:     -11.3      3.066      5.026
REMARK  Name = 154000
REMARK  7 active torsions:
REMARK  status: ('A' for Active; 'I' for Inactive)
REMARK    1  A    between atoms: O_1  and  C_5
REMARK    2  A    between atoms: O_1  and  C_17
REMARK    3  A    between atoms: C_2  and  C_8
REMARK    4  A    between atoms: C_8  and  C_13
REMARK    5  A    between atoms: C_17  and  C_18
REMARK    6  A    between atoms: C_18  and  C_21
REMARK    7  A    between atoms: C_23  and  C_25
REMARK                            x       y       z     vdW  Elec       q    Type
REMARK                         _______ _______ _______ _____ _____    ______ ____
ROOT
ATOM      1  O   UNL     1      35.337 -14.819 -23.633  0.00  0.00    -0.475 OA
ENDROOT
BRANCH   1   5
ATOM      2  C   UNL     1      35.267 -18.786 -22.475  0.00  0.00    -0.021 C 
ATOM      3  C   UNL     1      35.188 -18.469 -23.823  0.00  0.00    -0.001 C 
ATOM      4  C   UNL     1      35.369 -17.797 -21.509  0.00  0.00    -0.001 C 
ATOM      5  C   UNL     1      35.314 -16.125 -23.252  0.00  0.00    +0.139 C 
ATOM      6  C   UNL     1      35.212 -17.130 -24.214  0.00  0.00    +0.037 C 
ATOM      7  C   UNL     1      35.392 -16.459 -21.900  0.00  0.00    +0.037 C 
BRANCH   2   8
ATOM      8  C   UNL     1      35.240 -20.234 -22.053  0.00  0.00    +0.047 C 
BRANCH   8  13
ATOM      9  O   UNL     1      33.267 -22.066 -19.910  0.00  0.00    -0.346 OA
ATOM     10  O   UNL     1      36.703 -21.469 -19.709  0.00  0.00    -0.272 OA
ATOM     11  O   UNL     1      32.342 -20.357 -21.135  0.00  0.00    -0.247 OA
ATOM     12  N   UNL     1      34.574 -22.391 -19.490  0.00  0.00    -0.144 N 
ATOM     13  C   UNL     1      34.729 -20.402 -20.635  0.00  0.00    +0.184 C 
ATOM     14  C   UNL     1      35.497 -21.458 -19.900  0.00  0.00    +0.264 C 
ATOM     15  C   UNL     1      33.306 -20.897 -20.617  0.00  0.00    +0.348 C 
ATOM     16  H   UNL     1      34.798 -23.193 -18.965  0.00  0.00    +0.196 HD
ENDBRANCH   8  13
ENDBRANCH   2   8
ENDBRANCH   1   5
BRANCH   1  17
ATOM     17  C   UNL     1      34.596 -13.896 -22.834  0.00  0.00    +0.213 C 
BRANCH  17  18
ATOM     18  C   UNL     1      33.436 -13.328 -23.645  0.00  0.00    +0.105 C 
BRANCH  18  21
ATOM     19  O   UNL     1      32.240 -10.203 -22.186  0.00  0.00    -0.449 OA
ATOM     20  N   UNL     1      33.476 -10.876 -23.957  0.00  0.00    -0.373 NA
ATOM     21  C   UNL     1      33.058 -11.936 -23.225  0.00  0.00    +0.134 C 
ATOM     22  C   UNL     1      32.316 -11.563 -22.158  0.00  0.00    +0.216 C 
ATOM     23  C   UNL     1      32.959  -9.867 -23.292  0.00  0.00    +0.277 C 
ATOM     24  C   UNL     1      31.624 -12.248 -21.060  0.00  0.00    +0.055 C 
BRANCH  23  25
ATOM     25  C   UNL     1      33.044  -8.458 -23.562  0.00  0.00    +0.066 C 
ATOM     26  C   UNL     1      34.290  -7.842 -23.706  0.00  0.00    +0.006 C 
ATOM     27  C   UNL     1      31.879  -7.694 -23.679  0.00  0.00    +0.006 C 
ATOM     28  C   UNL     1      34.371  -6.475 -23.965  0.00  0.00    +0.000 C 
ATOM     29  C   UNL     1      31.960  -6.327 -23.939  0.00  0.00    +0.000 C 
ATOM     30  C   UNL     1      33.206  -5.716 -24.082  0.00  0.00    +0.000 C 
ENDBRANCH  23  25
ENDBRANCH  18  21
ENDBRANCH  17  18
ENDBRANCH   1  17
TORSDOF 7
ENDMDL
MODEL 9
REMARK VINA RESULT:     -11.0      2.370      4.025
REMARK  Name = 154000
REMARK  7 active torsions:
REMARK  status: ('A' for Active; 'I' for Inactive)
REMARK    1  A    between atoms: O_1  and  C_5
REMARK    2  A    between atoms: O_1  and  C_17
REMARK    3  A    between atoms: C_2  and  C_8
REMARK    4  A    between atoms: C_8  and  C_13
REMARK    5  A    between atoms: C_17  and  C_18
REMARK    6  A    between atoms: C_18  and  C_21
REMARK    7  A    between atoms: C_23  and  C_25
REMARK                            x       y       z     vdW  Elec       q    Type
REMARK                         _______ _______ _______ _____ _____    ______ ____
ROOT
ATOM      1  O   UNL     1      34.824 -16.849 -25.785  0.00  0.00    -0.475 OA
ENDROOT
BRANCH   1   5
ATOM      2  C   UNL     1      35.318 -18.782 -22.165  0.00  0.00    -0.021 C 
ATOM      3  C   UNL     1      34.891 -19.504 -23.270  0.00  0.00    -0.001 C 
ATOM      4  C   UNL     1      35.582 -17.424 -22.253  0.00  0.00    -0.001 C 
ATOM      5  C   UNL     1      34.986 -17.486 -24.594  0.00  0.00    +0.139 C 
ATOM      6  C   UNL     1      34.724 -18.852 -24.492  0.00  0.00    +0.037 C 
ATOM      7  C   UNL     1      35.415 -16.772 -23.475  0.00  0.00    +0.037 C 
BRANCH   2   8
ATOM      8  C   UNL     1      35.497 -19.487 -20.844  0.00  0.00    +0.047 C 
BRANCH   8  13
ATOM      9  O   UNL     1      34.724 -22.303 -19.024  0.00  0.00    -0.346 OA
ATOM     10  O   UNL     1      32.568 -20.248 -20.849  0.00  0.00    -0.272 OA
ATOM     11  O   UNL     1      36.826 -22.063 -19.918  0.00  0.00    -0.247 OA
ATOM     12  N   UNL     1      33.456 -21.753 -19.308  0.00  0.00    -0.144 N 
ATOM     13  C   UNL     1      34.911 -20.886 -20.864  0.00  0.00    +0.184 C 
ATOM     14  C   UNL     1      33.493 -20.889 -20.376  0.00  0.00    +0.264 C 
ATOM     15  C   UNL     1      35.634 -21.801 -19.911  0.00  0.00    +0.348 C 
ATOM     16  H   UNL     1      32.640 -21.965 -18.800  0.00  0.00    +0.196 HD
ENDBRANCH   8  13
ENDBRANCH   2   8
ENDBRANCH   1   5
BRANCH   1  17
ATOM     17  C   UNL     1      33.632 -16.081 -25.954  0.00  0.00    +0.213 C 
BRANCH  17  18
ATOM     18  C   UNL     1      33.991 -14.649 -26.338  0.00  0.00    +0.105 C 
BRANCH  18  21
ATOM     19  O   UNL     1      33.801 -11.907 -23.936  0.00  0.00    -0.449 OA
ATOM     20  N   UNL     1      33.168 -14.074 -24.078  0.00  0.00    -0.373 NA
ATOM     21  C   UNL     1      33.800 -13.677 -25.209  0.00  0.00    +0.134 C 
ATOM     22  C   UNL     1      34.189 -12.383 -25.152  0.00  0.00    +0.216 C 
ATOM     23  C   UNL     1      33.198 -12.979 -23.353  0.00  0.00    +0.277 C 
ATOM     24  C   UNL     1      34.887 -11.449 -26.043  0.00  0.00    +0.055 C 
BRANCH  23  25
ATOM     25  C   UNL     1      32.683 -12.747 -22.032  0.00  0.00    +0.066 C 
ATOM     26  C   UNL     1      31.998 -11.563 -21.741  0.00  0.00    +0.006 C 
ATOM     27  C   UNL     1      32.865 -13.702 -21.029  0.00  0.00    +0.006 C 
ATOM     28  C   UNL     1      31.501 -11.337 -20.457  0.00  0.00    +0.000 C 
ATOM     29  C   UNL     1      32.367 -13.478 -19.745  0.00  0.00    +0.000 C 
ATOM     30  C   UNL     1      31.685 -12.295 -19.459  0.00  0.00    +0.000 C 
ENDBRANCH  23  25
ENDBRANCH  18  21
ENDBRANCH  17  18
ENDBRANCH   1  17
TORSDOF 7
ENDMDL
