MODEL 1
REMARK VINA RESULT:     -11.2      0.000      0.000
REMARK  Name = 25134248
REMARK  7 active torsions:
REMARK  status: ('A' for Active; 'I' for Inactive)
REMARK    1  A    between atoms: N_2  and  C_20
REMARK    2  A    between atoms: C_3  and  C_7
REMARK    3  A    between atoms: C_11  and  C_12
REMARK    4  A    between atoms: C_12  and  C_13
REMARK    5  A    between atoms: C_13  and  C_14
REMARK    6  A    between atoms: C_20  and  C_21
REMARK    7  A    between atoms: C_26  and  C_29
REMARK                            x       y       z     vdW  Elec       q    Type
REMARK                         _______ _______ _______ _____ _____    ______ ____
ROOT
ATOM      1  O   UNL     1      35.763 -23.848 -13.564  0.00  0.00    -0.273 OA
ATOM      2  N   UNL     1      34.026 -25.002 -14.598  0.00  0.00    -0.299 N 
ATOM      3  C   UNL     1      35.343 -24.609 -14.431  0.00  0.00    +0.241 C 
ATOM      4  H   UNL     1      33.811 -25.619 -15.335  0.00  0.00    +0.150 HD
ENDROOT
BRANCH   3   7
ATOM      5  O   UNL     1      38.938 -22.827 -16.118  0.00  0.00    -0.275 OA
ATOM      6  N   UNL     1      37.521 -24.514 -15.423  0.00  0.00    -0.273 N 
ATOM      7  C   UNL     1      36.256 -25.244 -15.437  0.00  0.00    +0.152 C 
ATOM      8  C   UNL     1      36.628 -26.661 -15.007  0.00  0.00    +0.031 C 
ATOM      9  C   UNL     1      38.564 -25.286 -14.759  0.00  0.00    +0.094 C 
ATOM     10  C   UNL     1      37.840 -26.450 -14.103  0.00  0.00    +0.024 C 
ATOM     11  C   UNL     1      37.810 -23.319 -16.062  0.00  0.00    +0.226 C 
BRANCH  11  12
ATOM     12  C   UNL     1      36.645 -22.616 -16.712  0.00  0.00    +0.085 C 
BRANCH  12  13
ATOM     13  C   UNL     1      37.087 -21.929 -17.993  0.00  0.00    +0.010 C 
BRANCH  13  14
ATOM     14  C   UNL     1      36.022 -21.969 -19.086  0.00  0.00    +0.000 C 
ATOM     15  C   UNL     1      34.632 -22.208 -18.480  0.00  0.00    +0.000 C 
ATOM     16  C   UNL     1      36.042 -20.676 -19.911  0.00  0.00    +0.000 C 
ATOM     17  C   UNL     1      33.542 -22.199 -19.549  0.00  0.00    +0.000 C 
ATOM     18  C   UNL     1      34.950 -20.669 -20.978  0.00  0.00    +0.000 C 
ATOM     19  C   UNL     1      33.572 -20.916 -20.373  0.00  0.00    +0.000 C 
ENDBRANCH  13  14
ENDBRANCH  12  13
ENDBRANCH  11  12
ENDBRANCH   3   7
BRANCH   2  20
ATOM     20  C   UNL     1      32.952 -24.549 -13.744  0.00  0.00    +0.116 C 
BRANCH  20  21
ATOM     21  C   UNL     1      31.715 -24.213 -14.526  0.00  0.00    -0.003 C 
ATOM     22  C   UNL     1      31.712 -23.113 -15.385  0.00  0.00    -0.003 C 
ATOM     23  C   UNL     1      30.571 -24.999 -14.397  0.00  0.00    -0.003 C 
ATOM     24  C   UNL     1      30.564 -22.800 -16.113  0.00  0.00    +0.002 C 
ATOM     25  C   UNL     1      29.423 -24.687 -15.124  0.00  0.00    +0.002 C 
ATOM     26  C   UNL     1      29.419 -23.587 -15.983  0.00  0.00    +0.031 C 
BRANCH  26  29
ATOM     27  N   UNL     1      27.212 -22.471 -16.200  0.00  0.00    -0.343 N 
ATOM     28  N   UNL     1      28.079 -23.720 -17.974  0.00  0.00    -0.285 NA
ATOM     29  C   UNL     1      28.223 -23.261 -16.743  0.00  0.00    +0.117 C 
ATOM     30  H   UNL     1      26.411 -22.263 -16.732  0.00  0.00    +0.144 HD
ATOM     31  H   UNL     1      27.299 -22.123 -15.283  0.00  0.00    +0.144 HD
ATOM     32  H   UNL     1      27.271 -23.500 -18.490  0.00  0.00    +0.188 HD
ENDBRANCH  26  29
ENDBRANCH  20  21
ENDBRANCH   2  20
TORSDOF 7
ENDMDL
MODEL 2
REMARK VINA RESULT:     -11.1      2.918      6.263
REMARK  Name = 25134248
REMARK  7 active torsions:
REMARK  status: ('A' for Active; 'I' for Inactive)
REMARK    1  A    between atoms: N_2  and  C_20
REMARK    2  A    between atoms: C_3  and  C_7
REMARK    3  A    between atoms: C_11  and  C_12
REMARK    4  A    between atoms: C_12  and  C_13
REMARK    5  A    between atoms: C_13  and  C_14
REMARK    6  A    between atoms: C_20  and  C_21
REMARK    7  A    between atoms: C_26  and  C_29
REMARK                            x       y       z     vdW  Elec       q    Type
REMARK                         _______ _______ _______ _____ _____    ______ ____
ROOT
ATOM      1  O   UNL     1      35.237 -25.037 -16.170  0.00  0.00    -0.273 OA
ATOM      2  N   UNL     1      34.906 -22.857 -16.916  0.00  0.00    -0.299 N 
ATOM      3  C   UNL     1      35.325 -23.822 -16.015  0.00  0.00    +0.241 C 
ATOM      4  H   UNL     1      35.030 -21.909 -16.678  0.00  0.00    +0.150 HD
ENDROOT
BRANCH   3   7
ATOM      5  O   UNL     1      34.807 -25.230 -11.929  0.00  0.00    -0.275 OA
ATOM      6  N   UNL     1      35.861 -24.207 -13.713  0.00  0.00    -0.273 N 
ATOM      7  C   UNL     1      35.945 -23.223 -14.789  0.00  0.00    +0.152 C 
ATOM      8  C   UNL     1      37.442 -23.007 -14.992  0.00  0.00    +0.031 C 
ATOM      9  C   UNL     1      37.162 -24.805 -13.446  0.00  0.00    +0.094 C 
ATOM     10  C   UNL     1      38.051 -24.348 -14.593  0.00  0.00    +0.024 C 
ATOM     11  C   UNL     1      34.767 -24.481 -12.907  0.00  0.00    +0.226 C 
BRANCH  11  12
ATOM     12  C   UNL     1      33.477 -23.800 -13.286  0.00  0.00    +0.085 C 
BRANCH  12  13
ATOM     13  C   UNL     1      32.394 -24.830 -13.561  0.00  0.00    +0.010 C 
BRANCH  13  14
ATOM     14  C   UNL     1      31.658 -24.580 -14.876  0.00  0.00    +0.000 C 
ATOM     15  C   UNL     1      30.193 -25.024 -14.770  0.00  0.00    +0.000 C 
ATOM     16  C   UNL     1      31.752 -23.102 -15.278  0.00  0.00    +0.000 C 
ATOM     17  C   UNL     1      29.422 -24.735 -16.055  0.00  0.00    +0.000 C 
ATOM     18  C   UNL     1      30.979 -22.816 -16.562  0.00  0.00    +0.000 C 
ATOM     19  C   UNL     1      29.526 -23.268 -16.456  0.00  0.00    +0.000 C 
ENDBRANCH  13  14
ENDBRANCH  12  13
ENDBRANCH  11  12
ENDBRANCH   3   7
BRANCH   2  20
ATOM     20  C   UNL     1      34.297 -23.174 -18.187  0.00  0.00    +0.116 C 
BRANCH  20  21
ATOM     21  C   UNL     1      34.534 -22.097 -19.207  0.00  0.00    -0.003 C 
ATOM     22  C   UNL     1      33.450 -21.462 -19.814  0.00  0.00    -0.003 C 
ATOM     23  C   UNL     1      35.836 -21.730 -19.546  0.00  0.00    -0.003 C 
ATOM     24  C   UNL     1      33.668 -20.462 -20.761  0.00  0.00    +0.002 C 
ATOM     25  C   UNL     1      36.055 -20.730 -20.493  0.00  0.00    +0.002 C 
ATOM     26  C   UNL     1      34.971 -20.095 -21.100  0.00  0.00    +0.031 C 
BRANCH  26  29
ATOM     27  N   UNL     1      34.916 -19.254 -23.436  0.00  0.00    -0.343 N 
ATOM     28  N   UNL     1      35.686 -17.883 -21.708  0.00  0.00    -0.285 NA
ATOM     29  C   UNL     1      35.199 -19.051 -22.086  0.00  0.00    +0.117 C 
ATOM     30  H   UNL     1      35.078 -18.534 -24.086  0.00  0.00    +0.144 HD
ATOM     31  H   UNL     1      34.556 -20.119 -23.738  0.00  0.00    +0.144 HD
ATOM     32  H   UNL     1      35.841 -17.174 -22.374  0.00  0.00    +0.188 HD
ENDBRANCH  26  29
ENDBRANCH  20  21
ENDBRANCH   2  20
TORSDOF 7
ENDMDL
MODEL 3
REMARK VINA RESULT:     -10.0      9.315     12.817
REMARK  Name = 25134248
REMARK  7 active torsions:
REMARK  status: ('A' for Active; 'I' for Inactive)
REMARK    1  A    between atoms: N_2  and  C_20
REMARK    2  A    between atoms: C_3  and  C_7
REMARK    3  A    between atoms: C_11  and  C_12
REMARK    4  A    between atoms: C_12  and  C_13
REMARK    5  A    between atoms: C_13  and  C_14
REMARK    6  A    between atoms: C_20  and  C_21
REMARK    7  A    between atoms: C_26  and  C_29
REMARK                            x       y       z     vdW  Elec       q    Type
REMARK                         _______ _______ _______ _____ _____    ______ ____
ROOT
ATOM      1  O   UNL     1      34.225 -14.908 -21.743  0.00  0.00    -0.273 OA
ATOM      2  N   UNL     1      33.053 -13.373 -23.042  0.00  0.00    -0.299 N 
ATOM      3  C   UNL     1      34.041 -14.312 -22.801  0.00  0.00    +0.241 C 
ATOM      4  H   UNL     1      33.006 -12.961 -23.936  0.00  0.00    +0.150 HD
ENDROOT
BRANCH   3   7
ATOM      5  O   UNL     1      34.645 -18.157 -24.750  0.00  0.00    -0.275 OA
ATOM      6  N   UNL     1      34.503 -15.858 -24.571  0.00  0.00    -0.273 N 
ATOM      7  C   UNL     1      34.890 -14.566 -24.010  0.00  0.00    +0.152 C 
ATOM      8  C   UNL     1      34.572 -13.560 -25.113  0.00  0.00    +0.031 C 
ATOM      9  C   UNL     1      33.727 -15.687 -25.793  0.00  0.00    +0.094 C 
ATOM     10  C   UNL     1      33.401 -14.203 -25.852  0.00  0.00    +0.024 C 
ATOM     11  C   UNL     1      34.904 -17.114 -24.147  0.00  0.00    +0.226 C 
BRANCH  11  12
ATOM     12  C   UNL     1      35.703 -17.159 -22.868  0.00  0.00    +0.085 C 
BRANCH  12  13
ATOM     13  C   UNL     1      36.321 -18.533 -22.676  0.00  0.00    +0.010 C 
BRANCH  13  14
ATOM     14  C   UNL     1      35.822 -19.237 -21.416  0.00  0.00    +0.000 C 
ATOM     15  C   UNL     1      34.484 -19.939 -21.680  0.00  0.00    +0.000 C 
ATOM     16  C   UNL     1      36.869 -20.234 -20.901  0.00  0.00    +0.000 C 
ATOM     17  C   UNL     1      33.990 -20.695 -20.449  0.00  0.00    +0.000 C 
ATOM     18  C   UNL     1      36.372 -20.989 -19.671  0.00  0.00    +0.000 C 
ATOM     19  C   UNL     1      35.037 -21.678 -19.935  0.00  0.00    +0.000 C 
ENDBRANCH  13  14
ENDBRANCH  12  13
ENDBRANCH  11  12
ENDBRANCH   3   7
BRANCH   2  20
ATOM     20  C   UNL     1      32.088 -12.967 -22.046  0.00  0.00    +0.116 C 
BRANCH  20  21
ATOM     21  C   UNL     1      32.208 -11.509 -21.708  0.00  0.00    -0.003 C 
ATOM     22  C   UNL     1      31.980 -11.075 -20.402  0.00  0.00    -0.003 C 
ATOM     23  C   UNL     1      32.550 -10.588 -22.698  0.00  0.00    -0.003 C 
ATOM     24  C   UNL     1      32.093  -9.721 -20.087  0.00  0.00    +0.002 C 
ATOM     25  C   UNL     1      32.662  -9.234 -22.384  0.00  0.00    +0.002 C 
ATOM     26  C   UNL     1      32.434  -8.801 -21.078  0.00  0.00    +0.031 C 
BRANCH  26  29
ATOM     27  N   UNL     1      31.724  -6.435 -21.337  0.00  0.00    -0.343 N 
ATOM     28  N   UNL     1      33.462  -6.990 -19.877  0.00  0.00    -0.285 NA
ATOM     29  C   UNL     1      32.553  -7.389 -20.748  0.00  0.00    +0.117 C 
ATOM     30  H   UNL     1      31.822  -5.485 -21.099  0.00  0.00    +0.144 HD
ATOM     31  H   UNL     1      31.043  -6.712 -21.991  0.00  0.00    +0.144 HD
ATOM     32  H   UNL     1      33.544  -6.035 -19.652  0.00  0.00    +0.188 HD
ENDBRANCH  26  29
ENDBRANCH  20  21
ENDBRANCH   2  20
TORSDOF 7
ENDMDL
MODEL 4
REMARK VINA RESULT:      -9.8      7.796     11.536
REMARK  Name = 25134248
REMARK  7 active torsions:
REMARK  status: ('A' for Active; 'I' for Inactive)
REMARK    1  A    between atoms: N_2  and  C_20
REMARK    2  A    between atoms: C_3  and  C_7
REMARK    3  A    between atoms: C_11  and  C_12
REMARK    4  A    between atoms: C_12  and  C_13
REMARK    5  A    between atoms: C_13  and  C_14
REMARK    6  A    between atoms: C_20  and  C_21
REMARK    7  A    between atoms: C_26  and  C_29
REMARK                            x       y       z     vdW  Elec       q    Type
REMARK                         _______ _______ _______ _____ _____    ______ ____
ROOT
ATOM      1  O   UNL     1      36.241 -15.612 -24.316  0.00  0.00    -0.273 OA
ATOM      2  N   UNL     1      35.061 -17.381 -23.368  0.00  0.00    -0.299 N 
ATOM      3  C   UNL     1      35.186 -16.182 -24.050  0.00  0.00    +0.241 C 
ATOM      4  H   UNL     1      34.157 -17.740 -23.214  0.00  0.00    +0.150 HD
ENDROOT
BRANCH   3   7
ATOM      5  O   UNL     1      33.936 -12.022 -23.779  0.00  0.00    -0.275 OA
ATOM      6  N   UNL     1      33.992 -14.180 -24.601  0.00  0.00    -0.273 N 
ATOM      7  C   UNL     1      33.859 -15.629 -24.473  0.00  0.00    +0.152 C 
ATOM      8  C   UNL     1      33.500 -16.104 -25.878  0.00  0.00    +0.031 C 
ATOM      9  C   UNL     1      34.022 -13.778 -26.001  0.00  0.00    +0.094 C 
ATOM     10  C   UNL     1      34.170 -15.073 -26.783  0.00  0.00    +0.024 C 
ATOM     11  C   UNL     1      33.951 -13.239 -23.585  0.00  0.00    +0.226 C 
BRANCH  11  12
ATOM     12  C   UNL     1      33.922 -13.781 -22.178  0.00  0.00    +0.085 C 
BRANCH  12  13
ATOM     13  C   UNL     1      32.563 -13.536 -21.543  0.00  0.00    +0.010 C 
BRANCH  13  14
ATOM     14  C   UNL     1      32.528 -12.271 -20.688  0.00  0.00    +0.000 C 
ATOM     15  C   UNL     1      31.803 -11.138 -21.427  0.00  0.00    +0.000 C 
ATOM     16  C   UNL     1      31.865 -12.550 -19.333  0.00  0.00    +0.000 C 
ATOM     17  C   UNL     1      31.707  -9.877 -20.572  0.00  0.00    +0.000 C 
ATOM     18  C   UNL     1      31.769 -11.287 -18.481  0.00  0.00    +0.000 C 
ATOM     19  C   UNL     1      31.056 -10.161 -19.222  0.00  0.00    +0.000 C 
ENDBRANCH  13  14
ENDBRANCH  12  13
ENDBRANCH  11  12
ENDBRANCH   3   7
BRANCH   2  20
ATOM     20  C   UNL     1      36.193 -18.131 -22.874  0.00  0.00    +0.116 C 
BRANCH  20  21
ATOM     21  C   UNL     1      35.779 -19.194 -21.898  0.00  0.00    -0.003 C 
ATOM     22  C   UNL     1      36.740 -19.830 -21.111  0.00  0.00    -0.003 C 
ATOM     23  C   UNL     1      34.435 -19.546 -21.776  0.00  0.00    -0.003 C 
ATOM     24  C   UNL     1      36.357 -20.817 -20.203  0.00  0.00    +0.002 C 
ATOM     25  C   UNL     1      34.051 -20.533 -20.869  0.00  0.00    +0.002 C 
ATOM     26  C   UNL     1      35.012 -21.168 -20.082  0.00  0.00    +0.031 C 
BRANCH  26  29
ATOM     27  N   UNL     1      33.336 -22.756 -19.167  0.00  0.00    -0.343 N 
ATOM     28  N   UNL     1      35.467 -22.616 -18.218  0.00  0.00    -0.285 NA
ATOM     29  C   UNL     1      34.612 -22.197 -19.135  0.00  0.00    +0.117 C 
ATOM     30  H   UNL     1      33.087 -23.451 -18.516  0.00  0.00    +0.144 HD
ATOM     31  H   UNL     1      32.684 -22.454 -19.840  0.00  0.00    +0.144 HD
ATOM     32  H   UNL     1      35.199 -23.313 -17.576  0.00  0.00    +0.188 HD
ENDBRANCH  26  29
ENDBRANCH  20  21
ENDBRANCH   2  20
TORSDOF 7
ENDMDL
MODEL 5
REMARK VINA RESULT:      -9.7     10.756     14.346
REMARK  Name = 25134248
REMARK  7 active torsions:
REMARK  status: ('A' for Active; 'I' for Inactive)
REMARK    1  A    between atoms: N_2  and  C_20
REMARK    2  A    between atoms: C_3  and  C_7
REMARK    3  A    between atoms: C_11  and  C_12
REMARK    4  A    between atoms: C_12  and  C_13
REMARK    5  A    between atoms: C_13  and  C_14
REMARK    6  A    between atoms: C_20  and  C_21
REMARK    7  A    between atoms: C_26  and  C_29
REMARK                            x       y       z     vdW  Elec       q    Type
REMARK                         _______ _______ _______ _____ _____    ______ ____
ROOT
ATOM      1  O   UNL     1      33.083 -14.154 -23.114  0.00  0.00    -0.273 OA
ATOM      2  N   UNL     1      33.285 -11.850 -23.376  0.00  0.00    -0.299 N 
ATOM      3  C   UNL     1      33.555 -13.173 -23.682  0.00  0.00    +0.241 C 
ATOM      4  H   UNL     1      33.727 -11.147 -23.906  0.00  0.00    +0.150 HD
ENDROOT
BRANCH   3   7
ATOM      5  O   UNL     1      33.974 -16.651 -26.266  0.00  0.00    -0.275 OA
ATOM      6  N   UNL     1      34.048 -14.420 -25.666  0.00  0.00    -0.273 N 
ATOM      7  C   UNL     1      34.501 -13.306 -24.837  0.00  0.00    +0.152 C 
ATOM      8  C   UNL     1      34.409 -12.089 -25.752  0.00  0.00    +0.031 C 
ATOM      9  C   UNL     1      33.432 -13.942 -26.897  0.00  0.00    +0.094 C 
ATOM     10  C   UNL     1      33.268 -12.443 -26.702  0.00  0.00    +0.024 C 
ATOM     11  C   UNL     1      34.271 -15.772 -25.454  0.00  0.00    +0.226 C 
BRANCH  11  12
ATOM     12  C   UNL     1      34.916 -16.140 -24.142  0.00  0.00    +0.085 C 
BRANCH  12  13
ATOM     13  C   UNL     1      35.340 -17.599 -24.150  0.00  0.00    +0.010 C 
BRANCH  13  14
ATOM     14  C   UNL     1      35.534 -18.168 -22.746  0.00  0.00    +0.000 C 
ATOM     15  C   UNL     1      34.656 -19.410 -22.539  0.00  0.00    +0.000 C 
ATOM     16  C   UNL     1      37.011 -18.496 -22.492  0.00  0.00    +0.000 C 
ATOM     17  C   UNL     1      34.871 -20.030 -21.160  0.00  0.00    +0.000 C 
ATOM     18  C   UNL     1      37.222 -19.116 -21.114  0.00  0.00    +0.000 C 
ATOM     19  C   UNL     1      36.342 -20.345 -20.909  0.00  0.00    +0.000 C 
ENDBRANCH  13  14
ENDBRANCH  12  13
ENDBRANCH  11  12
ENDBRANCH   3   7
BRANCH   2  20
ATOM     20  C   UNL     1      32.385 -11.451 -22.318  0.00  0.00    +0.116 C 
BRANCH  20  21
ATOM     21  C   UNL     1      32.212  -9.960 -22.260  0.00  0.00    -0.003 C 
ATOM     22  C   UNL     1      32.249  -9.302 -21.031  0.00  0.00    -0.003 C 
ATOM     23  C   UNL     1      32.017  -9.233 -23.434  0.00  0.00    -0.003 C 
ATOM     24  C   UNL     1      32.090  -7.917 -20.975  0.00  0.00    +0.002 C 
ATOM     25  C   UNL     1      31.858  -7.849 -23.380  0.00  0.00    +0.002 C 
ATOM     26  C   UNL     1      31.895  -7.191 -22.150  0.00  0.00    +0.031 C 
BRANCH  26  29
ATOM     27  N   UNL     1      30.605  -5.168 -21.507  0.00  0.00    -0.343 N 
ATOM     28  N   UNL     1      32.657  -4.957 -22.605  0.00  0.00    -0.285 NA
ATOM     29  C   UNL     1      31.730  -5.747 -22.092  0.00  0.00    +0.117 C 
ATOM     30  H   UNL     1      30.514  -4.189 -21.479  0.00  0.00    +0.144 HD
ATOM     31  H   UNL     1      29.901  -5.740 -21.123  0.00  0.00    +0.144 HD
ATOM     32  H   UNL     1      32.547  -3.980 -22.566  0.00  0.00    +0.188 HD
ENDBRANCH  26  29
ENDBRANCH  20  21
ENDBRANCH   2  20
TORSDOF 7
ENDMDL
MODEL 6
REMARK VINA RESULT:      -9.6      5.814      9.175
REMARK  Name = 25134248
REMARK  7 active torsions:
REMARK  status: ('A' for Active; 'I' for Inactive)
REMARK    1  A    between atoms: N_2  and  C_20
REMARK    2  A    between atoms: C_3  and  C_7
REMARK    3  A    between atoms: C_11  and  C_12
REMARK    4  A    between atoms: C_12  and  C_13
REMARK    5  A    between atoms: C_13  and  C_14
REMARK    6  A    between atoms: C_20  and  C_21
REMARK    7  A    between atoms: C_26  and  C_29
REMARK                            x       y       z     vdW  Elec       q    Type
REMARK                         _______ _______ _______ _____ _____    ______ ____
ROOT
ATOM      1  O   UNL     1      37.139 -18.144 -21.929  0.00  0.00    -0.273 OA
ATOM      2  N   UNL     1      35.902 -19.869 -20.975  0.00  0.00    -0.299 N 
ATOM      3  C   UNL     1      36.086 -18.757 -21.778  0.00  0.00    +0.241 C 
ATOM      4  H   UNL     1      35.005 -20.276 -20.935  0.00  0.00    +0.150 HD
ENDROOT
BRANCH   3   7
ATOM      5  O   UNL     1      35.317 -14.920 -23.684  0.00  0.00    -0.275 OA
ATOM      6  N   UNL     1      35.130 -17.194 -23.321  0.00  0.00    -0.273 N 
ATOM      7  C   UNL     1      34.831 -18.364 -22.499  0.00  0.00    +0.152 C 
ATOM      8  C   UNL     1      34.425 -19.440 -23.501  0.00  0.00    +0.031 C 
ATOM      9  C   UNL     1      35.209 -17.551 -24.731  0.00  0.00    +0.094 C 
ATOM     10  C   UNL     1      35.210 -19.071 -24.756  0.00  0.00    +0.024 C 
ATOM     11  C   UNL     1      35.192 -15.872 -22.911  0.00  0.00    +0.226 C 
BRANCH  11  12
ATOM     12  C   UNL     1      35.098 -15.632 -21.425  0.00  0.00    +0.085 C 
BRANCH  12  13
ATOM     13  C   UNL     1      33.657 -15.370 -21.021  0.00  0.00    +0.010 C 
BRANCH  13  14
ATOM     14  C   UNL     1      33.318 -13.882 -20.963  0.00  0.00    +0.000 C 
ATOM     15  C   UNL     1      32.665 -13.423 -22.274  0.00  0.00    +0.000 C 
ATOM     16  C   UNL     1      32.408 -13.579 -19.765  0.00  0.00    +0.000 C 
ATOM     17  C   UNL     1      32.268 -11.950 -22.220  0.00  0.00    +0.000 C 
ATOM     18  C   UNL     1      32.011 -12.106 -19.716  0.00  0.00    +0.000 C 
ATOM     19  C   UNL     1      31.372 -11.651 -21.024  0.00  0.00    +0.000 C 
ENDBRANCH  13  14
ENDBRANCH  12  13
ENDBRANCH  11  12
ENDBRANCH   3   7
BRANCH   2  20
ATOM     20  C   UNL     1      36.962 -20.464 -20.193  0.00  0.00    +0.116 C 
BRANCH  20  21
ATOM     21  C   UNL     1      36.427 -21.310 -19.073  0.00  0.00    -0.003 C 
ATOM     22  C   UNL     1      35.176 -21.915 -19.193  0.00  0.00    -0.003 C 
ATOM     23  C   UNL     1      37.181 -21.492 -17.914  0.00  0.00    -0.003 C 
ATOM     24  C   UNL     1      34.679 -22.702 -18.155  0.00  0.00    +0.002 C 
ATOM     25  C   UNL     1      36.685 -22.279 -16.875  0.00  0.00    +0.002 C 
ATOM     26  C   UNL     1      35.434 -22.884 -16.995  0.00  0.00    +0.031 C 
BRANCH  26  29
ATOM     27  N   UNL     1      33.990 -23.203 -15.000  0.00  0.00    -0.343 N 
ATOM     28  N   UNL     1      35.326 -24.955 -15.780  0.00  0.00    -0.285 NA
ATOM     29  C   UNL     1      34.916 -23.706 -15.913  0.00  0.00    +0.117 C 
ATOM     30  H   UNL     1      33.653 -23.777 -14.275  0.00  0.00    +0.144 HD
ATOM     31  H   UNL     1      33.675 -22.274 -15.081  0.00  0.00    +0.144 HD
ATOM     32  H   UNL     1      34.977 -25.513 -15.048  0.00  0.00    +0.188 HD
ENDBRANCH  26  29
ENDBRANCH  20  21
ENDBRANCH   2  20
TORSDOF 7
ENDMDL
MODEL 7
REMARK VINA RESULT:      -9.5     12.282     15.655
REMARK  Name = 25134248
REMARK  7 active torsions:
REMARK  status: ('A' for Active; 'I' for Inactive)
REMARK    1  A    between atoms: N_2  and  C_20
REMARK    2  A    between atoms: C_3  and  C_7
REMARK    3  A    between atoms: C_11  and  C_12
REMARK    4  A    between atoms: C_12  and  C_13
REMARK    5  A    between atoms: C_13  and  C_14
REMARK    6  A    between atoms: C_20  and  C_21
REMARK    7  A    between atoms: C_26  and  C_29
REMARK                            x       y       z     vdW  Elec       q    Type
REMARK                         _______ _______ _______ _____ _____    ______ ____
ROOT
ATOM      1  O   UNL     1      32.930  -9.606 -20.787  0.00  0.00    -0.273 OA
ATOM      2  N   UNL     1      32.468 -10.296 -22.961  0.00  0.00    -0.299 N 
ATOM      3  C   UNL     1      32.345 -10.335 -21.583  0.00  0.00    +0.241 C 
ATOM      4  H   UNL     1      31.945 -10.936 -23.497  0.00  0.00    +0.150 HD
ENDROOT
BRANCH   3   7
ATOM      5  O   UNL     1      33.290 -14.466 -20.587  0.00  0.00    -0.275 OA
ATOM      6  N   UNL     1      32.127 -12.470 -20.520  0.00  0.00    -0.273 N 
ATOM      7  C   UNL     1      31.370 -11.380 -21.130  0.00  0.00    +0.152 C 
ATOM      8  C   UNL     1      30.494 -10.846 -20.001  0.00  0.00    +0.031 C 
ATOM      9  C   UNL     1      31.991 -12.456 -19.069  0.00  0.00    +0.094 C 
ATOM     10  C   UNL     1      31.317 -11.132 -18.747  0.00  0.00    +0.024 C 
ATOM     11  C   UNL     1      32.784 -13.504 -21.168  0.00  0.00    +0.226 C 
BRANCH  11  12
ATOM     12  C   UNL     1      32.858 -13.405 -22.671  0.00  0.00    +0.085 C 
BRANCH  12  13
ATOM     13  C   UNL     1      34.303 -13.290 -23.125  0.00  0.00    +0.010 C 
BRANCH  13  14
ATOM     14  C   UNL     1      34.693 -14.362 -24.141  0.00  0.00    +0.000 C 
ATOM     15  C   UNL     1      35.011 -15.686 -23.436  0.00  0.00    +0.000 C 
ATOM     16  C   UNL     1      33.582 -14.551 -25.183  0.00  0.00    +0.000 C 
ATOM     17  C   UNL     1      35.352 -16.790 -24.435  0.00  0.00    +0.000 C 
ATOM     18  C   UNL     1      33.926 -15.655 -26.179  0.00  0.00    +0.000 C 
ATOM     19  C   UNL     1      34.251 -16.968 -25.473  0.00  0.00    +0.000 C 
ENDBRANCH  13  14
ENDBRANCH  12  13
ENDBRANCH  11  12
ENDBRANCH   3   7
BRANCH   2  20
ATOM     20  C   UNL     1      33.327  -9.361 -23.652  0.00  0.00    +0.116 C 
BRANCH  20  21
ATOM     21  C   UNL     1      32.788  -7.961 -23.602  0.00  0.00    -0.003 C 
ATOM     22  C   UNL     1      33.667  -6.878 -23.561  0.00  0.00    -0.003 C 
ATOM     23  C   UNL     1      31.411  -7.742 -23.601  0.00  0.00    -0.003 C 
ATOM     24  C   UNL     1      33.168  -5.576 -23.516  0.00  0.00    +0.002 C 
ATOM     25  C   UNL     1      30.911  -6.440 -23.555  0.00  0.00    +0.002 C 
ATOM     26  C   UNL     1      31.790  -5.357 -23.513  0.00  0.00    +0.031 C 
BRANCH  26  29
ATOM     27  N   UNL     1      31.556  -3.079 -24.474  0.00  0.00    -0.343 N 
ATOM     28  N   UNL     1      30.511  -3.619 -22.454  0.00  0.00    -0.285 NA
ATOM     29  C   UNL     1      31.269  -4.000 -23.467  0.00  0.00    +0.117 C 
ATOM     30  H   UNL     1      31.193  -2.166 -24.422  0.00  0.00    +0.144 HD
ATOM     31  H   UNL     1      32.122  -3.343 -25.235  0.00  0.00    +0.144 HD
ATOM     32  H   UNL     1      30.158  -2.701 -22.421  0.00  0.00    +0.188 HD
ENDBRANCH  26  29
ENDBRANCH  20  21
ENDBRANCH   2  20
TORSDOF 7
ENDMDL
MODEL 8
REMARK VINA RESULT:      -9.5     11.546     15.469
REMARK  Name = 25134248
REMARK  7 active torsions:
REMARK  status: ('A' for Active; 'I' for Inactive)
REMARK    1  A    between atoms: N_2  and  C_20
REMARK    2  A    between atoms: C_3  and  C_7
REMARK    3  A    between atoms: C_11  and  C_12
REMARK    4  A    between atoms: C_12  and  C_13
REMARK    5  A    between atoms: C_13  and  C_14
REMARK    6  A    between atoms: C_20  and  C_21
REMARK    7  A    between atoms: C_26  and  C_29
REMARK                            x       y       z     vdW  Elec       q    Type
REMARK                         _______ _______ _______ _____ _____    ______ ____
ROOT
ATOM      1  O   UNL     1      34.161  -8.130 -23.439  0.00  0.00    -0.273 OA
ATOM      2  N   UNL     1      33.293 -10.206 -24.035  0.00  0.00    -0.299 N 
ATOM      3  C   UNL     1      33.232  -8.931 -23.500  0.00  0.00    +0.241 C 
ATOM      4  H   UNL     1      32.477 -10.758 -24.026  0.00  0.00    +0.150 HD
ENDROOT
BRANCH   3   7
ATOM      5  O   UNL     1      32.261  -7.272 -19.594  0.00  0.00    -0.275 OA
ATOM      6  N   UNL     1      32.005  -7.703 -21.850  0.00  0.00    -0.273 N 
ATOM      7  C   UNL     1      31.860  -8.591 -23.000  0.00  0.00    +0.152 C 
ATOM      8  C   UNL     1      31.102  -7.759 -24.031  0.00  0.00    +0.031 C 
ATOM      9  C   UNL     1      31.652  -6.332 -22.197  0.00  0.00    +0.094 C 
ATOM     10  C   UNL     1      31.526  -6.327 -23.712  0.00  0.00    +0.024 C 
ATOM     11  C   UNL     1      32.286  -8.060 -20.541  0.00  0.00    +0.226 C 
BRANCH  11  12
ATOM     12  C   UNL     1      32.635  -9.509 -20.309  0.00  0.00    +0.085 C 
BRANCH  12  13
ATOM     13  C   UNL     1      31.430 -10.269 -19.782  0.00  0.00    +0.010 C 
BRANCH  13  14
ATOM     14  C   UNL     1      31.450 -11.748 -20.159  0.00  0.00    +0.000 C 
ATOM     15  C   UNL     1      32.116 -11.951 -21.526  0.00  0.00    +0.000 C 
ATOM     16  C   UNL     1      32.160 -12.574 -19.078  0.00  0.00    +0.000 C 
ATOM     17  C   UNL     1      32.196 -13.429 -21.902  0.00  0.00    +0.000 C 
ATOM     18  C   UNL     1      32.240 -14.050 -19.457  0.00  0.00    +0.000 C 
ATOM     19  C   UNL     1      32.894 -14.246 -20.821  0.00  0.00    +0.000 C 
ENDBRANCH  13  14
ENDBRANCH  12  13
ENDBRANCH  11  12
ENDBRANCH   3   7
BRANCH   2  20
ATOM     20  C   UNL     1      34.497 -10.767 -24.605  0.00  0.00    +0.116 C 
BRANCH  20  21
ATOM     21  C   UNL     1      34.385 -12.250 -24.807  0.00  0.00    -0.003 C 
ATOM     22  C   UNL     1      33.832 -12.754 -25.984  0.00  0.00    -0.003 C 
ATOM     23  C   UNL     1      34.836 -13.126 -23.819  0.00  0.00    -0.003 C 
ATOM     24  C   UNL     1      33.728 -14.132 -26.173  0.00  0.00    +0.002 C 
ATOM     25  C   UNL     1      34.732 -14.503 -24.007  0.00  0.00    +0.002 C 
ATOM     26  C   UNL     1      34.179 -15.007 -25.185  0.00  0.00    +0.031 C 
BRANCH  26  29
ATOM     27  N   UNL     1      34.801 -17.339 -24.602  0.00  0.00    -0.343 N 
ATOM     28  N   UNL     1      33.272 -16.921 -26.320  0.00  0.00    -0.285 NA
ATOM     29  C   UNL     1      34.072 -16.444 -25.382  0.00  0.00    +0.117 C 
ATOM     30  H   UNL     1      34.713 -18.308 -24.753  0.00  0.00    +0.144 HD
ATOM     31  H   UNL     1      35.404 -17.003 -23.901  0.00  0.00    +0.144 HD
ATOM     32  H   UNL     1      33.198 -17.894 -26.455  0.00  0.00    +0.188 HD
ENDBRANCH  26  29
ENDBRANCH  20  21
ENDBRANCH   2  20
TORSDOF 7
ENDMDL
MODEL 9
REMARK VINA RESULT:      -9.4     12.344     15.781
REMARK  Name = 25134248
REMARK  7 active torsions:
REMARK  status: ('A' for Active; 'I' for Inactive)
REMARK    1  A    between atoms: N_2  and  C_20
REMARK    2  A    between atoms: C_3  and  C_7
REMARK    3  A    between atoms: C_11  and  C_12
REMARK    4  A    between atoms: C_12  and  C_13
REMARK    5  A    between atoms: C_13  and  C_14
REMARK    6  A    between atoms: C_20  and  C_21
REMARK    7  A    between atoms: C_26  and  C_29
REMARK                            x       y       z     vdW  Elec       q    Type
REMARK                         _______ _______ _______ _____ _____    ______ ____
ROOT
ATOM      1  O   UNL     1      33.648 -11.357 -23.894  0.00  0.00    -0.273 OA
ATOM      2  N   UNL     1      32.744  -9.600 -22.664  0.00  0.00    -0.299 N 
ATOM      3  C   UNL     1      32.838 -10.915 -23.085  0.00  0.00    +0.241 C 
ATOM      4  H   UNL     1      32.049  -9.365 -22.008  0.00  0.00    +0.150 HD
ENDROOT
BRANCH   3   7
ATOM      5  O   UNL     1      33.696 -14.509 -20.783  0.00  0.00    -0.275 OA
ATOM      6  N   UNL     1      32.529 -12.624 -21.436  0.00  0.00    -0.273 N 
ATOM      7  C   UNL     1      31.828 -11.798 -22.414  0.00  0.00    +0.152 C 
ATOM      8  C   UNL     1      30.853 -10.967 -21.584  0.00  0.00    +0.031 C 
ATOM      9  C   UNL     1      32.263 -12.168 -20.078  0.00  0.00    +0.094 C 
ATOM     10  C   UNL     1      31.562 -10.829 -20.239  0.00  0.00    +0.024 C 
ATOM     11  C   UNL     1      33.242 -13.788 -21.674  0.00  0.00    +0.226 C 
BRANCH  11  12
ATOM     12  C   UNL     1      33.449 -14.155 -23.122  0.00  0.00    +0.085 C 
BRANCH  12  13
ATOM     13  C   UNL     1      34.931 -14.301 -23.426  0.00  0.00    +0.010 C 
BRANCH  13  14
ATOM     14  C   UNL     1      35.282 -15.662 -24.024  0.00  0.00    +0.000 C 
ATOM     15  C   UNL     1      35.450 -16.713 -22.918  0.00  0.00    +0.000 C 
ATOM     16  C   UNL     1      34.217 -16.101 -25.037  0.00  0.00    +0.000 C 
ATOM     17  C   UNL     1      35.749 -18.095 -23.494  0.00  0.00    +0.000 C 
ATOM     18  C   UNL     1      34.518 -17.483 -25.610  0.00  0.00    +0.000 C 
ATOM     19  C   UNL     1      34.693 -18.523 -24.507  0.00  0.00    +0.000 C 
ENDBRANCH  13  14
ENDBRANCH  12  13
ENDBRANCH  11  12
ENDBRANCH   3   7
BRANCH   2  20
ATOM     20  C   UNL     1      33.619  -8.554 -23.142  0.00  0.00    +0.116 C 
BRANCH  20  21
ATOM     21  C   UNL     1      32.914  -7.231 -23.238  0.00  0.00    -0.003 C 
ATOM     22  C   UNL     1      31.777  -6.991 -22.467  0.00  0.00    -0.003 C 
ATOM     23  C   UNL     1      33.397  -6.243 -24.096  0.00  0.00    -0.003 C 
ATOM     24  C   UNL     1      31.121  -5.763 -22.555  0.00  0.00    +0.002 C 
ATOM     25  C   UNL     1      32.742  -5.015 -24.184  0.00  0.00    +0.002 C 
ATOM     26  C   UNL     1      31.604  -4.774 -23.413  0.00  0.00    +0.031 C 
BRANCH  26  29
ATOM     27  N   UNL     1      30.379  -2.879 -22.376  0.00  0.00    -0.343 N 
ATOM     28  N   UNL     1      30.804  -2.891 -24.674  0.00  0.00    -0.285 NA
ATOM     29  C   UNL     1      30.922  -3.494 -23.504  0.00  0.00    +0.117 C 
ATOM     30  H   UNL     1      29.922  -2.013 -22.460  0.00  0.00    +0.144 HD
ATOM     31  H   UNL     1      30.454  -3.314 -21.496  0.00  0.00    +0.144 HD
ATOM     32  H   UNL     1      30.343  -2.024 -24.737  0.00  0.00    +0.188 HD
ENDBRANCH  26  29
ENDBRANCH  20  21
ENDBRANCH   2  20
TORSDOF 7
ENDMDL
