MODEL 1
REMARK VINA RESULT:     -11.1      0.000      0.000
REMARK  Name = 2079916
REMARK  5 active torsions:
REMARK  status: ('A' for Active; 'I' for Inactive)
REMARK    1  A    between atoms: C_4  and  C_10
REMARK    2  A    between atoms: C_5  and  S_15
REMARK    3  A    between atoms: S_15  and  C_16
REMARK    4  A    between atoms: C_16  and  C_18
REMARK    5  A    between atoms: C_21  and  O_24
REMARK                            x       y       z     vdW  Elec       q    Type
REMARK                         _______ _______ _______ _____ _____    ______ ____
ROOT
ATOM      1  O   UNL     1      35.192 -18.190 -21.787  0.00  0.00    -0.411 OA
ATOM      2  N   UNL     1      35.191 -19.739 -23.400  0.00  0.00    -0.106 NA
ATOM      3  N   UNL     1      35.248 -18.496 -24.002  0.00  0.00    -0.101 NA
ATOM      4  C   UNL     1      35.161 -19.506 -22.116  0.00  0.00    +0.251 A 
ATOM      5  C   UNL     1      35.246 -17.622 -23.023  0.00  0.00    +0.279 A 
ENDROOT
BRANCH   4  10
ATOM      6  O   UNL     1      32.750 -22.314 -18.914  0.00  0.00    -0.435 OA
ATOM      7  O   UNL     1      34.789 -23.034 -17.850  0.00  0.00    -0.435 OA
ATOM      8  C   UNL     1      33.855 -21.762 -19.487  0.00  0.00    +0.177 C 
ATOM      9  C   UNL     1      35.019 -22.173 -18.879  0.00  0.00    +0.176 C 
ATOM     10  C   UNL     1      35.100 -20.424 -21.004  0.00  0.00    +0.058 C 
ATOM     11  C   UNL     1      33.862 -20.887 -20.554  0.00  0.00    +0.045 C 
ATOM     12  C   UNL     1      36.255 -21.732 -19.304  0.00  0.00    +0.040 C 
ATOM     13  C   UNL     1      36.290 -20.844 -20.383  0.00  0.00    +0.008 C 
ATOM     14  C   UNL     1      33.349 -23.118 -17.878  0.00  0.00    +0.429 C 
ENDBRANCH   4  10
BRANCH   5  15
ATOM     15  S   UNL     1      35.307 -15.902 -23.266  0.00  0.00    -0.050 S 
BRANCH  15  16
ATOM     16  C   UNL     1      34.826 -15.304 -21.622  0.00  0.00    +0.093 C 
BRANCH  16  18
ATOM     17  F   UNL     1      31.510 -12.392 -19.573  0.00  0.00    -0.201 F 
ATOM     18  C   UNL     1      33.869 -14.146 -21.697  0.00  0.00    -0.008 C 
ATOM     19  C   UNL     1      33.122 -13.800 -20.579  0.00  0.00    +0.029 C 
ATOM     20  C   UNL     1      33.743 -13.439 -22.886  0.00  0.00    -0.000 C 
ATOM     21  C   UNL     1      32.099 -12.012 -21.839  0.00  0.00    +0.166 C 
ATOM     22  C   UNL     1      32.233 -12.728 -20.651  0.00  0.00    +0.174 C 
ATOM     23  C   UNL     1      32.854 -12.367 -22.957  0.00  0.00    +0.039 C 
BRANCH  21  24
ATOM     24  O   UNL     1      31.231 -10.966 -21.912  0.00  0.00    -0.469 OA
ATOM     25  C   UNL     1      31.720  -9.754 -22.486  0.00  0.00    +0.253 C 
ENDBRANCH  21  24
ENDBRANCH  16  18
ENDBRANCH  15  16
ENDBRANCH   5  15
TORSDOF 5
ENDMDL
MODEL 2
REMARK VINA RESULT:     -10.8      1.688      2.192
REMARK  Name = 2079916
REMARK  5 active torsions:
REMARK  status: ('A' for Active; 'I' for Inactive)
REMARK    1  A    between atoms: C_4  and  C_10
REMARK    2  A    between atoms: C_5  and  S_15
REMARK    3  A    between atoms: S_15  and  C_16
REMARK    4  A    between atoms: C_16  and  C_18
REMARK    5  A    between atoms: C_21  and  O_24
REMARK                            x       y       z     vdW  Elec       q    Type
REMARK                         _______ _______ _______ _____ _____    ______ ____
ROOT
ATOM      1  O   UNL     1      34.677 -19.658 -22.667  0.00  0.00    -0.411 OA
ATOM      2  N   UNL     1      36.725 -19.022 -22.031  0.00  0.00    -0.106 NA
ATOM      3  N   UNL     1      36.423 -18.369 -23.212  0.00  0.00    -0.101 NA
ATOM      4  C   UNL     1      35.680 -19.756 -21.759  0.00  0.00    +0.251 A 
ATOM      5  C   UNL     1      35.219 -18.770 -23.546  0.00  0.00    +0.279 A 
ENDROOT
BRANCH   4  10
ATOM      6  O   UNL     1      32.748 -22.421 -18.887  0.00  0.00    -0.435 OA
ATOM      7  O   UNL     1      34.590 -23.176 -17.528  0.00  0.00    -0.435 OA
ATOM      8  C   UNL     1      33.940 -21.915 -19.305  0.00  0.00    +0.177 C 
ATOM      9  C   UNL     1      34.991 -22.346 -18.529  0.00  0.00    +0.176 C 
ATOM     10  C   UNL     1      35.431 -20.647 -20.651  0.00  0.00    +0.058 C 
ATOM     11  C   UNL     1      34.127 -21.064 -20.375  0.00  0.00    +0.045 C 
ATOM     12  C   UNL     1      36.289 -21.950 -18.780  0.00  0.00    +0.040 C 
ATOM     13  C   UNL     1      36.506 -21.087 -19.858  0.00  0.00    +0.008 C 
ATOM     14  C   UNL     1      33.167 -23.220 -17.761  0.00  0.00    +0.429 C 
ENDBRANCH   4  10
BRANCH   5  15
ATOM     15  S   UNL     1      34.384 -18.229 -24.971  0.00  0.00    -0.050 S 
BRANCH  15  16
ATOM     16  C   UNL     1      35.233 -16.658 -25.294  0.00  0.00    +0.093 C 
BRANCH  16  18
ATOM     17  F   UNL     1      34.875 -14.055 -21.199  0.00  0.00    -0.201 F 
ATOM     18  C   UNL     1      34.640 -15.522 -24.508  0.00  0.00    -0.008 C 
ATOM     19  C   UNL     1      35.042 -15.312 -23.195  0.00  0.00    +0.029 C 
ATOM     20  C   UNL     1      33.696 -14.697 -25.105  0.00  0.00    -0.000 C 
ATOM     21  C   UNL     1      33.540 -13.425 -23.057  0.00  0.00    +0.166 C 
ATOM     22  C   UNL     1      34.489 -14.260 -22.466  0.00  0.00    +0.174 C 
ATOM     23  C   UNL     1      33.144 -13.644 -24.376  0.00  0.00    +0.039 C 
BRANCH  21  24
ATOM     24  O   UNL     1      32.999 -12.398 -22.347  0.00  0.00    -0.469 OA
ATOM     25  C   UNL     1      31.981 -12.727 -21.401  0.00  0.00    +0.253 C 
ENDBRANCH  21  24
ENDBRANCH  16  18
ENDBRANCH  15  16
ENDBRANCH   5  15
TORSDOF 5
ENDMDL
MODEL 3
REMARK VINA RESULT:     -10.7      2.639      9.229
REMARK  Name = 2079916
REMARK  5 active torsions:
REMARK  status: ('A' for Active; 'I' for Inactive)
REMARK    1  A    between atoms: C_4  and  C_10
REMARK    2  A    between atoms: C_5  and  S_15
REMARK    3  A    between atoms: S_15  and  C_16
REMARK    4  A    between atoms: C_16  and  C_18
REMARK    5  A    between atoms: C_21  and  O_24
REMARK                            x       y       z     vdW  Elec       q    Type
REMARK                         _______ _______ _______ _____ _____    ______ ____
ROOT
ATOM      1  O   UNL     1      34.986 -15.681 -22.533  0.00  0.00    -0.411 OA
ATOM      2  N   UNL     1      34.786 -15.742 -24.760  0.00  0.00    -0.106 NA
ATOM      3  N   UNL     1      35.361 -16.931 -24.350  0.00  0.00    -0.101 NA
ATOM      4  C   UNL     1      34.587 -15.054 -23.668  0.00  0.00    +0.251 A 
ATOM      5  C   UNL     1      35.459 -16.851 -23.044  0.00  0.00    +0.279 A 
ENDROOT
BRANCH   4  10
ATOM      6  O   UNL     1      31.643 -11.859 -21.414  0.00  0.00    -0.435 OA
ATOM      7  O   UNL     1      32.315 -10.056 -22.865  0.00  0.00    -0.435 OA
ATOM      8  C   UNL     1      32.562 -12.254 -22.338  0.00  0.00    +0.177 C 
ATOM      9  C   UNL     1      32.945 -11.224 -23.167  0.00  0.00    +0.176 C 
ATOM     10  C   UNL     1      34.016 -13.741 -23.486  0.00  0.00    +0.058 C 
ATOM     11  C   UNL     1      33.080 -13.526 -22.472  0.00  0.00    +0.045 C 
ATOM     12  C   UNL     1      33.868 -11.409 -24.175  0.00  0.00    +0.040 C 
ATOM     13  C   UNL     1      34.408 -12.689 -24.333  0.00  0.00    +0.008 C 
ATOM     14  C   UNL     1      31.492 -10.466 -21.754  0.00  0.00    +0.429 C 
ENDBRANCH   4  10
BRANCH   5  15
ATOM     15  S   UNL     1      36.126 -18.110 -22.049  0.00  0.00    -0.050 S 
BRANCH  15  16
ATOM     16  C   UNL     1      34.874 -19.408 -22.249  0.00  0.00    +0.093 C 
BRANCH  16  18
ATOM     17  F   UNL     1      37.199 -21.989 -18.843  0.00  0.00    -0.201 F 
ATOM     18  C   UNL     1      34.860 -20.366 -21.090  0.00  0.00    -0.008 C 
ATOM     19  C   UNL     1      36.058 -20.737 -20.494  0.00  0.00    +0.029 C 
ATOM     20  C   UNL     1      33.650 -20.870 -20.633  0.00  0.00    -0.000 C 
ATOM     21  C   UNL     1      34.835 -22.140 -18.954  0.00  0.00    +0.166 C 
ATOM     22  C   UNL     1      36.045 -21.628 -19.421  0.00  0.00    +0.174 C 
ATOM     23  C   UNL     1      33.637 -21.760 -19.559  0.00  0.00    +0.039 C 
BRANCH  21  24
ATOM     24  O   UNL     1      34.820 -23.010 -17.907  0.00  0.00    -0.469 OA
ATOM     25  C   UNL     1      33.544 -23.355 -17.367  0.00  0.00    +0.253 C 
ENDBRANCH  21  24
ENDBRANCH  16  18
ENDBRANCH  15  16
ENDBRANCH   5  15
TORSDOF 5
ENDMDL
MODEL 4
REMARK VINA RESULT:     -10.7      4.934     10.016
REMARK  Name = 2079916
REMARK  5 active torsions:
REMARK  status: ('A' for Active; 'I' for Inactive)
REMARK    1  A    between atoms: C_4  and  C_10
REMARK    2  A    between atoms: C_5  and  S_15
REMARK    3  A    between atoms: S_15  and  C_16
REMARK    4  A    between atoms: C_16  and  C_18
REMARK    5  A    between atoms: C_21  and  O_24
REMARK                            x       y       z     vdW  Elec       q    Type
REMARK                         _______ _______ _______ _____ _____    ______ ____
ROOT
ATOM      1  O   UNL     1      35.419 -20.268 -21.423  0.00  0.00    -0.411 OA
ATOM      2  N   UNL     1      37.044 -18.760 -21.130  0.00  0.00    -0.106 NA
ATOM      3  N   UNL     1      37.139 -19.693 -20.114  0.00  0.00    -0.101 NA
ATOM      4  C   UNL     1      36.031 -19.140 -21.862  0.00  0.00    +0.251 A 
ATOM      5  C   UNL     1      36.171 -20.553 -20.324  0.00  0.00    +0.279 A 
ENDROOT
BRANCH   4  10
ATOM      6  O   UNL     1      34.866 -15.325 -24.697  0.00  0.00    -0.435 OA
ATOM      7  O   UNL     1      33.900 -16.744 -26.390  0.00  0.00    -0.435 OA
ATOM      8  C   UNL     1      34.938 -16.644 -24.369  0.00  0.00    +0.177 C 
ATOM      9  C   UNL     1      34.387 -17.454 -25.335  0.00  0.00    +0.176 C 
ATOM     10  C   UNL     1      35.469 -18.549 -23.052  0.00  0.00    +0.058 C 
ATOM     11  C   UNL     1      35.489 -17.162 -23.214  0.00  0.00    +0.045 C 
ATOM     12  C   UNL     1      34.355 -18.827 -25.201  0.00  0.00    +0.040 C 
ATOM     13  C   UNL     1      34.906 -19.377 -24.040  0.00  0.00    +0.008 C 
ATOM     14  C   UNL     1      34.208 -15.396 -25.978  0.00  0.00    +0.429 C 
ENDBRANCH   4  10
BRANCH   5  15
ATOM     15  S   UNL     1      35.867 -21.930 -19.307  0.00  0.00    -0.050 S 
BRANCH  15  16
ATOM     16  C   UNL     1      37.039 -21.626 -17.956  0.00  0.00    +0.093 C 
BRANCH  16  18
ATOM     17  F   UNL     1      38.689 -24.434 -14.342  0.00  0.00    -0.201 F 
ATOM     18  C   UNL     1      36.795 -22.531 -16.780  0.00  0.00    -0.008 C 
ATOM     19  C   UNL     1      37.876 -23.070 -16.095  0.00  0.00    +0.029 C 
ATOM     20  C   UNL     1      35.492 -22.817 -16.396  0.00  0.00    -0.000 C 
ATOM     21  C   UNL     1      36.343 -24.205 -14.611  0.00  0.00    +0.166 C 
ATOM     22  C   UNL     1      37.648 -23.912 -15.006  0.00  0.00    +0.174 C 
ATOM     23  C   UNL     1      35.265 -23.657 -15.306  0.00  0.00    +0.039 C 
BRANCH  21  24
ATOM     24  O   UNL     1      36.119 -25.026 -13.550  0.00  0.00    -0.469 OA
ATOM     25  C   UNL     1      35.369 -24.490 -12.460  0.00  0.00    +0.253 C 
ENDBRANCH  21  24
ENDBRANCH  16  18
ENDBRANCH  15  16
ENDBRANCH   5  15
TORSDOF 5
ENDMDL
MODEL 5
REMARK VINA RESULT:     -10.6      4.141      5.769
REMARK  Name = 2079916
REMARK  5 active torsions:
REMARK  status: ('A' for Active; 'I' for Inactive)
REMARK    1  A    between atoms: C_4  and  C_10
REMARK    2  A    between atoms: C_5  and  S_15
REMARK    3  A    between atoms: S_15  and  C_16
REMARK    4  A    between atoms: C_16  and  C_18
REMARK    5  A    between atoms: C_21  and  O_24
REMARK                            x       y       z     vdW  Elec       q    Type
REMARK                         _______ _______ _______ _____ _____    ______ ____
ROOT
ATOM      1  O   UNL     1      33.223 -21.959 -18.760  0.00  0.00    -0.411 OA
ATOM      2  N   UNL     1      35.284 -22.751 -18.409  0.00  0.00    -0.106 NA
ATOM      3  N   UNL     1      35.321 -21.952 -19.536  0.00  0.00    -0.101 NA
ATOM      4  C   UNL     1      34.046 -22.721 -17.996  0.00  0.00    +0.251 A 
ATOM      5  C   UNL     1      34.096 -21.512 -19.704  0.00  0.00    +0.279 A 
ENDROOT
BRANCH   4  10
ATOM      6  O   UNL     1      30.163 -24.355 -15.506  0.00  0.00    -0.435 OA
ATOM      7  O   UNL     1      31.534 -25.186 -13.707  0.00  0.00    -0.435 OA
ATOM      8  C   UNL     1      31.488 -24.133 -15.721  0.00  0.00    +0.177 C 
ATOM      9  C   UNL     1      32.271 -24.606 -14.694  0.00  0.00    +0.176 C 
ATOM     10  C   UNL     1      33.424 -23.368 -16.866  0.00  0.00    +0.058 C 
ATOM     11  C   UNL     1      32.035 -23.508 -16.824  0.00  0.00    +0.045 C 
ATOM     12  C   UNL     1      33.645 -24.482 -14.711  0.00  0.00    +0.040 C 
ATOM     13  C   UNL     1      34.225 -23.853 -15.816  0.00  0.00    +0.008 C 
ATOM     14  C   UNL     1      30.199 -25.023 -14.229  0.00  0.00    +0.429 C 
ENDBRANCH   4  10
BRANCH   5  15
ATOM     15  S   UNL     1      33.620 -20.457 -21.001  0.00  0.00    -0.050 S 
BRANCH  15  16
ATOM     16  C   UNL     1      35.224 -19.764 -21.489  0.00  0.00    +0.093 C 
BRANCH  16  18
ATOM     17  F   UNL     1      35.821 -15.493 -23.741  0.00  0.00    -0.201 F 
ATOM     18  C   UNL     1      35.119 -18.900 -22.715  0.00  0.00    -0.008 C 
ATOM     19  C   UNL     1      35.528 -17.574 -22.656  0.00  0.00    +0.029 C 
ATOM     20  C   UNL     1      34.612 -19.439 -23.890  0.00  0.00    -0.000 C 
ATOM     21  C   UNL     1      34.920 -17.304 -24.979  0.00  0.00    +0.166 C 
ATOM     22  C   UNL     1      35.427 -16.773 -23.794  0.00  0.00    +0.174 C 
ATOM     23  C   UNL     1      34.513 -18.638 -25.027  0.00  0.00    +0.039 C 
BRANCH  21  24
ATOM     24  O   UNL     1      34.820 -16.524 -26.089  0.00  0.00    -0.469 OA
ATOM     25  C   UNL     1      33.773 -15.553 -26.109  0.00  0.00    +0.253 C 
ENDBRANCH  21  24
ENDBRANCH  16  18
ENDBRANCH  15  16
ENDBRANCH   5  15
TORSDOF 5
ENDMDL
MODEL 6
REMARK VINA RESULT:     -10.5      1.960      2.859
REMARK  Name = 2079916
REMARK  5 active torsions:
REMARK  status: ('A' for Active; 'I' for Inactive)
REMARK    1  A    between atoms: C_4  and  C_10
REMARK    2  A    between atoms: C_5  and  S_15
REMARK    3  A    between atoms: S_15  and  C_16
REMARK    4  A    between atoms: C_16  and  C_18
REMARK    5  A    between atoms: C_21  and  O_24
REMARK                            x       y       z     vdW  Elec       q    Type
REMARK                         _______ _______ _______ _____ _____    ______ ____
ROOT
ATOM      1  O   UNL     1      34.613 -16.297 -24.060  0.00  0.00    -0.411 OA
ATOM      2  N   UNL     1      34.667 -17.959 -25.555  0.00  0.00    -0.106 NA
ATOM      3  N   UNL     1      34.177 -16.832 -26.188  0.00  0.00    -0.101 NA
ATOM      4  C   UNL     1      34.905 -17.595 -24.324  0.00  0.00    +0.251 A 
ATOM      5  C   UNL     1      34.162 -15.887 -25.278  0.00  0.00    +0.279 A 
ENDROOT
BRANCH   4  10
ATOM      6  O   UNL     1      34.523 -20.960 -20.791  0.00  0.00    -0.435 OA
ATOM      7  O   UNL     1      36.781 -20.578 -20.038  0.00  0.00    -0.435 OA
ATOM      8  C   UNL     1      35.158 -20.004 -21.523  0.00  0.00    +0.177 C 
ATOM      9  C   UNL     1      36.446 -19.786 -21.093  0.00  0.00    +0.176 C 
ATOM     10  C   UNL     1      35.425 -18.355 -23.212  0.00  0.00    +0.058 C 
ATOM     11  C   UNL     1      34.616 -19.304 -22.582  0.00  0.00    +0.045 C 
ATOM     12  C   UNL     1      37.265 -18.855 -21.698  0.00  0.00    +0.040 C 
ATOM     13  C   UNL     1      36.742 -18.132 -22.773  0.00  0.00    +0.008 C 
ATOM     14  C   UNL     1      35.558 -21.320 -19.853  0.00  0.00    +0.429 C 
ENDBRANCH   4  10
BRANCH   5  15
ATOM     15  S   UNL     1      33.622 -14.263 -25.583  0.00  0.00    -0.050 S 
BRANCH  15  16
ATOM     16  C   UNL     1      34.497 -13.357 -24.277  0.00  0.00    +0.093 C 
BRANCH  16  18
ATOM     17  F   UNL     1      32.331 -14.310 -20.026  0.00  0.00    -0.201 F 
ATOM     18  C   UNL     1      33.583 -12.961 -23.151  0.00  0.00    -0.008 C 
ATOM     19  C   UNL     1      33.380 -13.836 -22.092  0.00  0.00    +0.029 C 
ATOM     20  C   UNL     1      32.950 -11.725 -23.187  0.00  0.00    -0.000 C 
ATOM     21  C   UNL     1      31.890 -12.229 -21.076  0.00  0.00    +0.166 C 
ATOM     22  C   UNL     1      32.529 -13.468 -21.050  0.00  0.00    +0.174 C 
ATOM     23  C   UNL     1      32.100 -11.357 -22.144  0.00  0.00    +0.039 C 
BRANCH  21  24
ATOM     24  O   UNL     1      31.058 -11.869 -20.060  0.00  0.00    -0.469 OA
ATOM     25  C   UNL     1      31.656 -11.260 -18.916  0.00  0.00    +0.253 C 
ENDBRANCH  21  24
ENDBRANCH  16  18
ENDBRANCH  15  16
ENDBRANCH   5  15
TORSDOF 5
ENDMDL
MODEL 7
REMARK VINA RESULT:     -10.5      4.678      9.291
REMARK  Name = 2079916
REMARK  5 active torsions:
REMARK  status: ('A' for Active; 'I' for Inactive)
REMARK    1  A    between atoms: C_4  and  C_10
REMARK    2  A    between atoms: C_5  and  S_15
REMARK    3  A    between atoms: S_15  and  C_16
REMARK    4  A    between atoms: C_16  and  C_18
REMARK    5  A    between atoms: C_21  and  O_24
REMARK                            x       y       z     vdW  Elec       q    Type
REMARK                         _______ _______ _______ _____ _____    ______ ____
ROOT
ATOM      1  O   UNL     1      35.559 -20.352 -21.386  0.00  0.00    -0.411 OA
ATOM      2  N   UNL     1      37.086 -18.751 -21.061  0.00  0.00    -0.106 NA
ATOM      3  N   UNL     1      37.223 -19.684 -20.049  0.00  0.00    -0.101 NA
ATOM      4  C   UNL     1      36.108 -19.186 -21.810  0.00  0.00    +0.251 A 
ATOM      5  C   UNL     1      36.311 -20.599 -20.279  0.00  0.00    +0.279 A 
ENDROOT
BRANCH   4  10
ATOM      6  O   UNL     1      34.906 -15.437 -24.715  0.00  0.00    -0.435 OA
ATOM      7  O   UNL     1      33.910 -16.892 -26.358  0.00  0.00    -0.435 OA
ATOM      8  C   UNL     1      34.980 -16.748 -24.357  0.00  0.00    +0.177 C 
ATOM      9  C   UNL     1      34.412 -17.578 -25.295  0.00  0.00    +0.176 C 
ATOM     10  C   UNL     1      35.528 -18.622 -23.005  0.00  0.00    +0.058 C 
ATOM     11  C   UNL     1      35.549 -17.239 -23.199  0.00  0.00    +0.045 C 
ATOM     12  C   UNL     1      34.380 -18.948 -25.128  0.00  0.00    +0.040 C 
ATOM     13  C   UNL     1      34.948 -19.472 -23.963  0.00  0.00    +0.008 C 
ATOM     14  C   UNL     1      34.227 -15.536 -25.984  0.00  0.00    +0.429 C 
ENDBRANCH   4  10
BRANCH   5  15
ATOM     15  S   UNL     1      36.077 -21.998 -19.275  0.00  0.00    -0.050 S 
BRANCH  15  16
ATOM     16  C   UNL     1      34.265 -22.090 -19.229  0.00  0.00    +0.093 C 
BRANCH  16  18
ATOM     17  F   UNL     1      35.068 -24.135 -14.888  0.00  0.00    -0.201 F 
ATOM     18  C   UNL     1      33.759 -22.678 -17.940  0.00  0.00    -0.008 C 
ATOM     19  C   UNL     1      34.666 -23.140 -16.996  0.00  0.00    +0.029 C 
ATOM     20  C   UNL     1      32.391 -22.752 -17.712  0.00  0.00    -0.000 C 
ATOM     21  C   UNL     1      32.824 -23.766 -15.563  0.00  0.00    +0.166 C 
ATOM     22  C   UNL     1      34.196 -23.687 -15.802  0.00  0.00    +0.174 C 
ATOM     23  C   UNL     1      31.922 -23.298 -16.518  0.00  0.00    +0.039 C 
BRANCH  21  24
ATOM     24  O   UNL     1      32.364 -24.301 -14.400  0.00  0.00    -0.469 OA
ATOM     25  C   UNL     1      31.091 -23.851 -13.937  0.00  0.00    +0.253 C 
ENDBRANCH  21  24
ENDBRANCH  16  18
ENDBRANCH  15  16
ENDBRANCH   5  15
TORSDOF 5
ENDMDL
MODEL 8
REMARK VINA RESULT:     -10.2      5.919      8.677
REMARK  Name = 2079916
REMARK  5 active torsions:
REMARK  status: ('A' for Active; 'I' for Inactive)
REMARK    1  A    between atoms: C_4  and  C_10
REMARK    2  A    between atoms: C_5  and  S_15
REMARK    3  A    between atoms: S_15  and  C_16
REMARK    4  A    between atoms: C_16  and  C_18
REMARK    5  A    between atoms: C_21  and  O_24
REMARK                            x       y       z     vdW  Elec       q    Type
REMARK                         _______ _______ _______ _____ _____    ______ ____
ROOT
ATOM      1  O   UNL     1      34.905 -24.021 -16.066  0.00  0.00    -0.411 OA
ATOM      2  N   UNL     1      33.915 -24.492 -14.117  0.00  0.00    -0.106 NA
ATOM      3  N   UNL     1      32.966 -23.933 -14.953  0.00  0.00    -0.101 NA
ATOM      4  C   UNL     1      35.021 -24.521 -14.810  0.00  0.00    +0.251 A 
ATOM      5  C   UNL     1      33.588 -23.673 -16.079  0.00  0.00    +0.279 A 
ENDROOT
BRANCH   4  10
ATOM      6  O   UNL     1      39.810 -25.123 -15.618  0.00  0.00    -0.435 OA
ATOM      7  O   UNL     1      40.119 -26.305 -13.541  0.00  0.00    -0.435 OA
ATOM      8  C   UNL     1      38.650 -25.248 -14.917  0.00  0.00    +0.177 C 
ATOM      9  C   UNL     1      38.826 -25.922 -13.731  0.00  0.00    +0.176 C 
ATOM     10  C   UNL     1      36.334 -24.998 -14.449  0.00  0.00    +0.058 C 
ATOM     11  C   UNL     1      37.414 -24.771 -15.305  0.00  0.00    +0.045 C 
ATOM     12  C   UNL     1      37.777 -26.159 -12.867  0.00  0.00    +0.040 C 
ATOM     13  C   UNL     1      36.514 -25.687 -13.237  0.00  0.00    +0.008 C 
ATOM     14  C   UNL     1      40.736 -25.795 -14.740  0.00  0.00    +0.429 C 
ENDBRANCH   4  10
BRANCH   5  15
ATOM     15  S   UNL     1      32.818 -22.955 -17.462  0.00  0.00    -0.050 S 
BRANCH  15  16
ATOM     16  C   UNL     1      34.033 -23.317 -18.760  0.00  0.00    +0.093 C 
BRANCH  16  18
ATOM     17  F   UNL     1      37.228 -20.252 -20.778  0.00  0.00    -0.201 F 
ATOM     18  C   UNL     1      34.344 -22.109 -19.599  0.00  0.00    -0.008 C 
ATOM     19  C   UNL     1      35.666 -21.737 -19.803  0.00  0.00    +0.029 C 
ATOM     20  C   UNL     1      33.303 -21.378 -20.158  0.00  0.00    -0.000 C 
ATOM     21  C   UNL     1      34.915 -19.874 -21.145  0.00  0.00    +0.166 C 
ATOM     22  C   UNL     1      35.953 -20.614 -20.579  0.00  0.00    +0.174 C 
ATOM     23  C   UNL     1      33.590 -20.256 -20.934  0.00  0.00    +0.039 C 
BRANCH  21  24
ATOM     24  O   UNL     1      35.193 -18.777 -21.901  0.00  0.00    -0.469 OA
ATOM     25  C   UNL     1      35.192 -18.949 -23.319  0.00  0.00    +0.253 C 
ENDBRANCH  21  24
ENDBRANCH  16  18
ENDBRANCH  15  16
ENDBRANCH   5  15
TORSDOF 5
ENDMDL
MODEL 9
REMARK VINA RESULT:     -10.2      1.270      2.043
REMARK  Name = 2079916
REMARK  5 active torsions:
REMARK  status: ('A' for Active; 'I' for Inactive)
REMARK    1  A    between atoms: C_4  and  C_10
REMARK    2  A    between atoms: C_5  and  S_15
REMARK    3  A    between atoms: S_15  and  C_16
REMARK    4  A    between atoms: C_16  and  C_18
REMARK    5  A    between atoms: C_21  and  O_24
REMARK                            x       y       z     vdW  Elec       q    Type
REMARK                         _______ _______ _______ _____ _____    ______ ____
ROOT
ATOM      1  O   UNL     1      35.208 -18.229 -21.848  0.00  0.00    -0.411 OA
ATOM      2  N   UNL     1      35.161 -19.861 -23.377  0.00  0.00    -0.106 NA
ATOM      3  N   UNL     1      35.223 -18.652 -24.045  0.00  0.00    -0.101 NA
ATOM      4  C   UNL     1      35.156 -19.560 -22.106  0.00  0.00    +0.251 A 
ATOM      5  C   UNL     1      35.247 -17.728 -23.113  0.00  0.00    +0.279 A 
ENDROOT
BRANCH   4  10
ATOM      6  O   UNL     1      37.176 -21.819 -18.264  0.00  0.00    -0.435 OA
ATOM      7  O   UNL     1      35.086 -22.839 -17.631  0.00  0.00    -0.435 OA
ATOM      8  C   UNL     1      36.160 -21.478 -19.102  0.00  0.00    +0.177 C 
ATOM      9  C   UNL     1      34.967 -22.061 -18.741  0.00  0.00    +0.176 C 
ATOM     10  C   UNL     1      35.103 -20.418 -20.947  0.00  0.00    +0.058 C 
ATOM     11  C   UNL     1      36.261 -20.650 -20.202  0.00  0.00    +0.045 C 
ATOM     12  C   UNL     1      33.808 -21.847 -19.459  0.00  0.00    +0.040 C 
ATOM     13  C   UNL     1      33.883 -21.013 -20.578  0.00  0.00    +0.008 C 
ATOM     14  C   UNL     1      36.489 -22.680 -17.334  0.00  0.00    +0.429 C 
ENDBRANCH   4  10
BRANCH   5  15
ATOM     15  S   UNL     1      35.324 -16.024 -23.448  0.00  0.00    -0.050 S 
BRANCH  15  16
ATOM     16  C   UNL     1      34.886 -15.334 -21.827  0.00  0.00    +0.093 C 
BRANCH  16  18
ATOM     17  F   UNL     1      33.407 -11.319 -24.144  0.00  0.00    -0.201 F 
ATOM     18  C   UNL     1      33.968 -14.149 -21.946  0.00  0.00    -0.008 C 
ATOM     19  C   UNL     1      34.117 -13.270 -23.010  0.00  0.00    +0.029 C 
ATOM     20  C   UNL     1      32.984 -13.947 -20.987  0.00  0.00    -0.000 C 
ATOM     21  C   UNL     1      32.275 -11.958 -22.160  0.00  0.00    +0.166 C 
ATOM     22  C   UNL     1      33.266 -12.170 -23.118  0.00  0.00    +0.174 C 
ATOM     23  C   UNL     1      32.133 -12.848 -21.094  0.00  0.00    +0.039 C 
BRANCH  21  24
ATOM     24  O   UNL     1      31.445 -10.885 -22.262  0.00  0.00    -0.469 OA
ATOM     25  C   UNL     1      31.882  -9.666 -21.662  0.00  0.00    +0.253 C 
ENDBRANCH  21  24
ENDBRANCH  16  18
ENDBRANCH  15  16
ENDBRANCH   5  15
TORSDOF 5
ENDMDL
