MODEL 1
REMARK VINA RESULT:     -11.2      0.000      0.000
REMARK  Name = 9931954
REMARK  3 active torsions:
REMARK  status: ('A' for Active; 'I' for Inactive)
REMARK    1  A    between atoms: C_8  and  C_18
REMARK    2  A    between atoms: C_21  and  C_24
REMARK    3  A    between atoms: C_24  and  N_25
REMARK                            x       y       z     vdW  Elec       q    Type
REMARK                         _______ _______ _______ _____ _____    ______ ____
ROOT
ATOM      1  F   UNL     1      29.832 -25.631 -14.332  0.00  0.00    -0.204 F 
ATOM      2  O   UNL     1      34.305 -24.513 -12.511  0.00  0.00    -0.270 OA
ATOM      3  N   UNL     1      32.190 -23.082 -17.732  0.00  0.00    -0.353 N 
ATOM      4  N   UNL     1      35.727 -24.147 -14.246  0.00  0.00    -0.301 N 
ATOM      5  C   UNL     1      34.146 -23.065 -16.676  0.00  0.00    -0.003 A 
ATOM      6  C   UNL     1      33.204 -23.763 -15.859  0.00  0.00    +0.018 A 
ATOM      7  C   UNL     1      35.587 -22.872 -16.364  0.00  0.00    +0.049 C 
ATOM      8  C   UNL     1      33.484 -22.650 -17.812  0.00  0.00    +0.053 A 
ATOM      9  C   UNL     1      31.993 -23.773 -16.559  0.00  0.00    +0.059 A 
ATOM     10  C   UNL     1      33.264 -24.393 -14.596  0.00  0.00    +0.057 C 
ATOM     11  C   UNL     1      36.153 -24.084 -15.636  0.00  0.00    +0.094 C 
ATOM     12  C   UNL     1      34.465 -24.359 -13.724  0.00  0.00    +0.246 C 
ATOM     13  C   UNL     1      30.838 -24.394 -16.075  0.00  0.00    +0.047 C 
ATOM     14  C   UNL     1      32.102 -25.019 -14.102  0.00  0.00    +0.034 C 
ATOM     15  C   UNL     1      30.916 -25.023 -14.833  0.00  0.00    +0.142 C 
ATOM     16  H   UNL     1      31.500 -22.921 -18.414  0.00  0.00    +0.166 HD
ATOM     17  H   UNL     1      36.441 -24.019 -13.581  0.00  0.00    +0.150 HD
ENDROOT
BRANCH   8  18
ATOM     18  C   UNL     1      33.955 -21.908 -18.959  0.00  0.00    +0.015 C 
ATOM     19  C   UNL     1      35.302 -21.956 -19.312  0.00  0.00    +0.001 C 
ATOM     20  C   UNL     1      33.061 -21.145 -19.708  0.00  0.00    +0.001 C 
ATOM     21  C   UNL     1      34.863 -20.475 -21.170  0.00  0.00    -0.044 C 
ATOM     22  C   UNL     1      35.757 -21.239 -20.419  0.00  0.00    -0.006 C 
ATOM     23  C   UNL     1      33.516 -20.428 -20.815  0.00  0.00    -0.006 C 
BRANCH  21  24
ATOM     24  C   UNL     1      35.349 -19.708 -22.353  0.00  0.00    -0.054 C 
BRANCH  24  25
ATOM     25  N   UNL     1      35.883 -18.420 -21.990  0.00  0.00    +0.385 N 
ATOM     26  C   UNL     1      35.731 -17.451 -23.075  0.00  0.00    -0.105 C 
ATOM     27  H   UNL     1      36.875 -18.522 -21.773  0.00  0.00    -0.084 HD
ATOM     28  H   UNL     1      35.367 -18.077 -21.180  0.00  0.00    -0.084 HD
ENDBRANCH  24  25
ENDBRANCH  21  24
ENDBRANCH   8  18
TORSDOF 3
ENDMDL
MODEL 2
REMARK VINA RESULT:     -10.6      3.394      5.534
REMARK  Name = 9931954
REMARK  3 active torsions:
REMARK  status: ('A' for Active; 'I' for Inactive)
REMARK    1  A    between atoms: C_8  and  C_18
REMARK    2  A    between atoms: C_21  and  C_24
REMARK    3  A    between atoms: C_24  and  N_25
REMARK                            x       y       z     vdW  Elec       q    Type
REMARK                         _______ _______ _______ _____ _____    ______ ____
ROOT
ATOM      1  F   UNL     1      38.261 -22.454 -16.358  0.00  0.00    -0.204 F 
ATOM      2  O   UNL     1      33.780 -24.143 -17.638  0.00  0.00    -0.270 OA
ATOM      3  N   UNL     1      36.847 -19.981 -20.295  0.00  0.00    -0.353 N 
ATOM      4  N   UNL     1      32.706 -22.529 -18.827  0.00  0.00    -0.301 N 
ATOM      5  C   UNL     1      34.778 -20.794 -20.333  0.00  0.00    -0.003 A 
ATOM      6  C   UNL     1      35.472 -21.392 -19.236  0.00  0.00    +0.018 A 
ATOM      7  C   UNL     1      33.352 -21.022 -20.682  0.00  0.00    +0.049 C 
ATOM      8  C   UNL     1      35.658 -19.943 -20.968  0.00  0.00    +0.053 A 
ATOM      9  C   UNL     1      36.761 -20.846 -19.229  0.00  0.00    +0.059 A 
ATOM     10  C   UNL     1      35.130 -22.339 -18.245  0.00  0.00    +0.057 C 
ATOM     11  C   UNL     1      32.509 -21.219 -19.429  0.00  0.00    +0.094 C 
ATOM     12  C   UNL     1      33.830 -23.054 -18.215  0.00  0.00    +0.246 C 
ATOM     13  C   UNL     1      37.725 -21.180 -18.273  0.00  0.00    +0.047 C 
ATOM     14  C   UNL     1      36.099 -22.681 -17.280  0.00  0.00    +0.034 C 
ATOM     15  C   UNL     1      37.368 -22.106 -17.293  0.00  0.00    +0.142 C 
ATOM     16  H   UNL     1      37.648 -19.465 -20.539  0.00  0.00    +0.166 HD
ATOM     17  H   UNL     1      31.927 -23.129 -18.859  0.00  0.00    +0.150 HD
ENDROOT
BRANCH   8  18
ATOM     18  C   UNL     1      35.480 -19.097 -22.125  0.00  0.00    +0.015 C 
ATOM     19  C   UNL     1      35.694 -17.723 -22.021  0.00  0.00    +0.001 C 
ATOM     20  C   UNL     1      35.097 -19.656 -23.343  0.00  0.00    +0.001 C 
ATOM     21  C   UNL     1      35.138 -17.465 -24.359  0.00  0.00    -0.044 C 
ATOM     22  C   UNL     1      35.522 -16.906 -23.139  0.00  0.00    -0.006 C 
ATOM     23  C   UNL     1      34.926 -18.838 -24.461  0.00  0.00    -0.006 C 
BRANCH  21  24
ATOM     24  C   UNL     1      34.956 -16.591 -25.553  0.00  0.00    -0.054 C 
BRANCH  24  25
ATOM     25  N   UNL     1      34.162 -15.424 -25.262  0.00  0.00    +0.385 N 
ATOM     26  C   UNL     1      33.629 -14.820 -26.482  0.00  0.00    -0.105 C 
ATOM     27  H   UNL     1      34.745 -14.739 -24.781  0.00  0.00    -0.084 HD
ATOM     28  H   UNL     1      33.377 -15.708 -24.677  0.00  0.00    -0.084 HD
ENDBRANCH  24  25
ENDBRANCH  21  24
ENDBRANCH   8  18
TORSDOF 3
ENDMDL
MODEL 3
REMARK VINA RESULT:     -10.3      6.221     10.640
REMARK  Name = 9931954
REMARK  3 active torsions:
REMARK  status: ('A' for Active; 'I' for Inactive)
REMARK    1  A    between atoms: C_8  and  C_18
REMARK    2  A    between atoms: C_21  and  C_24
REMARK    3  A    between atoms: C_24  and  N_25
REMARK                            x       y       z     vdW  Elec       q    Type
REMARK                         _______ _______ _______ _____ _____    ______ ____
ROOT
ATOM      1  F   UNL     1      33.660 -14.726 -27.709  0.00  0.00    -0.204 F 
ATOM      2  O   UNL     1      34.271 -11.961 -23.642  0.00  0.00    -0.270 OA
ATOM      3  N   UNL     1      35.044 -17.701 -24.125  0.00  0.00    -0.353 N 
ATOM      4  N   UNL     1      34.036 -13.292 -21.814  0.00  0.00    -0.301 N 
ATOM      5  C   UNL     1      34.905 -16.179 -22.511  0.00  0.00    -0.003 A 
ATOM      6  C   UNL     1      34.558 -15.551 -23.747  0.00  0.00    +0.018 A 
ATOM      7  C   UNL     1      34.889 -15.527 -21.175  0.00  0.00    +0.049 C 
ATOM      8  C   UNL     1      35.209 -17.495 -22.784  0.00  0.00    +0.053 A 
ATOM      9  C   UNL     1      34.636 -16.538 -24.736  0.00  0.00    +0.059 A 
ATOM     10  C   UNL     1      34.180 -14.242 -24.121  0.00  0.00    +0.057 C 
ATOM     11  C   UNL     1      33.755 -14.515 -21.077  0.00  0.00    +0.094 C 
ATOM     12  C   UNL     1      34.160 -13.097 -23.177  0.00  0.00    +0.246 C 
ATOM     13  C   UNL     1      34.338 -16.295 -26.080  0.00  0.00    +0.047 C 
ATOM     14  C   UNL     1      33.881 -13.991 -25.476  0.00  0.00    +0.034 C 
ATOM     15  C   UNL     1      33.953 -15.002 -26.432  0.00  0.00    +0.142 C 
ATOM     16  H   UNL     1      35.194 -18.557 -24.586  0.00  0.00    +0.166 HD
ATOM     17  H   UNL     1      34.156 -12.487 -21.262  0.00  0.00    +0.150 HD
ENDROOT
BRANCH   8  18
ATOM     18  C   UNL     1      35.622 -18.568 -21.908  0.00  0.00    +0.015 C 
ATOM     19  C   UNL     1      34.694 -19.520 -21.490  0.00  0.00    +0.001 C 
ATOM     20  C   UNL     1      36.948 -18.649 -21.485  0.00  0.00    +0.001 C 
ATOM     21  C   UNL     1      36.419 -20.638 -20.220  0.00  0.00    -0.044 C 
ATOM     22  C   UNL     1      35.092 -20.555 -20.645  0.00  0.00    -0.006 C 
ATOM     23  C   UNL     1      37.346 -19.685 -20.640  0.00  0.00    -0.006 C 
BRANCH  21  24
ATOM     24  C   UNL     1      36.845 -21.745 -19.317  0.00  0.00    -0.054 C 
BRANCH  24  25
ATOM     25  N   UNL     1      37.217 -21.271 -18.007  0.00  0.00    +0.385 N 
ATOM     26  C   UNL     1      37.046 -22.310 -16.993  0.00  0.00    -0.105 C 
ATOM     27  H   UNL     1      36.632 -20.472 -17.765  0.00  0.00    -0.084 HD
ATOM     28  H   UNL     1      38.202 -21.007 -18.031  0.00  0.00    -0.084 HD
ENDBRANCH  24  25
ENDBRANCH  21  24
ENDBRANCH   8  18
TORSDOF 3
ENDMDL
MODEL 4
REMARK VINA RESULT:     -10.1      1.974      3.236
REMARK  Name = 9931954
REMARK  3 active torsions:
REMARK  status: ('A' for Active; 'I' for Inactive)
REMARK    1  A    between atoms: C_8  and  C_18
REMARK    2  A    between atoms: C_21  and  C_24
REMARK    3  A    between atoms: C_24  and  N_25
REMARK                            x       y       z     vdW  Elec       q    Type
REMARK                         _______ _______ _______ _____ _____    ______ ____
ROOT
ATOM      1  F   UNL     1      36.862 -24.963 -13.058  0.00  0.00    -0.204 F 
ATOM      2  O   UNL     1      32.093 -25.700 -14.189  0.00  0.00    -0.270 OA
ATOM      3  N   UNL     1      35.988 -22.653 -17.243  0.00  0.00    -0.353 N 
ATOM      4  N   UNL     1      31.398 -24.016 -15.549  0.00  0.00    -0.301 N 
ATOM      5  C   UNL     1      33.787 -22.968 -17.212  0.00  0.00    -0.003 A 
ATOM      6  C   UNL     1      34.344 -23.593 -16.053  0.00  0.00    +0.018 A 
ATOM      7  C   UNL     1      32.341 -22.899 -17.547  0.00  0.00    +0.049 C 
ATOM      8  C   UNL     1      34.828 -22.413 -17.926  0.00  0.00    +0.053 A 
ATOM      9  C   UNL     1      35.723 -23.359 -16.093  0.00  0.00    +0.059 A 
ATOM     10  C   UNL     1      33.810 -24.328 -14.971  0.00  0.00    +0.057 C 
ATOM     11  C   UNL     1      31.496 -22.766 -16.287  0.00  0.00    +0.094 C 
ATOM     12  C   UNL     1      32.381 -24.718 -14.877  0.00  0.00    +0.246 C 
ATOM     13  C   UNL     1      36.600 -23.805 -15.099  0.00  0.00    +0.047 C 
ATOM     14  C   UNL     1      34.690 -24.781 -13.968  0.00  0.00    +0.034 C 
ATOM     15  C   UNL     1      36.057 -24.517 -14.031  0.00  0.00    +0.142 C 
ATOM     16  H   UNL     1      36.882 -22.363 -17.533  0.00  0.00    +0.166 HD
ATOM     17  H   UNL     1      30.502 -24.421 -15.525  0.00  0.00    +0.150 HD
ENDROOT
BRANCH   8  18
ATOM     18  C   UNL     1      34.831 -21.674 -19.167  0.00  0.00    +0.015 C 
ATOM     19  C   UNL     1      33.624 -21.309 -19.761  0.00  0.00    +0.001 C 
ATOM     20  C   UNL     1      36.040 -21.327 -19.768  0.00  0.00    +0.001 C 
ATOM     21  C   UNL     1      34.836 -20.247 -21.562  0.00  0.00    -0.044 C 
ATOM     22  C   UNL     1      33.626 -20.595 -20.959  0.00  0.00    -0.006 C 
ATOM     23  C   UNL     1      36.042 -20.613 -20.966  0.00  0.00    -0.006 C 
BRANCH  21  24
ATOM     24  C   UNL     1      34.838 -19.484 -22.843  0.00  0.00    -0.054 C 
BRANCH  24  25
ATOM     25  N   UNL     1      35.987 -18.622 -22.965  0.00  0.00    +0.385 N 
ATOM     26  C   UNL     1      35.606 -17.211 -22.920  0.00  0.00    -0.105 C 
ATOM     27  H   UNL     1      36.451 -18.812 -23.853  0.00  0.00    -0.084 HD
ATOM     28  H   UNL     1      36.612 -18.809 -22.181  0.00  0.00    -0.084 HD
ENDBRANCH  24  25
ENDBRANCH  21  24
ENDBRANCH   8  18
TORSDOF 3
ENDMDL
MODEL 5
REMARK VINA RESULT:      -9.9      9.718     13.753
REMARK  Name = 9931954
REMARK  3 active torsions:
REMARK  status: ('A' for Active; 'I' for Inactive)
REMARK    1  A    between atoms: C_8  and  C_18
REMARK    2  A    between atoms: C_21  and  C_24
REMARK    3  A    between atoms: C_24  and  N_25
REMARK                            x       y       z     vdW  Elec       q    Type
REMARK                         _______ _______ _______ _____ _____    ______ ____
ROOT
ATOM      1  F   UNL     1      34.618  -6.325 -23.855  0.00  0.00    -0.204 F 
ATOM      2  O   UNL     1      32.029  -8.390 -20.168  0.00  0.00    -0.270 OA
ATOM      3  N   UNL     1      34.640 -11.130 -24.579  0.00  0.00    -0.353 N 
ATOM      4  N   UNL     1      31.250 -10.409 -20.866  0.00  0.00    -0.301 N 
ATOM      5  C   UNL     1      33.186 -11.602 -22.964  0.00  0.00    -0.003 A 
ATOM      6  C   UNL     1      33.402 -10.189 -22.973  0.00  0.00    +0.018 A 
ATOM      7  C   UNL     1      32.245 -12.329 -22.073  0.00  0.00    +0.049 C 
ATOM      8  C   UNL     1      33.973 -12.148 -23.956  0.00  0.00    +0.053 A 
ATOM      9  C   UNL     1      34.303  -9.925 -24.009  0.00  0.00    +0.059 A 
ATOM     10  C   UNL     1      32.914  -9.108 -22.204  0.00  0.00    +0.057 C 
ATOM     11  C   UNL     1      31.000 -11.495 -21.802  0.00  0.00    +0.094 C 
ATOM     12  C   UNL     1      32.033  -9.280 -21.021  0.00  0.00    +0.246 C 
ATOM     13  C   UNL     1      34.733  -8.634 -24.335  0.00  0.00    +0.047 C 
ATOM     14  C   UNL     1      33.345  -7.806 -22.527  0.00  0.00    +0.034 C 
ATOM     15  C   UNL     1      34.233  -7.577 -23.577  0.00  0.00    +0.142 C 
ATOM     16  H   UNL     1      35.270 -11.244 -25.326  0.00  0.00    +0.166 HD
ATOM     17  H   UNL     1      30.797 -10.490 -19.997  0.00  0.00    +0.150 HD
ENDROOT
BRANCH   8  18
ATOM     18  C   UNL     1      34.142 -13.520 -24.376  0.00  0.00    +0.015 C 
ATOM     19  C   UNL     1      34.895 -14.397 -23.598  0.00  0.00    +0.001 C 
ATOM     20  C   UNL     1      33.552 -13.963 -25.559  0.00  0.00    +0.001 C 
ATOM     21  C   UNL     1      34.468 -16.167 -25.187  0.00  0.00    -0.044 C 
ATOM     22  C   UNL     1      35.058 -15.722 -24.004  0.00  0.00    -0.006 C 
ATOM     23  C   UNL     1      33.716 -15.288 -25.964  0.00  0.00    -0.006 C 
BRANCH  21  24
ATOM     24  C   UNL     1      34.642 -17.583 -25.621  0.00  0.00    -0.054 C 
BRANCH  24  25
ATOM     25  N   UNL     1      34.011 -18.513 -24.719  0.00  0.00    +0.385 N 
ATOM     26  C   UNL     1      34.994 -19.377 -24.065  0.00  0.00    -0.105 C 
ATOM     27  H   UNL     1      33.359 -19.094 -25.246  0.00  0.00    -0.084 HD
ATOM     28  H   UNL     1      33.524 -17.981 -23.999  0.00  0.00    -0.084 HD
ENDBRANCH  24  25
ENDBRANCH  21  24
ENDBRANCH   8  18
TORSDOF 3
ENDMDL
MODEL 6
REMARK VINA RESULT:      -9.7     10.679     14.531
REMARK  Name = 9931954
REMARK  3 active torsions:
REMARK  status: ('A' for Active; 'I' for Inactive)
REMARK    1  A    between atoms: C_8  and  C_18
REMARK    2  A    between atoms: C_21  and  C_24
REMARK    3  A    between atoms: C_24  and  N_25
REMARK                            x       y       z     vdW  Elec       q    Type
REMARK                         _______ _______ _______ _____ _____    ______ ____
ROOT
ATOM      1  F   UNL     1      34.934 -14.941 -24.381  0.00  0.00    -0.204 F 
ATOM      2  O   UNL     1      31.958 -14.530 -20.438  0.00  0.00    -0.270 OA
ATOM      3  N   UNL     1      33.500 -10.305 -24.120  0.00  0.00    -0.353 N 
ATOM      4  N   UNL     1      31.972 -12.367 -19.737  0.00  0.00    -0.301 N 
ATOM      5  C   UNL     1      32.497 -10.496 -22.145  0.00  0.00    -0.003 A 
ATOM      6  C   UNL     1      33.020 -11.777 -22.506  0.00  0.00    +0.018 A 
ATOM      7  C   UNL     1      31.798 -10.174 -20.874  0.00  0.00    +0.049 C 
ATOM      8  C   UNL     1      32.800  -9.621 -23.166  0.00  0.00    +0.053 A 
ATOM      9  C   UNL     1      33.660 -11.617 -23.740  0.00  0.00    +0.059 A 
ATOM     10  C   UNL     1      33.018 -13.054 -21.901  0.00  0.00    +0.057 C 
ATOM     11  C   UNL     1      32.382 -10.971 -19.715  0.00  0.00    +0.094 C 
ATOM     12  C   UNL     1      32.289 -13.360 -20.646  0.00  0.00    +0.246 C 
ATOM     13  C   UNL     1      34.316 -12.662 -24.399  0.00  0.00    +0.047 C 
ATOM     14  C   UNL     1      33.676 -14.110 -22.562  0.00  0.00    +0.034 C 
ATOM     15  C   UNL     1      34.317 -13.913 -23.784  0.00  0.00    +0.142 C 
ATOM     16  H   UNL     1      33.840  -9.915 -24.957  0.00  0.00    +0.166 HD
ATOM     17  H   UNL     1      31.384 -12.645 -18.999  0.00  0.00    +0.150 HD
ENDROOT
BRANCH   8  18
ATOM     18  C   UNL     1      32.508  -8.214 -23.319  0.00  0.00    +0.015 C 
ATOM     19  C   UNL     1      33.524  -7.273 -23.166  0.00  0.00    +0.001 C 
ATOM     20  C   UNL     1      31.210  -7.802 -23.618  0.00  0.00    +0.001 C 
ATOM     21  C   UNL     1      31.944  -5.500 -23.612  0.00  0.00    -0.044 C 
ATOM     22  C   UNL     1      33.242  -5.915 -23.313  0.00  0.00    -0.006 C 
ATOM     23  C   UNL     1      30.929  -6.443 -23.765  0.00  0.00    -0.006 C 
BRANCH  21  24
ATOM     24  C   UNL     1      31.643  -4.049 -23.770  0.00  0.00    -0.054 C 
BRANCH  24  25
ATOM     25  N   UNL     1      30.768  -3.555 -22.736  0.00  0.00    +0.385 N 
ATOM     26  C   UNL     1      30.589  -2.107 -22.830  0.00  0.00    -0.105 C 
ATOM     27  H   UNL     1      31.170  -3.781 -21.826  0.00  0.00    -0.084 HD
ATOM     28  H   UNL     1      29.856  -3.998 -22.850  0.00  0.00    -0.084 HD
ENDBRANCH  24  25
ENDBRANCH  21  24
ENDBRANCH   8  18
TORSDOF 3
ENDMDL
MODEL 7
REMARK VINA RESULT:      -9.5      9.458     13.364
REMARK  Name = 9931954
REMARK  3 active torsions:
REMARK  status: ('A' for Active; 'I' for Inactive)
REMARK    1  A    between atoms: C_8  and  C_18
REMARK    2  A    between atoms: C_21  and  C_24
REMARK    3  A    between atoms: C_24  and  N_25
REMARK                            x       y       z     vdW  Elec       q    Type
REMARK                         _______ _______ _______ _____ _____    ______ ____
ROOT
ATOM      1  F   UNL     1      32.270  -6.318 -23.551  0.00  0.00    -0.204 F 
ATOM      2  O   UNL     1      31.708  -8.564 -19.169  0.00  0.00    -0.270 OA
ATOM      3  N   UNL     1      33.479 -10.987 -24.146  0.00  0.00    -0.353 N 
ATOM      4  N   UNL     1      31.381 -10.785 -19.525  0.00  0.00    -0.301 N 
ATOM      5  C   UNL     1      32.817 -11.644 -22.129  0.00  0.00    -0.003 A 
ATOM      6  C   UNL     1      32.592 -10.236 -22.236  0.00  0.00    +0.018 A 
ATOM      7  C   UNL     1      32.464 -12.490 -20.959  0.00  0.00    +0.049 C 
ATOM      8  C   UNL     1      33.375 -12.067 -23.316  0.00  0.00    +0.053 A 
ATOM      9  C   UNL     1      32.999  -9.860 -23.520  0.00  0.00    +0.059 A 
ATOM     10  C   UNL     1      32.075  -9.247 -21.369  0.00  0.00    +0.057 C 
ATOM     11  C   UNL     1      31.180 -12.000 -20.301  0.00  0.00    +0.094 C 
ATOM     12  C   UNL     1      31.706  -9.512 -19.957  0.00  0.00    +0.246 C 
ATOM     13  C   UNL     1      32.903  -8.549 -23.997  0.00  0.00    +0.047 C 
ATOM     14  C   UNL     1      31.978  -7.923 -21.844  0.00  0.00    +0.034 C 
ATOM     15  C   UNL     1      32.379  -7.586 -23.135  0.00  0.00    +0.142 C 
ATOM     16  H   UNL     1      33.845 -11.011 -25.059  0.00  0.00    +0.166 HD
ATOM     17  H   UNL     1      31.271 -10.884 -18.553  0.00  0.00    +0.150 HD
ENDROOT
BRANCH   8  18
ATOM     18  C   UNL     1      33.799 -13.381 -23.742  0.00  0.00    +0.015 C 
ATOM     19  C   UNL     1      33.461 -13.843 -25.012  0.00  0.00    +0.001 C 
ATOM     20  C   UNL     1      34.546 -14.184 -22.881  0.00  0.00    +0.001 C 
ATOM     21  C   UNL     1      34.618 -15.915 -24.563  0.00  0.00    -0.044 C 
ATOM     22  C   UNL     1      33.871 -15.111 -25.423  0.00  0.00    -0.006 C 
ATOM     23  C   UNL     1      34.956 -15.452 -23.293  0.00  0.00    -0.006 C 
BRANCH  21  24
ATOM     24  C   UNL     1      35.057 -17.271 -25.002  0.00  0.00    -0.054 C 
BRANCH  24  25
ATOM     25  N   UNL     1      35.640 -18.034 -23.927  0.00  0.00    +0.385 N 
ATOM     26  C   UNL     1      34.989 -19.335 -23.778  0.00  0.00    -0.105 C 
ATOM     27  H   UNL     1      35.539 -17.511 -23.057  0.00  0.00    -0.084 HD
ATOM     28  H   UNL     1      36.624 -18.192 -24.144  0.00  0.00    -0.084 HD
ENDBRANCH  24  25
ENDBRANCH  21  24
ENDBRANCH   8  18
TORSDOF 3
ENDMDL
MODEL 8
REMARK VINA RESULT:      -9.3      1.452      1.921
REMARK  Name = 9931954
REMARK  3 active torsions:
REMARK  status: ('A' for Active; 'I' for Inactive)
REMARK    1  A    between atoms: C_8  and  C_18
REMARK    2  A    between atoms: C_21  and  C_24
REMARK    3  A    between atoms: C_24  and  N_25
REMARK                            x       y       z     vdW  Elec       q    Type
REMARK                         _______ _______ _______ _____ _____    ______ ____
ROOT
ATOM      1  F   UNL     1      31.771 -25.206 -14.939  0.00  0.00    -0.204 F 
ATOM      2  O   UNL     1      36.168 -23.588 -13.321  0.00  0.00    -0.270 OA
ATOM      3  N   UNL     1      33.687 -22.447 -18.452  0.00  0.00    -0.353 N 
ATOM      4  N   UNL     1      37.465 -23.085 -15.118  0.00  0.00    -0.301 N 
ATOM      5  C   UNL     1      35.673 -22.206 -17.482  0.00  0.00    -0.003 A 
ATOM      6  C   UNL     1      34.849 -22.995 -16.621  0.00  0.00    +0.018 A 
ATOM      7  C   UNL     1      37.095 -21.854 -17.234  0.00  0.00    +0.049 C 
ATOM      8  C   UNL     1      34.922 -21.878 -18.590  0.00  0.00    +0.053 A 
ATOM      9  C   UNL     1      33.617 -23.144 -17.268  0.00  0.00    +0.059 A 
ATOM     10  C   UNL     1      35.032 -23.603 -15.359  0.00  0.00    +0.057 C 
ATOM     11  C   UNL     1      37.822 -22.989 -16.526  0.00  0.00    +0.094 C 
ATOM     12  C   UNL     1      36.258 -23.429 -14.540  0.00  0.00    +0.246 C 
ATOM     13  C   UNL     1      32.559 -23.884 -16.731  0.00  0.00    +0.047 C 
ATOM     14  C   UNL     1      33.968 -24.348 -14.812  0.00  0.00    +0.034 C 
ATOM     15  C   UNL     1      32.759 -24.488 -15.490  0.00  0.00    +0.142 C 
ATOM     16  H   UNL     1      32.955 -22.370 -19.104  0.00  0.00    +0.166 HD
ATOM     17  H   UNL     1      38.189 -22.873 -14.486  0.00  0.00    +0.150 HD
ENDROOT
BRANCH   8  18
ATOM     18  C   UNL     1      35.258 -21.099 -19.760  0.00  0.00    +0.015 C 
ATOM     19  C   UNL     1      36.577 -20.700 -19.973  0.00  0.00    +0.001 C 
ATOM     20  C   UNL     1      34.264 -20.749 -20.672  0.00  0.00    +0.001 C 
ATOM     21  C   UNL     1      35.908 -19.597 -22.016  0.00  0.00    -0.044 C 
ATOM     22  C   UNL     1      36.902 -19.948 -21.102  0.00  0.00    -0.006 C 
ATOM     23  C   UNL     1      34.590 -19.997 -21.802  0.00  0.00    -0.006 C 
BRANCH  21  24
ATOM     24  C   UNL     1      36.255 -18.794 -23.223  0.00  0.00    -0.054 C 
BRANCH  24  25
ATOM     25  N   UNL     1      35.088 -18.381 -23.962  0.00  0.00    +0.385 N 
ATOM     26  C   UNL     1      35.183 -16.982 -24.376  0.00  0.00    -0.105 C 
ATOM     27  H   UNL     1      34.264 -18.497 -23.371  0.00  0.00    -0.084 HD
ATOM     28  H   UNL     1      35.019 -18.958 -24.799  0.00  0.00    -0.084 HD
ENDBRANCH  24  25
ENDBRANCH  21  24
ENDBRANCH   8  18
TORSDOF 3
ENDMDL
MODEL 9
REMARK VINA RESULT:      -9.3      2.426      3.844
REMARK  Name = 9931954
REMARK  3 active torsions:
REMARK  status: ('A' for Active; 'I' for Inactive)
REMARK    1  A    between atoms: C_8  and  C_18
REMARK    2  A    between atoms: C_21  and  C_24
REMARK    3  A    between atoms: C_24  and  N_25
REMARK                            x       y       z     vdW  Elec       q    Type
REMARK                         _______ _______ _______ _____ _____    ______ ____
ROOT
ATOM      1  F   UNL     1      38.268 -23.852 -13.909  0.00  0.00    -0.204 F 
ATOM      2  O   UNL     1      33.682 -25.428 -14.936  0.00  0.00    -0.270 OA
ATOM      3  N   UNL     1      36.901 -21.734 -18.063  0.00  0.00    -0.353 N 
ATOM      4  N   UNL     1      32.667 -23.894 -16.273  0.00  0.00    -0.301 N 
ATOM      5  C   UNL     1      34.793 -22.436 -17.984  0.00  0.00    -0.003 A 
ATOM      6  C   UNL     1      35.479 -22.952 -16.841  0.00  0.00    +0.018 A 
ATOM      7  C   UNL     1      33.351 -22.625 -18.287  0.00  0.00    +0.049 C 
ATOM      8  C   UNL     1      35.702 -21.704 -18.718  0.00  0.00    +0.053 A 
ATOM      9  C   UNL     1      36.793 -22.476 -16.910  0.00  0.00    +0.059 A 
ATOM     10  C   UNL     1      35.108 -23.771 -15.750  0.00  0.00    +0.057 C 
ATOM     11  C   UNL     1      32.525 -22.646 -17.007  0.00  0.00    +0.094 C 
ATOM     12  C   UNL     1      33.775 -24.410 -15.626  0.00  0.00    +0.246 C 
ATOM     13  C   UNL     1      37.758 -22.759 -15.939  0.00  0.00    +0.047 C 
ATOM     14  C   UNL     1      36.078 -24.060 -14.769  0.00  0.00    +0.034 C 
ATOM     15  C   UNL     1      37.374 -23.557 -14.862  0.00  0.00    +0.142 C 
ATOM     16  H   UNL     1      37.723 -21.289 -18.372  0.00  0.00    +0.166 HD
ATOM     17  H   UNL     1      31.858 -24.452 -16.231  0.00  0.00    +0.150 HD
ENDROOT
BRANCH   8  18
ATOM     18  C   UNL     1      35.544 -20.975 -19.956  0.00  0.00    +0.015 C 
ATOM     19  C   UNL     1      34.277 -20.819 -20.514  0.00  0.00    +0.001 C 
ATOM     20  C   UNL     1      36.661 -20.431 -20.590  0.00  0.00    +0.001 C 
ATOM     21  C   UNL     1      35.241 -19.570 -22.344  0.00  0.00    -0.044 C 
ATOM     22  C   UNL     1      34.125 -20.116 -21.709  0.00  0.00    -0.006 C 
ATOM     23  C   UNL     1      36.508 -19.728 -21.785  0.00  0.00    -0.006 C 
BRANCH  21  24
ATOM     24  C   UNL     1      35.078 -18.818 -23.621  0.00  0.00    -0.054 C 
BRANCH  24  25
ATOM     25  N   UNL     1      36.002 -17.718 -23.731  0.00  0.00    +0.385 N 
ATOM     26  C   UNL     1      35.393 -16.461 -23.297  0.00  0.00    -0.105 C 
ATOM     27  H   UNL     1      36.294 -17.626 -24.704  0.00  0.00    -0.084 HD
ATOM     28  H   UNL     1      36.802 -17.910 -23.128  0.00  0.00    -0.084 HD
ENDBRANCH  24  25
ENDBRANCH  21  24
ENDBRANCH   8  18
TORSDOF 3
ENDMDL
