MODEL 1
REMARK VINA RESULT:     -10.7      0.000      0.000
REMARK  Name = 447476
REMARK  4 active torsions:
REMARK  status: ('A' for Active; 'I' for Inactive)
REMARK    1  A    between atoms: C_2  and  C_17
REMARK    2  A    between atoms: C_8  and  C_13
REMARK    3  A    between atoms: C_18  and  O_29
REMARK    4  A    between atoms: C_19  and  C_23
REMARK                            x       y       z     vdW  Elec       q    Type
REMARK                         _______ _______ _______ _____ _____    ______ ____
ROOT
ATOM      1  N   UNL     1      33.082 -13.652 -22.792  0.00  0.00    -0.312 N 
ATOM      2  C   UNL     1      33.933 -13.907 -23.834  0.00  0.00    +0.051 C 
ATOM      3  C   UNL     1      33.575 -11.678 -23.707  0.00  0.00    +0.015 C 
ATOM      4  C   UNL     1      32.846 -12.299 -22.691  0.00  0.00    +0.048 C 
ATOM      5  C   UNL     1      34.257 -12.704 -24.420  0.00  0.00    +0.016 C 
ATOM      6  C   UNL     1      33.511 -10.275 -23.827  0.00  0.00    +0.004 C 
ATOM      7  C   UNL     1      32.050 -11.587 -21.788  0.00  0.00    +0.015 C 
ATOM      8  C   UNL     1      32.719  -9.549 -22.930  0.00  0.00    +0.031 C 
ATOM      9  C   UNL     1      32.001 -10.196 -21.928  0.00  0.00    +0.004 C 
ATOM     10  H   UNL     1      32.694 -14.338 -22.202  0.00  0.00    +0.152 HD
ENDROOT
BRANCH   8  13
ATOM     11  N   UNL     1      33.739  -7.293 -22.740  0.00  0.00    -0.343 N 
ATOM     12  N   UNL     1      31.527  -7.529 -23.452  0.00  0.00    -0.285 NA
ATOM     13  C   UNL     1      32.647  -8.101 -23.049  0.00  0.00    +0.117 C 
ATOM     14  H   UNL     1      33.669  -6.315 -22.826  0.00  0.00    +0.144 HD
ATOM     15  H   UNL     1      34.582  -7.702 -22.435  0.00  0.00    +0.144 HD
ATOM     16  H   UNL     1      31.475  -6.549 -23.532  0.00  0.00    +0.188 HD
ENDBRANCH   8  13
BRANCH   2  17
ATOM     17  C   UNL     1      34.353 -15.245 -24.170  0.00  0.00    +0.047 C 
ATOM     18  C   UNL     1      34.833 -16.117 -23.190  0.00  0.00    +0.135 C 
ATOM     19  C   UNL     1      35.233 -17.407 -23.539  0.00  0.00    +0.034 C 
ATOM     20  C   UNL     1      34.275 -15.668 -25.498  0.00  0.00    +0.004 C 
ATOM     21  C   UNL     1      35.153 -17.828 -24.866  0.00  0.00    +0.003 C 
ATOM     22  C   UNL     1      34.674 -16.958 -25.846  0.00  0.00    +0.000 C 
BRANCH  19  23
ATOM     23  C   UNL     1      35.733 -18.329 -22.538  0.00  0.00    +0.003 C 
ATOM     24  C   UNL     1      34.881 -19.285 -21.987  0.00  0.00    +0.000 C 
ATOM     25  C   UNL     1      37.064 -18.258 -22.130  0.00  0.00    +0.000 C 
ATOM     26  C   UNL     1      35.362 -20.173 -21.024  0.00  0.00    +0.000 C 
ATOM     27  C   UNL     1      37.544 -19.145 -21.167  0.00  0.00    +0.000 C 
ATOM     28  C   UNL     1      36.693 -20.102 -20.615  0.00  0.00    +0.000 C 
ENDBRANCH  19  23
BRANCH  18  29
ATOM     29  O   UNL     1      34.910 -15.705 -21.890  0.00  0.00    -0.505 OA
ATOM     30  H   UNL     1      34.295 -16.026 -21.259  0.00  0.00    +0.292 HD
ENDBRANCH  18  29
ENDBRANCH   2  17
TORSDOF 4
ENDMDL
MODEL 2
REMARK VINA RESULT:     -10.6      2.564      9.003
REMARK  Name = 447476
REMARK  4 active torsions:
REMARK  status: ('A' for Active; 'I' for Inactive)
REMARK    1  A    between atoms: C_2  and  C_17
REMARK    2  A    between atoms: C_8  and  C_13
REMARK    3  A    between atoms: C_18  and  O_29
REMARK    4  A    between atoms: C_19  and  C_23
REMARK                            x       y       z     vdW  Elec       q    Type
REMARK                         _______ _______ _______ _____ _____    ______ ____
ROOT
ATOM      1  N   UNL     1      33.449 -13.546 -23.993  0.00  0.00    -0.312 N 
ATOM      2  C   UNL     1      33.441 -13.129 -22.689  0.00  0.00    +0.051 C 
ATOM      3  C   UNL     1      34.466 -15.141 -22.810  0.00  0.00    +0.015 C 
ATOM      4  C   UNL     1      34.068 -14.772 -24.097  0.00  0.00    +0.048 C 
ATOM      5  C   UNL     1      34.064 -14.095 -21.932  0.00  0.00    +0.016 C 
ATOM      6  C   UNL     1      35.134 -16.369 -22.632  0.00  0.00    +0.004 C 
ATOM      7  C   UNL     1      34.303 -15.573 -25.219  0.00  0.00    +0.015 C 
ATOM      8  C   UNL     1      35.376 -17.181 -23.746  0.00  0.00    +0.031 C 
ATOM      9  C   UNL     1      34.966 -16.788 -25.018  0.00  0.00    +0.004 C 
ATOM     10  H   UNL     1      33.066 -13.043 -24.748  0.00  0.00    +0.152 HD
ENDROOT
BRANCH   8  13
ATOM     11  N   UNL     1      35.456 -19.658 -23.911  0.00  0.00    -0.343 N 
ATOM     12  N   UNL     1      37.288 -18.473 -23.076  0.00  0.00    -0.285 NA
ATOM     13  C   UNL     1      36.064 -18.451 -23.571  0.00  0.00    +0.117 C 
ATOM     14  H   UNL     1      35.938 -20.506 -23.783  0.00  0.00    +0.144 HD
ATOM     15  H   UNL     1      34.541 -19.662 -24.278  0.00  0.00    +0.144 HD
ATOM     16  H   UNL     1      37.756 -19.331 -22.956  0.00  0.00    +0.188 HD
ENDBRANCH   8  13
BRANCH   2  17
ATOM     17  C   UNL     1      32.854 -11.874 -22.291  0.00  0.00    +0.047 C 
ATOM     18  C   UNL     1      33.126 -10.696 -22.991  0.00  0.00    +0.135 C 
ATOM     19  C   UNL     1      32.546  -9.494 -22.588  0.00  0.00    +0.034 C 
ATOM     20  C   UNL     1      32.000 -11.843 -21.187  0.00  0.00    +0.004 C 
ATOM     21  C   UNL     1      31.693  -9.466 -21.485  0.00  0.00    +0.003 C 
ATOM     22  C   UNL     1      31.420 -10.640 -20.785  0.00  0.00    +0.000 C 
BRANCH  19  23
ATOM     23  C   UNL     1      32.814  -8.260 -23.300  0.00  0.00    +0.003 C 
ATOM     24  C   UNL     1      31.820  -7.684 -24.090  0.00  0.00    +0.000 C 
ATOM     25  C   UNL     1      34.064  -7.652 -23.194  0.00  0.00    +0.000 C 
ATOM     26  C   UNL     1      32.077  -6.497 -24.776  0.00  0.00    +0.000 C 
ATOM     27  C   UNL     1      34.321  -6.466 -23.881  0.00  0.00    +0.000 C 
ATOM     28  C   UNL     1      33.327  -5.888 -24.670  0.00  0.00    +0.000 C 
ENDBRANCH  19  23
BRANCH  18  29
ATOM     29  O   UNL     1      33.961 -10.724 -24.072  0.00  0.00    -0.505 OA
ATOM     30  H   UNL     1      34.750 -10.218 -24.069  0.00  0.00    +0.292 HD
ENDBRANCH  18  29
ENDBRANCH   2  17
TORSDOF 4
ENDMDL
MODEL 3
REMARK VINA RESULT:     -10.6      2.695      5.213
REMARK  Name = 447476
REMARK  4 active torsions:
REMARK  status: ('A' for Active; 'I' for Inactive)
REMARK    1  A    between atoms: C_2  and  C_17
REMARK    2  A    between atoms: C_8  and  C_13
REMARK    3  A    between atoms: C_18  and  O_29
REMARK    4  A    between atoms: C_19  and  C_23
REMARK                            x       y       z     vdW  Elec       q    Type
REMARK                         _______ _______ _______ _____ _____    ______ ____
ROOT
ATOM      1  N   UNL     1      33.656  -9.051 -23.354  0.00  0.00    -0.312 N 
ATOM      2  C   UNL     1      32.569  -9.681 -22.810  0.00  0.00    +0.051 C 
ATOM      3  C   UNL     1      32.043  -7.516 -23.198  0.00  0.00    +0.015 C 
ATOM      4  C   UNL     1      33.364  -7.728 -23.601  0.00  0.00    +0.048 C 
ATOM      5  C   UNL     1      31.554  -8.757 -22.701  0.00  0.00    +0.016 C 
ATOM      6  C   UNL     1      31.486  -6.230 -23.346  0.00  0.00    +0.004 C 
ATOM      7  C   UNL     1      34.159  -6.713 -24.144  0.00  0.00    +0.015 C 
ATOM      8  C   UNL     1      32.271  -5.205 -23.888  0.00  0.00    +0.031 C 
ATOM      9  C   UNL     1      33.585  -5.445 -24.280  0.00  0.00    +0.004 C 
ATOM     10  H   UNL     1      34.521  -9.481 -23.540  0.00  0.00    +0.152 HD
ENDROOT
BRANCH   8  13
ATOM     11  N   UNL     1      30.847  -3.336 -23.084  0.00  0.00    -0.343 N 
ATOM     12  N   UNL     1      31.995  -3.156 -25.111  0.00  0.00    -0.285 NA
ATOM     13  C   UNL     1      31.703  -3.875 -24.043  0.00  0.00    +0.117 C 
ATOM     14  H   UNL     1      30.473  -2.435 -23.208  0.00  0.00    +0.144 HD
ATOM     15  H   UNL     1      30.615  -3.859 -22.282  0.00  0.00    +0.144 HD
ATOM     16  H   UNL     1      31.611  -2.255 -25.218  0.00  0.00    +0.188 HD
ENDBRANCH   8  13
BRANCH   2  17
ATOM     17  C   UNL     1      32.595 -11.077 -22.451  0.00  0.00    +0.047 C 
ATOM     18  C   UNL     1      33.210 -12.022 -23.275  0.00  0.00    +0.135 C 
ATOM     19  C   UNL     1      33.223 -13.368 -22.907  0.00  0.00    +0.034 C 
ATOM     20  C   UNL     1      31.992 -11.484 -21.258  0.00  0.00    +0.004 C 
ATOM     21  C   UNL     1      32.621 -13.771 -21.715  0.00  0.00    +0.003 C 
ATOM     22  C   UNL     1      32.006 -12.829 -20.891  0.00  0.00    +0.000 C 
BRANCH  19  23
ATOM     23  C   UNL     1      33.857 -14.365 -23.746  0.00  0.00    +0.003 C 
ATOM     24  C   UNL     1      34.878 -15.161 -23.228  0.00  0.00    +0.000 C 
ATOM     25  C   UNL     1      33.445 -14.525 -25.068  0.00  0.00    +0.000 C 
ATOM     26  C   UNL     1      35.488 -16.121 -24.036  0.00  0.00    +0.000 C 
ATOM     27  C   UNL     1      34.057 -15.485 -25.875  0.00  0.00    +0.000 C 
ATOM     28  C   UNL     1      35.077 -16.283 -25.358  0.00  0.00    +0.000 C 
ENDBRANCH  19  23
BRANCH  18  29
ATOM     29  O   UNL     1      33.801 -11.627 -24.442  0.00  0.00    -0.505 OA
ATOM     30  H   UNL     1      33.696 -12.140 -25.218  0.00  0.00    +0.292 HD
ENDBRANCH  18  29
ENDBRANCH   2  17
TORSDOF 4
ENDMDL
MODEL 4
REMARK VINA RESULT:     -10.6      5.772      9.609
REMARK  Name = 447476
REMARK  4 active torsions:
REMARK  status: ('A' for Active; 'I' for Inactive)
REMARK    1  A    between atoms: C_2  and  C_17
REMARK    2  A    between atoms: C_8  and  C_13
REMARK    3  A    between atoms: C_18  and  O_29
REMARK    4  A    between atoms: C_19  and  C_23
REMARK                            x       y       z     vdW  Elec       q    Type
REMARK                         _______ _______ _______ _____ _____    ______ ____
ROOT
ATOM      1  N   UNL     1      36.151 -21.057 -19.471  0.00  0.00    -0.312 N 
ATOM      2  C   UNL     1      34.902 -21.573 -19.251  0.00  0.00    +0.051 C 
ATOM      3  C   UNL     1      34.843 -20.266 -21.096  0.00  0.00    +0.015 C 
ATOM      4  C   UNL     1      36.145 -20.255 -20.590  0.00  0.00    +0.048 C 
ATOM      5  C   UNL     1      34.070 -21.101 -20.241  0.00  0.00    +0.016 C 
ATOM      6  C   UNL     1      34.558 -19.517 -22.255  0.00  0.00    +0.004 C 
ATOM      7  C   UNL     1      37.181 -19.529 -21.187  0.00  0.00    +0.015 C 
ATOM      8  C   UNL     1      35.585 -18.785 -22.863  0.00  0.00    +0.031 C 
ATOM      9  C   UNL     1      36.874 -18.792 -22.336  0.00  0.00    +0.004 C 
ATOM     10  H   UNL     1      36.941 -21.233 -18.909  0.00  0.00    +0.152 HD
ENDROOT
BRANCH   8  13
ATOM     11  N   UNL     1      34.468 -18.504 -25.063  0.00  0.00    -0.343 N 
ATOM     12  N   UNL     1      35.837 -16.812 -24.212  0.00  0.00    -0.285 NA
ATOM     13  C   UNL     1      35.299 -18.009 -24.060  0.00  0.00    +0.117 C 
ATOM     14  H   UNL     1      34.288 -17.963 -25.865  0.00  0.00    +0.144 HD
ATOM     15  H   UNL     1      34.060 -19.396 -24.969  0.00  0.00    +0.144 HD
ATOM     16  H   UNL     1      35.645 -16.285 -25.021  0.00  0.00    +0.188 HD
ENDBRANCH   8  13
BRANCH   2  17
ATOM     17  C   UNL     1      34.621 -22.450 -18.142  0.00  0.00    +0.047 C 
ATOM     18  C   UNL     1      35.609 -22.772 -17.209  0.00  0.00    +0.135 C 
ATOM     19  C   UNL     1      35.314 -23.623 -16.144  0.00  0.00    +0.034 C 
ATOM     20  C   UNL     1      33.338 -22.983 -18.006  0.00  0.00    +0.004 C 
ATOM     21  C   UNL     1      34.031 -24.153 -16.010  0.00  0.00    +0.003 C 
ATOM     22  C   UNL     1      33.043 -23.833 -16.940  0.00  0.00    +0.000 C 
BRANCH  19  23
ATOM     23  C   UNL     1      36.324 -23.970 -15.164  0.00  0.00    +0.003 C 
ATOM     24  C   UNL     1      36.498 -23.171 -14.034  0.00  0.00    +0.000 C 
ATOM     25  C   UNL     1      37.118 -25.099 -15.352  0.00  0.00    +0.000 C 
ATOM     26  C   UNL     1      37.470 -23.504 -13.090  0.00  0.00    +0.000 C 
ATOM     27  C   UNL     1      38.090 -25.431 -14.408  0.00  0.00    +0.000 C 
ATOM     28  C   UNL     1      38.265 -24.634 -13.277  0.00  0.00    +0.000 C 
ENDBRANCH  19  23
BRANCH  18  29
ATOM     29  O   UNL     1      36.866 -22.252 -17.340  0.00  0.00    -0.505 OA
ATOM     30  H   UNL     1      37.594 -22.674 -16.929  0.00  0.00    +0.292 HD
ENDBRANCH  18  29
ENDBRANCH   2  17
TORSDOF 4
ENDMDL
MODEL 5
REMARK VINA RESULT:     -10.0      1.244      1.906
REMARK  Name = 447476
REMARK  4 active torsions:
REMARK  status: ('A' for Active; 'I' for Inactive)
REMARK    1  A    between atoms: C_2  and  C_17
REMARK    2  A    between atoms: C_8  and  C_13
REMARK    3  A    between atoms: C_18  and  O_29
REMARK    4  A    between atoms: C_19  and  C_23
REMARK                            x       y       z     vdW  Elec       q    Type
REMARK                         _______ _______ _______ _____ _____    ______ ____
ROOT
ATOM      1  N   UNL     1      32.786 -12.144 -23.055  0.00  0.00    -0.312 N 
ATOM      2  C   UNL     1      33.599 -12.305 -24.145  0.00  0.00    +0.051 C 
ATOM      3  C   UNL     1      33.507 -10.108 -23.616  0.00  0.00    +0.015 C 
ATOM      4  C   UNL     1      32.711 -10.813 -22.710  0.00  0.00    +0.048 C 
ATOM      5  C   UNL     1      34.061 -11.063 -24.515  0.00  0.00    +0.016 C 
ATOM      6  C   UNL     1      33.608  -8.709 -23.485  0.00  0.00    +0.004 C 
ATOM      7  C   UNL     1      32.007 -10.186 -21.676  0.00  0.00    +0.015 C 
ATOM      8  C   UNL     1      32.909  -8.068 -22.456  0.00  0.00    +0.031 C 
ATOM      9  C   UNL     1      32.122  -8.796 -21.567  0.00  0.00    +0.004 C 
ATOM     10  H   UNL     1      32.321 -12.874 -22.586  0.00  0.00    +0.152 HD
ENDROOT
BRANCH   8  13
ATOM     11  N   UNL     1      32.685  -5.989 -21.116  0.00  0.00    -0.343 N 
ATOM     12  N   UNL     1      33.407  -5.888 -23.336  0.00  0.00    -0.285 NA
ATOM     13  C   UNL     1      33.008  -6.623 -22.314  0.00  0.00    +0.117 C 
ATOM     14  H   UNL     1      32.757  -5.010 -21.042  0.00  0.00    +0.144 HD
ATOM     15  H   UNL     1      32.382  -6.520 -20.344  0.00  0.00    +0.144 HD
ATOM     16  H   UNL     1      33.474  -4.911 -23.243  0.00  0.00    +0.188 HD
ENDBRANCH   8  13
BRANCH   2  17
ATOM     17  C   UNL     1      33.857 -13.601 -24.721  0.00  0.00    +0.047 C 
ATOM     18  C   UNL     1      34.321 -14.660 -23.938  0.00  0.00    +0.135 C 
ATOM     19  C   UNL     1      34.563 -15.905 -24.518  0.00  0.00    +0.034 C 
ATOM     20  C   UNL     1      33.636 -13.793 -26.087  0.00  0.00    +0.004 C 
ATOM     21  C   UNL     1      34.341 -16.094 -25.882  0.00  0.00    +0.003 C 
ATOM     22  C   UNL     1      33.878 -15.038 -26.666  0.00  0.00    +0.000 C 
BRANCH  19  23
ATOM     23  C   UNL     1      35.045 -17.018 -23.723  0.00  0.00    +0.003 C 
ATOM     24  C   UNL     1      34.946 -18.317 -24.217  0.00  0.00    +0.000 C 
ATOM     25  C   UNL     1      35.604 -16.785 -22.468  0.00  0.00    +0.000 C 
ATOM     26  C   UNL     1      35.410 -19.389 -23.453  0.00  0.00    +0.000 C 
ATOM     27  C   UNL     1      36.066 -17.857 -21.704  0.00  0.00    +0.000 C 
ATOM     28  C   UNL     1      35.970 -19.158 -22.197  0.00  0.00    +0.000 C 
ENDBRANCH  19  23
BRANCH  18  29
ATOM     29  O   UNL     1      34.537 -14.474 -22.601  0.00  0.00    -0.505 OA
ATOM     30  H   UNL     1      34.321 -15.153 -21.992  0.00  0.00    +0.292 HD
ENDBRANCH  18  29
ENDBRANCH   2  17
TORSDOF 4
ENDMDL
MODEL 6
REMARK VINA RESULT:      -9.8      6.886     10.712
REMARK  Name = 447476
REMARK  4 active torsions:
REMARK  status: ('A' for Active; 'I' for Inactive)
REMARK    1  A    between atoms: C_2  and  C_17
REMARK    2  A    between atoms: C_8  and  C_13
REMARK    3  A    between atoms: C_18  and  O_29
REMARK    4  A    between atoms: C_19  and  C_23
REMARK                            x       y       z     vdW  Elec       q    Type
REMARK                         _______ _______ _______ _____ _____    ______ ____
ROOT
ATOM      1  N   UNL     1      33.297 -21.928 -18.878  0.00  0.00    -0.312 N 
ATOM      2  C   UNL     1      34.344 -22.397 -18.130  0.00  0.00    +0.051 C 
ATOM      3  C   UNL     1      35.161 -21.202 -19.867  0.00  0.00    +0.015 C 
ATOM      4  C   UNL     1      33.767 -21.195 -19.946  0.00  0.00    +0.048 C 
ATOM      5  C   UNL     1      35.511 -21.964 -18.716  0.00  0.00    +0.016 C 
ATOM      6  C   UNL     1      35.900 -20.514 -20.850  0.00  0.00    +0.004 C 
ATOM      7  C   UNL     1      33.071 -20.534 -20.964  0.00  0.00    +0.015 C 
ATOM      8  C   UNL     1      35.217 -19.849 -21.875  0.00  0.00    +0.031 C 
ATOM      9  C   UNL     1      33.826 -19.860 -21.929  0.00  0.00    +0.004 C 
ATOM     10  H   UNL     1      32.347 -22.092 -18.682  0.00  0.00    +0.152 HD
ENDROOT
BRANCH   8  13
ATOM     11  N   UNL     1      37.245 -18.632 -22.633  0.00  0.00    -0.343 N 
ATOM     12  N   UNL     1      35.451 -18.957 -24.094  0.00  0.00    -0.285 NA
ATOM     13  C   UNL     1      35.973 -19.137 -22.895  0.00  0.00    +0.117 C 
ATOM     14  H   UNL     1      37.739 -18.153 -23.337  0.00  0.00    +0.144 HD
ATOM     15  H   UNL     1      37.649 -18.754 -21.743  0.00  0.00    +0.144 HD
ATOM     16  H   UNL     1      35.960 -18.475 -24.785  0.00  0.00    +0.188 HD
ENDBRANCH   8  13
BRANCH   2  17
ATOM     17  C   UNL     1      34.140 -23.197 -16.948  0.00  0.00    +0.047 C 
ATOM     18  C   UNL     1      35.222 -23.652 -16.190  0.00  0.00    +0.135 C 
ATOM     19  C   UNL     1      35.000 -24.425 -15.050  0.00  0.00    +0.034 C 
ATOM     20  C   UNL     1      32.837 -23.520 -16.562  0.00  0.00    +0.004 C 
ATOM     21  C   UNL     1      33.698 -24.745 -14.666  0.00  0.00    +0.003 C 
ATOM     22  C   UNL     1      32.617 -24.292 -15.422  0.00  0.00    +0.000 C 
BRANCH  19  23
ATOM     23  C   UNL     1      36.108 -24.906 -14.248  0.00  0.00    +0.003 C 
ATOM     24  C   UNL     1      36.772 -26.076 -14.613  0.00  0.00    +0.000 C 
ATOM     25  C   UNL     1      36.506 -24.198 -13.115  0.00  0.00    +0.000 C 
ATOM     26  C   UNL     1      37.839 -26.540 -13.842  0.00  0.00    +0.000 C 
ATOM     27  C   UNL     1      37.572 -24.663 -12.345  0.00  0.00    +0.000 C 
ATOM     28  C   UNL     1      38.238 -25.833 -12.709  0.00  0.00    +0.000 C 
ENDBRANCH  19  23
BRANCH  18  29
ATOM     29  O   UNL     1      36.497 -23.337 -16.566  0.00  0.00    -0.505 OA
ATOM     30  H   UNL     1      36.784 -23.510 -17.441  0.00  0.00    +0.292 HD
ENDBRANCH  18  29
ENDBRANCH   2  17
TORSDOF 4
ENDMDL
MODEL 7
REMARK VINA RESULT:      -9.8      5.896      9.870
REMARK  Name = 447476
REMARK  4 active torsions:
REMARK  status: ('A' for Active; 'I' for Inactive)
REMARK    1  A    between atoms: C_2  and  C_17
REMARK    2  A    between atoms: C_8  and  C_13
REMARK    3  A    between atoms: C_18  and  O_29
REMARK    4  A    between atoms: C_19  and  C_23
REMARK                            x       y       z     vdW  Elec       q    Type
REMARK                         _______ _______ _______ _____ _____    ______ ____
ROOT
ATOM      1  N   UNL     1      36.138 -21.062 -19.373  0.00  0.00    -0.312 N 
ATOM      2  C   UNL     1      34.900 -21.581 -19.104  0.00  0.00    +0.051 C 
ATOM      3  C   UNL     1      34.791 -20.375 -21.013  0.00  0.00    +0.015 C 
ATOM      4  C   UNL     1      36.101 -20.320 -20.533  0.00  0.00    +0.048 C 
ATOM      5  C   UNL     1      34.044 -21.174 -20.101  0.00  0.00    +0.016 C 
ATOM      6  C   UNL     1      34.476 -19.693 -22.205  0.00  0.00    +0.004 C 
ATOM      7  C   UNL     1      37.116 -19.614 -21.186  0.00  0.00    +0.015 C 
ATOM      8  C   UNL     1      35.482 -18.981 -22.870  0.00  0.00    +0.031 C 
ATOM      9  C   UNL     1      36.780 -18.944 -22.367  0.00  0.00    +0.004 C 
ATOM     10  H   UNL     1      36.939 -21.198 -18.817  0.00  0.00    +0.152 HD
ENDROOT
BRANCH   8  13
ATOM     11  N   UNL     1      35.656 -16.993 -24.347  0.00  0.00    -0.343 N 
ATOM     12  N   UNL     1      34.392 -18.844 -25.007  0.00  0.00    -0.285 NA
ATOM     13  C   UNL     1      35.164 -18.273 -24.101  0.00  0.00    +0.117 C 
ATOM     14  H   UNL     1      35.429 -16.531 -25.186  0.00  0.00    +0.144 HD
ATOM     15  H   UNL     1      36.232 -16.550 -23.681  0.00  0.00    +0.144 HD
ATOM     16  H   UNL     1      34.175 -18.366 -25.840  0.00  0.00    +0.188 HD
ENDBRANCH   8  13
BRANCH   2  17
ATOM     17  C   UNL     1      34.651 -22.402 -17.944  0.00  0.00    +0.047 C 
ATOM     18  C   UNL     1      33.352 -22.777 -17.592  0.00  0.00    +0.135 C 
ATOM     19  C   UNL     1      33.136 -23.571 -16.467  0.00  0.00    +0.034 C 
ATOM     20  C   UNL     1      35.731 -22.824 -17.166  0.00  0.00    +0.004 C 
ATOM     21  C   UNL     1      34.216 -23.993 -15.692  0.00  0.00    +0.003 C 
ATOM     22  C   UNL     1      35.513 -23.619 -16.042  0.00  0.00    +0.000 C 
BRANCH  19  23
ATOM     23  C   UNL     1      31.796 -23.973 -16.084  0.00  0.00    +0.003 C 
ATOM     24  C   UNL     1      30.701 -23.213 -16.492  0.00  0.00    +0.000 C 
ATOM     25  C   UNL     1      31.608 -25.116 -15.309  0.00  0.00    +0.000 C 
ATOM     26  C   UNL     1      29.411 -23.600 -16.124  0.00  0.00    +0.000 C 
ATOM     27  C   UNL     1      30.318 -25.501 -14.941  0.00  0.00    +0.000 C 
ATOM     28  C   UNL     1      29.221 -24.743 -15.349  0.00  0.00    +0.000 C 
ENDBRANCH  19  23
BRANCH  18  29
ATOM     29  O   UNL     1      32.295 -22.365 -18.353  0.00  0.00    -0.505 OA
ATOM     30  H   UNL     1      31.474 -22.166 -17.946  0.00  0.00    +0.292 HD
ENDBRANCH  18  29
ENDBRANCH   2  17
TORSDOF 4
ENDMDL
MODEL 8
REMARK VINA RESULT:      -9.5      6.432     11.288
REMARK  Name = 447476
REMARK  4 active torsions:
REMARK  status: ('A' for Active; 'I' for Inactive)
REMARK    1  A    between atoms: C_2  and  C_17
REMARK    2  A    between atoms: C_8  and  C_13
REMARK    3  A    between atoms: C_18  and  O_29
REMARK    4  A    between atoms: C_19  and  C_23
REMARK                            x       y       z     vdW  Elec       q    Type
REMARK                         _______ _______ _______ _____ _____    ______ ____
ROOT
ATOM      1  N   UNL     1      32.642 -22.038 -18.415  0.00  0.00    -0.312 N 
ATOM      2  C   UNL     1      33.969 -22.309 -18.218  0.00  0.00    +0.051 C 
ATOM      3  C   UNL     1      32.756 -23.424 -16.670  0.00  0.00    +0.015 C 
ATOM      4  C   UNL     1      31.877 -22.705 -17.484  0.00  0.00    +0.048 C 
ATOM      5  C   UNL     1      34.073 -23.164 -17.145  0.00  0.00    +0.016 C 
ATOM      6  C   UNL     1      32.226 -24.205 -15.624  0.00  0.00    +0.004 C 
ATOM      7  C   UNL     1      30.491 -22.727 -17.302  0.00  0.00    +0.015 C 
ATOM      8  C   UNL     1      30.840 -24.236 -15.430  0.00  0.00    +0.031 C 
ATOM      9  C   UNL     1      29.988 -23.508 -16.256  0.00  0.00    +0.004 C 
ATOM     10  H   UNL     1      32.285 -21.450 -19.120  0.00  0.00    +0.152 HD
ENDROOT
BRANCH   8  13
ATOM     11  N   UNL     1      29.192 -25.877 -14.560  0.00  0.00    -0.343 N 
ATOM     12  N   UNL     1      30.819 -24.979 -13.145  0.00  0.00    -0.285 NA
ATOM     13  C   UNL     1      30.286 -25.040 -14.351  0.00  0.00    +0.117 C 
ATOM     14  H   UNL     1      28.831 -26.411 -13.816  0.00  0.00    +0.144 HD
ATOM     15  H   UNL     1      28.779 -25.933 -15.453  0.00  0.00    +0.144 HD
ATOM     16  H   UNL     1      30.445 -25.521 -12.413  0.00  0.00    +0.188 HD
ENDBRANCH   8  13
BRANCH   2  17
ATOM     17  C   UNL     1      34.998 -21.740 -19.054  0.00  0.00    +0.047 C 
ATOM     18  C   UNL     1      34.678 -20.878 -20.105  0.00  0.00    +0.135 C 
ATOM     19  C   UNL     1      35.690 -20.340 -20.900  0.00  0.00    +0.034 C 
ATOM     20  C   UNL     1      36.333 -22.061 -18.801  0.00  0.00    +0.004 C 
ATOM     21  C   UNL     1      37.024 -20.662 -20.645  0.00  0.00    +0.003 C 
ATOM     22  C   UNL     1      37.345 -21.522 -19.596  0.00  0.00    +0.000 C 
BRANCH  19  23
ATOM     23  C   UNL     1      35.381 -19.443 -21.996  0.00  0.00    +0.003 C 
ATOM     24  C   UNL     1      35.596 -18.073 -21.853  0.00  0.00    +0.000 C 
ATOM     25  C   UNL     1      34.871 -19.952 -23.189  0.00  0.00    +0.000 C 
ATOM     26  C   UNL     1      35.299 -17.209 -22.908  0.00  0.00    +0.000 C 
ATOM     27  C   UNL     1      34.574 -19.087 -24.242  0.00  0.00    +0.000 C 
ATOM     28  C   UNL     1      34.788 -17.717 -24.102  0.00  0.00    +0.000 C 
ENDBRANCH  19  23
BRANCH  18  29
ATOM     29  O   UNL     1      33.373 -20.562 -20.354  0.00  0.00    -0.505 OA
ATOM     30  H   UNL     1      33.148 -19.710 -20.672  0.00  0.00    +0.292 HD
ENDBRANCH  18  29
ENDBRANCH   2  17
TORSDOF 4
ENDMDL
MODEL 9
REMARK VINA RESULT:      -9.3      7.667     12.372
REMARK  Name = 447476
REMARK  4 active torsions:
REMARK  status: ('A' for Active; 'I' for Inactive)
REMARK    1  A    between atoms: C_2  and  C_17
REMARK    2  A    between atoms: C_8  and  C_13
REMARK    3  A    between atoms: C_18  and  O_29
REMARK    4  A    between atoms: C_19  and  C_23
REMARK                            x       y       z     vdW  Elec       q    Type
REMARK                         _______ _______ _______ _____ _____    ______ ____
ROOT
ATOM      1  N   UNL     1      36.651 -22.916 -17.111  0.00  0.00    -0.312 N 
ATOM      2  C   UNL     1      35.297 -22.742 -17.218  0.00  0.00    +0.051 C 
ATOM      3  C   UNL     1      35.758 -23.710 -15.227  0.00  0.00    +0.015 C 
ATOM      4  C   UNL     1      36.961 -23.506 -15.906  0.00  0.00    +0.048 C 
ATOM      5  C   UNL     1      34.716 -23.224 -16.067  0.00  0.00    +0.016 C 
ATOM      6  C   UNL     1      35.791 -24.306 -13.950  0.00  0.00    +0.004 C 
ATOM      7  C   UNL     1      38.201 -23.869 -15.370  0.00  0.00    +0.015 C 
ATOM      8  C   UNL     1      37.025 -24.675 -13.402  0.00  0.00    +0.031 C 
ATOM      9  C   UNL     1      38.210 -24.459 -14.102  0.00  0.00    +0.004 C 
ATOM     10  H   UNL     1      37.308 -22.658 -17.797  0.00  0.00    +0.152 HD
ENDROOT
BRANCH   8  13
ATOM     11  N   UNL     1      37.098 -24.519 -10.925  0.00  0.00    -0.343 N 
ATOM     12  N   UNL     1      37.084 -26.606 -11.974  0.00  0.00    -0.285 NA
ATOM     13  C   UNL     1      37.068 -25.291 -12.085  0.00  0.00    +0.117 C 
ATOM     14  H   UNL     1      37.128 -24.955 -10.043  0.00  0.00    +0.144 HD
ATOM     15  H   UNL     1      37.090 -23.536 -10.988  0.00  0.00    +0.144 HD
ATOM     16  H   UNL     1      37.114 -27.026 -11.084  0.00  0.00    +0.188 HD
ENDBRANCH   8  13
BRANCH   2  17
ATOM     17  C   UNL     1      34.693 -22.144 -18.383  0.00  0.00    +0.047 C 
ATOM     18  C   UNL     1      35.446 -21.373 -19.271  0.00  0.00    +0.135 C 
ATOM     19  C   UNL     1      34.840 -20.805 -20.391  0.00  0.00    +0.034 C 
ATOM     20  C   UNL     1      33.331 -22.343 -18.619  0.00  0.00    +0.004 C 
ATOM     21  C   UNL     1      33.479 -21.006 -20.625  0.00  0.00    +0.003 C 
ATOM     22  C   UNL     1      32.726 -21.776 -19.740  0.00  0.00    +0.000 C 
BRANCH  19  23
ATOM     23  C   UNL     1      35.603 -20.002 -21.326  0.00  0.00    +0.003 C 
ATOM     24  C   UNL     1      35.059 -19.679 -22.569  0.00  0.00    +0.000 C 
ATOM     25  C   UNL     1      36.878 -19.556 -20.981  0.00  0.00    +0.000 C 
ATOM     26  C   UNL     1      35.793 -18.906 -23.469  0.00  0.00    +0.000 C 
ATOM     27  C   UNL     1      37.611 -18.784 -21.883  0.00  0.00    +0.000 C 
ATOM     28  C   UNL     1      37.068 -18.459 -23.125  0.00  0.00    +0.000 C 
ENDBRANCH  19  23
BRANCH  18  29
ATOM     29  O   UNL     1      36.779 -21.177 -19.042  0.00  0.00    -0.505 OA
ATOM     30  H   UNL     1      37.399 -21.319 -19.729  0.00  0.00    +0.292 HD
ENDBRANCH  18  29
ENDBRANCH   2  17
TORSDOF 4
ENDMDL
