MODEL 1
REMARK VINA RESULT:     -13.0      0.000      0.000
REMARK  Name = 25145656
REMARK  4 active torsions:
REMARK  status: ('A' for Active; 'I' for Inactive)
REMARK    1  A    between atoms: C_5  and  C_22
REMARK    2  A    between atoms: C_8  and  C_11
REMARK    3  A    between atoms: C_14  and  C_19
REMARK    4  A    between atoms: C_22  and  C_24
REMARK                            x       y       z     vdW  Elec       q    Type
REMARK                         _______ _______ _______ _____ _____    ______ ____
ROOT
ATOM      1  N   UNL     1      34.690 -16.019 -24.382  0.00  0.00    -0.134 N 
ATOM      2  N   UNL     1      34.464 -14.817 -23.808  0.00  0.00    -0.168 NA
ATOM      3  N   UNL     1      34.717 -17.639 -25.898  0.00  0.00    -0.178 NA
ATOM      4  N   UNL     1      33.662 -15.535 -26.464  0.00  0.00    -0.200 NA
ATOM      5  C   UNL     1      35.330 -17.078 -23.797  0.00  0.00    +0.086 C 
ATOM      6  C   UNL     1      34.329 -16.398 -25.660  0.00  0.00    +0.114 C 
ATOM      7  C   UNL     1      35.335 -18.064 -24.751  0.00  0.00    +0.124 C 
ATOM      8  C   UNL     1      33.845 -13.967 -24.572  0.00  0.00    +0.103 C 
ATOM      9  C   UNL     1      33.415 -14.370 -25.962  0.00  0.00    +0.184 C 
ENDROOT
BRANCH   8  11
ATOM     10  F   UNL     1      31.548 -10.975 -21.520  0.00  0.00    -0.204 F 
ATOM     11  C   UNL     1      33.550 -12.602 -24.080  0.00  0.00    +0.019 C 
ATOM     12  C   UNL     1      32.672 -12.422 -23.011  0.00  0.00    +0.031 C 
ATOM     13  C   UNL     1      34.150 -11.497 -24.684  0.00  0.00    +0.002 C 
ATOM     14  C   UNL     1      32.993 -10.031 -23.151  0.00  0.00    +0.081 C 
ATOM     15  C   UNL     1      32.394 -11.136 -22.548  0.00  0.00    +0.144 C 
ATOM     16  C   UNL     1      33.871 -10.212 -24.220  0.00  0.00    +0.007 C 
BRANCH  14  19
ATOM     17  O   UNL     1      33.458  -8.140 -21.845  0.00  0.00    -0.270 OA
ATOM     18  N   UNL     1      31.575  -8.055 -23.195  0.00  0.00    -0.299 N 
ATOM     19  C   UNL     1      32.706  -8.689 -22.670  0.00  0.00    +0.248 C 
ATOM     20  C   UNL     1      31.171  -6.714 -22.835  0.00  0.00    +0.111 C 
ATOM     21  H   UNL     1      31.023  -8.547 -23.844  0.00  0.00    +0.150 HD
ENDBRANCH  14  19
ENDBRANCH   8  11
BRANCH   5  22
ATOM     22  C   UNL     1      35.876 -17.045 -22.383  0.00  0.00    +0.068 C 
BRANCH  22  24
ATOM     23  N   UNL     1      35.803 -22.060 -19.763  0.00  0.00    -0.248 NA
ATOM     24  C   UNL     1      35.847 -18.367 -21.693  0.00  0.00    -0.038 C 
ATOM     25  C   UNL     1      34.630 -18.972 -21.390  0.00  0.00    +0.050 C 
ATOM     26  C   UNL     1      34.598 -20.216 -20.740  0.00  0.00    -0.004 C 
ATOM     27  C   UNL     1      37.033 -19.002 -21.348  0.00  0.00    -0.028 C 
ATOM     28  C   UNL     1      35.799 -20.868 -20.386  0.00  0.00    +0.060 C 
ATOM     29  C   UNL     1      37.001 -20.240 -20.701  0.00  0.00    +0.071 C 
ATOM     30  C   UNL     1      33.388 -20.848 -20.424  0.00  0.00    -0.001 C 
ATOM     31  C   UNL     1      33.390 -22.078 -19.780  0.00  0.00    +0.020 C 
ATOM     32  C   UNL     1      34.613 -22.637 -19.475  0.00  0.00    +0.098 C 
ENDBRANCH  22  24
ENDBRANCH   5  22
TORSDOF 4
ENDMDL
MODEL 2
REMARK VINA RESULT:     -12.4      3.959      9.226
REMARK  Name = 25145656
REMARK  4 active torsions:
REMARK  status: ('A' for Active; 'I' for Inactive)
REMARK    1  A    between atoms: C_5  and  C_22
REMARK    2  A    between atoms: C_8  and  C_11
REMARK    3  A    between atoms: C_14  and  C_19
REMARK    4  A    between atoms: C_22  and  C_24
REMARK                            x       y       z     vdW  Elec       q    Type
REMARK                         _______ _______ _______ _____ _____    ______ ____
ROOT
ATOM      1  N   UNL     1      34.819 -17.066 -24.213  0.00  0.00    -0.134 N 
ATOM      2  N   UNL     1      35.139 -17.680 -23.052  0.00  0.00    -0.168 NA
ATOM      3  N   UNL     1      34.109 -16.771 -26.293  0.00  0.00    -0.178 NA
ATOM      4  N   UNL     1      34.134 -19.013 -25.382  0.00  0.00    -0.200 NA
ATOM      5  C   UNL     1      34.921 -15.724 -24.463  0.00  0.00    +0.086 C 
ATOM      6  C   UNL     1      34.323 -17.671 -25.351  0.00  0.00    +0.114 C 
ATOM      7  C   UNL     1      34.477 -15.567 -25.752  0.00  0.00    +0.124 C 
ATOM      8  C   UNL     1      34.943 -18.964 -23.055  0.00  0.00    +0.103 C 
ATOM      9  C   UNL     1      34.431 -19.650 -24.297  0.00  0.00    +0.184 C 
ENDROOT
BRANCH   8  11
ATOM     10  F   UNL     1      33.450 -21.704 -19.338  0.00  0.00    -0.204 F 
ATOM     11  C   UNL     1      35.232 -19.763 -21.841  0.00  0.00    +0.019 C 
ATOM     12  C   UNL     1      34.189 -20.371 -21.143  0.00  0.00    +0.031 C 
ATOM     13  C   UNL     1      36.547 -19.908 -21.398  0.00  0.00    +0.002 C 
ATOM     14  C   UNL     1      35.775 -21.269 -19.557  0.00  0.00    +0.081 C 
ATOM     15  C   UNL     1      34.461 -21.124 -20.001  0.00  0.00    +0.144 C 
ATOM     16  C   UNL     1      36.818 -20.661 -20.256  0.00  0.00    +0.007 C 
BRANCH  14  19
ATOM     17  O   UNL     1      35.300 -22.971 -18.015  0.00  0.00    -0.270 OA
ATOM     18  N   UNL     1      37.234 -21.740 -17.668  0.00  0.00    -0.299 N 
ATOM     19  C   UNL     1      36.062 -22.053 -18.367  0.00  0.00    +0.248 C 
ATOM     20  C   UNL     1      37.669 -22.443 -16.482  0.00  0.00    +0.111 C 
ATOM     21  H   UNL     1      37.792 -21.001 -18.000  0.00  0.00    +0.150 HD
ENDBRANCH  14  19
ENDBRANCH   8  11
BRANCH   5  22
ATOM     22  C   UNL     1      35.433 -14.722 -23.447  0.00  0.00    +0.068 C 
BRANCH  22  24
ATOM     23  N   UNL     1      31.376 -12.449 -20.222  0.00  0.00    -0.248 NA
ATOM     24  C   UNL     1      34.362 -14.116 -22.604  0.00  0.00    -0.038 C 
ATOM     25  C   UNL     1      33.704 -12.965 -23.029  0.00  0.00    +0.050 C 
ATOM     26  C   UNL     1      32.695 -12.391 -22.238  0.00  0.00    -0.004 C 
ATOM     27  C   UNL     1      34.015 -14.696 -21.390  0.00  0.00    -0.028 C 
ATOM     28  C   UNL     1      32.337 -12.974 -21.004  0.00  0.00    +0.060 C 
ATOM     29  C   UNL     1      33.012 -14.124 -20.604  0.00  0.00    +0.071 C 
ATOM     30  C   UNL     1      32.016 -11.233 -22.642  0.00  0.00    -0.001 C 
ATOM     31  C   UNL     1      31.024 -10.689 -21.837  0.00  0.00    +0.020 C 
ATOM     32  C   UNL     1      30.745 -11.330 -20.648  0.00  0.00    +0.098 C 
ENDBRANCH  22  24
ENDBRANCH   5  22
TORSDOF 4
ENDMDL
MODEL 3
REMARK VINA RESULT:     -12.4      4.321      9.816
REMARK  Name = 25145656
REMARK  4 active torsions:
REMARK  status: ('A' for Active; 'I' for Inactive)
REMARK    1  A    between atoms: C_5  and  C_22
REMARK    2  A    between atoms: C_8  and  C_11
REMARK    3  A    between atoms: C_14  and  C_19
REMARK    4  A    between atoms: C_22  and  C_24
REMARK                            x       y       z     vdW  Elec       q    Type
REMARK                         _______ _______ _______ _____ _____    ______ ____
ROOT
ATOM      1  N   UNL     1      35.111 -17.361 -22.982  0.00  0.00    -0.134 N 
ATOM      2  N   UNL     1      35.029 -18.128 -21.872  0.00  0.00    -0.168 NA
ATOM      3  N   UNL     1      35.215 -16.789 -25.123  0.00  0.00    -0.178 NA
ATOM      4  N   UNL     1      35.125 -19.140 -24.552  0.00  0.00    -0.200 NA
ATOM      5  C   UNL     1      35.161 -15.994 -23.008  0.00  0.00    +0.086 C 
ATOM      6  C   UNL     1      35.148 -17.810 -24.287  0.00  0.00    +0.114 C 
ATOM      7  C   UNL     1      35.225 -15.665 -24.339  0.00  0.00    +0.124 C 
ATOM      8  C   UNL     1      34.983 -19.405 -22.106  0.00  0.00    +0.103 C 
ATOM      9  C   UNL     1      35.053 -19.919 -23.523  0.00  0.00    +0.184 C 
ENDROOT
BRANCH   8  11
ATOM     10  F   UNL     1      37.032 -22.198 -18.707  0.00  0.00    -0.204 F 
ATOM     11  C   UNL     1      34.871 -20.364 -20.982  0.00  0.00    +0.019 C 
ATOM     12  C   UNL     1      36.023 -20.842 -20.358  0.00  0.00    +0.031 C 
ATOM     13  C   UNL     1      33.615 -20.787 -20.549  0.00  0.00    +0.002 C 
ATOM     14  C   UNL     1      34.662 -22.169 -18.866  0.00  0.00    +0.081 C 
ATOM     15  C   UNL     1      35.918 -21.744 -19.300  0.00  0.00    +0.144 C 
ATOM     16  C   UNL     1      33.511 -21.690 -19.491  0.00  0.00    +0.007 C 
BRANCH  14  19
ATOM     17  O   UNL     1      33.993 -24.210 -17.925  0.00  0.00    -0.270 OA
ATOM     18  N   UNL     1      35.108 -22.723 -16.539  0.00  0.00    -0.299 N 
ATOM     19  C   UNL     1      34.549 -23.109 -17.763  0.00  0.00    +0.248 C 
ATOM     20  C   UNL     1      35.098 -23.555 -15.357  0.00  0.00    +0.111 C 
ATOM     21  H   UNL     1      35.533 -21.837 -16.479  0.00  0.00    +0.150 HD
ENDBRANCH  14  19
ENDBRANCH   8  11
BRANCH   5  22
ATOM     22  C   UNL     1      35.143 -15.134 -21.760  0.00  0.00    +0.068 C 
BRANCH  22  24
ATOM     23  N   UNL     1      31.005 -11.274 -21.732  0.00  0.00    -0.248 NA
ATOM     24  C   UNL     1      34.053 -14.117 -21.743  0.00  0.00    -0.038 C 
ATOM     25  C   UNL     1      33.553 -13.647 -20.532  0.00  0.00    +0.050 C 
ATOM     26  C   UNL     1      32.526 -12.688 -20.510  0.00  0.00    -0.004 C 
ATOM     27  C   UNL     1      33.529 -13.632 -22.935  0.00  0.00    -0.028 C 
ATOM     28  C   UNL     1      31.989 -12.192 -21.717  0.00  0.00    +0.060 C 
ATOM     29  C   UNL     1      32.508 -12.679 -22.914  0.00  0.00    +0.071 C 
ATOM     30  C   UNL     1      32.006 -12.197 -19.306  0.00  0.00    -0.001 C 
ATOM     31  C   UNL     1      30.990 -11.251 -19.318  0.00  0.00    +0.020 C 
ATOM     32  C   UNL     1      30.529 -10.826 -20.547  0.00  0.00    +0.098 C 
ENDBRANCH  22  24
ENDBRANCH   5  22
TORSDOF 4
ENDMDL
MODEL 4
REMARK VINA RESULT:     -11.4      3.131      5.610
REMARK  Name = 25145656
REMARK  4 active torsions:
REMARK  status: ('A' for Active; 'I' for Inactive)
REMARK    1  A    between atoms: C_5  and  C_22
REMARK    2  A    between atoms: C_8  and  C_11
REMARK    3  A    between atoms: C_14  and  C_19
REMARK    4  A    between atoms: C_22  and  C_24
REMARK                            x       y       z     vdW  Elec       q    Type
REMARK                         _______ _______ _______ _____ _____    ______ ____
ROOT
ATOM      1  N   UNL     1      32.811 -11.663 -22.414  0.00  0.00    -0.134 N 
ATOM      2  N   UNL     1      32.991 -10.527 -23.123  0.00  0.00    -0.168 NA
ATOM      3  N   UNL     1      32.122 -13.044 -20.821  0.00  0.00    -0.178 NA
ATOM      4  N   UNL     1      31.533 -10.702 -20.662  0.00  0.00    -0.200 NA
ATOM      5  C   UNL     1      33.289 -12.901 -22.751  0.00  0.00    +0.086 C 
ATOM      6  C   UNL     1      32.107 -11.789 -21.232  0.00  0.00    +0.114 C 
ATOM      7  C   UNL     1      32.851 -13.735 -21.753  0.00  0.00    +0.124 C 
ATOM      8  C   UNL     1      32.429  -9.477 -22.603  0.00  0.00    +0.103 C 
ATOM      9  C   UNL     1      31.680  -9.586 -21.297  0.00  0.00    +0.184 C 
ENDROOT
BRANCH   8  11
ATOM     10  F   UNL     1      35.075  -5.791 -24.324  0.00  0.00    -0.204 F 
ATOM     11  C   UNL     1      32.527  -8.166 -23.285  0.00  0.00    +0.019 C 
ATOM     12  C   UNL     1      33.776  -7.580 -23.490  0.00  0.00    +0.031 C 
ATOM     13  C   UNL     1      31.372  -7.518 -23.722  0.00  0.00    +0.002 C 
ATOM     14  C   UNL     1      32.714  -5.696 -24.569  0.00  0.00    +0.081 C 
ATOM     15  C   UNL     1      33.869  -6.345 -24.132  0.00  0.00    +0.144 C 
ATOM     16  C   UNL     1      31.466  -6.283 -24.364  0.00  0.00    +0.007 C 
BRANCH  14  19
ATOM     17  O   UNL     1      33.286  -4.327 -26.385  0.00  0.00    -0.270 OA
ATOM     18  N   UNL     1      32.315  -3.296 -24.549  0.00  0.00    -0.299 N 
ATOM     19  C   UNL     1      32.807  -4.410 -25.240  0.00  0.00    +0.248 C 
ATOM     20  C   UNL     1      32.314  -1.956 -25.090  0.00  0.00    +0.111 C 
ATOM     21  H   UNL     1      31.950  -3.433 -23.645  0.00  0.00    +0.150 HD
ENDBRANCH  14  19
ENDBRANCH   8  11
BRANCH   5  22
ATOM     22  C   UNL     1      34.117 -13.166 -23.992  0.00  0.00    +0.068 C 
BRANCH  22  24
ATOM     23  N   UNL     1      34.759 -18.655 -25.209  0.00  0.00    -0.248 NA
ATOM     24  C   UNL     1      34.292 -14.614 -24.304  0.00  0.00    -0.038 C 
ATOM     25  C   UNL     1      35.002 -15.437 -23.435  0.00  0.00    +0.050 C 
ATOM     26  C   UNL     1      35.169 -16.801 -23.725  0.00  0.00    -0.004 C 
ATOM     27  C   UNL     1      33.746 -15.150 -25.464  0.00  0.00    -0.028 C 
ATOM     28  C   UNL     1      34.618 -17.353 -24.901  0.00  0.00    +0.060 C 
ATOM     29  C   UNL     1      33.911 -16.507 -25.752  0.00  0.00    +0.071 C 
ATOM     30  C   UNL     1      35.879 -17.652 -22.868  0.00  0.00    -0.001 C 
ATOM     31  C   UNL     1      36.026 -18.996 -23.183  0.00  0.00    +0.020 C 
ATOM     32  C   UNL     1      35.452 -19.443 -24.355  0.00  0.00    +0.098 C 
ENDBRANCH  22  24
ENDBRANCH   5  22
TORSDOF 4
ENDMDL
MODEL 5
REMARK VINA RESULT:     -11.1      3.879      7.241
REMARK  Name = 25145656
REMARK  4 active torsions:
REMARK  status: ('A' for Active; 'I' for Inactive)
REMARK    1  A    between atoms: C_5  and  C_22
REMARK    2  A    between atoms: C_8  and  C_11
REMARK    3  A    between atoms: C_14  and  C_19
REMARK    4  A    between atoms: C_22  and  C_24
REMARK                            x       y       z     vdW  Elec       q    Type
REMARK                         _______ _______ _______ _____ _____    ______ ____
ROOT
ATOM      1  N   UNL     1      32.293  -9.504 -21.180  0.00  0.00    -0.134 N 
ATOM      2  N   UNL     1      32.565  -8.808 -22.306  0.00  0.00    -0.168 NA
ATOM      3  N   UNL     1      31.981  -9.962 -19.032  0.00  0.00    -0.178 NA
ATOM      4  N   UNL     1      32.641  -7.719 -19.657  0.00  0.00    -0.200 NA
ATOM      5  C   UNL     1      31.942 -10.825 -21.120  0.00  0.00    +0.086 C 
ATOM      6  C   UNL     1      32.309  -9.012 -19.889  0.00  0.00    +0.114 C 
ATOM      7  C   UNL     1      31.755 -11.084 -19.786  0.00  0.00    +0.124 C 
ATOM      8  C   UNL     1      32.864  -7.560 -22.106  0.00  0.00    +0.103 C 
ATOM      9  C   UNL     1      32.916  -7.009 -20.701  0.00  0.00    +0.184 C 
ENDROOT
BRANCH   8  11
ATOM     10  F   UNL     1      31.705  -3.835 -24.993  0.00  0.00    -0.204 F 
ATOM     11  C   UNL     1      33.165  -6.673 -23.253  0.00  0.00    +0.019 C 
ATOM     12  C   UNL     1      32.280  -5.651 -23.594  0.00  0.00    +0.031 C 
ATOM     13  C   UNL     1      34.333  -6.860 -23.992  0.00  0.00    +0.002 C 
ATOM     14  C   UNL     1      33.730  -5.002 -25.414  0.00  0.00    +0.081 C 
ATOM     15  C   UNL     1      32.563  -4.815 -24.674  0.00  0.00    +0.144 C 
ATOM     16  C   UNL     1      34.615  -6.024 -25.072  0.00  0.00    +0.007 C 
BRANCH  14  19
ATOM     17  O   UNL     1      34.095  -2.900 -26.388  0.00  0.00    -0.270 OA
ATOM     18  N   UNL     1      34.259  -4.749 -27.775  0.00  0.00    -0.299 N 
ATOM     19  C   UNL     1      34.030  -4.132 -26.540  0.00  0.00    +0.248 C 
ATOM     20  C   UNL     1      34.591  -4.025 -28.981  0.00  0.00    +0.111 C 
ATOM     21  H   UNL     1      34.191  -5.730 -27.827  0.00  0.00    +0.150 HD
ENDBRANCH  14  19
ENDBRANCH   8  11
BRANCH   5  22
ATOM     22  C   UNL     1      31.819 -11.712 -22.343  0.00  0.00    +0.068 C 
BRANCH  22  24
ATOM     23  N   UNL     1      35.291 -16.180 -22.255  0.00  0.00    -0.248 NA
ATOM     24  C   UNL     1      32.734 -12.890 -22.330  0.00  0.00    -0.038 C 
ATOM     25  C   UNL     1      33.141 -13.474 -23.526  0.00  0.00    +0.050 C 
ATOM     26  C   UNL     1      34.002 -14.583 -23.519  0.00  0.00    -0.004 C 
ATOM     27  C   UNL     1      33.186 -13.411 -21.124  0.00  0.00    -0.028 C 
ATOM     28  C   UNL     1      34.466 -15.118 -22.298  0.00  0.00    +0.060 C 
ATOM     29  C   UNL     1      34.043 -14.514 -21.117  0.00  0.00    +0.071 C 
ATOM     30  C   UNL     1      34.428 -15.190 -24.708  0.00  0.00    -0.001 C 
ATOM     31  C   UNL     1      35.280 -16.285 -24.667  0.00  0.00    +0.020 C 
ATOM     32  C   UNL     1      35.679 -16.737 -23.426  0.00  0.00    +0.098 C 
ENDBRANCH  22  24
ENDBRANCH   5  22
TORSDOF 4
ENDMDL
MODEL 6
REMARK VINA RESULT:     -11.1      5.741     11.882
REMARK  Name = 25145656
REMARK  4 active torsions:
REMARK  status: ('A' for Active; 'I' for Inactive)
REMARK    1  A    between atoms: C_5  and  C_22
REMARK    2  A    between atoms: C_8  and  C_11
REMARK    3  A    between atoms: C_14  and  C_19
REMARK    4  A    between atoms: C_22  and  C_24
REMARK                            x       y       z     vdW  Elec       q    Type
REMARK                         _______ _______ _______ _____ _____    ______ ____
ROOT
ATOM      1  N   UNL     1      34.450 -21.305 -19.663  0.00  0.00    -0.134 N 
ATOM      2  N   UNL     1      35.465 -21.730 -18.878  0.00  0.00    -0.168 NA
ATOM      3  N   UNL     1      32.400 -21.057 -20.475  0.00  0.00    -0.178 NA
ATOM      4  N   UNL     1      32.734 -22.556 -18.604  0.00  0.00    -0.200 NA
ATOM      5  C   UNL     1      34.557 -20.423 -20.703  0.00  0.00    +0.086 C 
ATOM      6  C   UNL     1      33.122 -21.671 -19.555  0.00  0.00    +0.114 C 
ATOM      7  C   UNL     1      33.280 -20.286 -21.188  0.00  0.00    +0.124 C 
ATOM      8  C   UNL     1      35.109 -22.562 -17.946  0.00  0.00    +0.103 C 
ATOM      9  C   UNL     1      33.669 -22.999 -17.829  0.00  0.00    +0.184 C 
ENDROOT
BRANCH   8  11
ATOM     10  F   UNL     1      36.384 -25.623 -14.403  0.00  0.00    -0.204 F 
ATOM     11  C   UNL     1      36.116 -23.093 -16.999  0.00  0.00    +0.019 C 
ATOM     12  C   UNL     1      35.775 -24.127 -16.128  0.00  0.00    +0.031 C 
ATOM     13  C   UNL     1      37.404 -22.560 -16.979  0.00  0.00    +0.002 C 
ATOM     14  C   UNL     1      38.012 -24.095 -15.215  0.00  0.00    +0.081 C 
ATOM     15  C   UNL     1      36.723 -24.628 -15.236  0.00  0.00    +0.144 C 
ATOM     16  C   UNL     1      38.352 -23.061 -16.086  0.00  0.00    +0.007 C 
BRANCH  14  19
ATOM     17  O   UNL     1      39.015 -24.243 -13.100  0.00  0.00    -0.270 OA
ATOM     18  N   UNL     1      39.910 -25.556 -14.789  0.00  0.00    -0.299 N 
ATOM     19  C   UNL     1      39.003 -24.615 -14.287  0.00  0.00    +0.248 C 
ATOM     20  C   UNL     1      40.938 -26.182 -13.987  0.00  0.00    +0.111 C 
ATOM     21  H   UNL     1      39.846 -25.806 -15.739  0.00  0.00    +0.150 HD
ENDBRANCH  14  19
ENDBRANCH   8  11
BRANCH   5  22
ATOM     22  C   UNL     1      35.868 -19.796 -21.134  0.00  0.00    +0.068 C 
BRANCH  22  24
ATOM     23  N   UNL     1      35.268 -15.101 -24.236  0.00  0.00    -0.248 NA
ATOM     24  C   UNL     1      35.707 -18.553 -21.943  0.00  0.00    -0.038 C 
ATOM     25  C   UNL     1      35.321 -17.364 -21.331  0.00  0.00    +0.050 C 
ATOM     26  C   UNL     1      35.168 -16.192 -22.089  0.00  0.00    -0.004 C 
ATOM     27  C   UNL     1      35.942 -18.575 -23.312  0.00  0.00    -0.028 C 
ATOM     28  C   UNL     1      35.405 -16.206 -23.480  0.00  0.00    +0.060 C 
ATOM     29  C   UNL     1      35.791 -17.409 -24.066  0.00  0.00    +0.071 C 
ATOM     30  C   UNL     1      34.781 -14.981 -21.499  0.00  0.00    -0.001 C 
ATOM     31  C   UNL     1      34.639 -13.840 -22.276  0.00  0.00    +0.020 C 
ATOM     32  C   UNL     1      34.892 -13.952 -23.627  0.00  0.00    +0.098 C 
ENDBRANCH  22  24
ENDBRANCH   5  22
TORSDOF 4
ENDMDL
MODEL 7
REMARK VINA RESULT:     -11.0      3.822      7.235
REMARK  Name = 25145656
REMARK  4 active torsions:
REMARK  status: ('A' for Active; 'I' for Inactive)
REMARK    1  A    between atoms: C_5  and  C_22
REMARK    2  A    between atoms: C_8  and  C_11
REMARK    3  A    between atoms: C_14  and  C_19
REMARK    4  A    between atoms: C_22  and  C_24
REMARK                            x       y       z     vdW  Elec       q    Type
REMARK                         _______ _______ _______ _____ _____    ______ ____
ROOT
ATOM      1  N   UNL     1      32.322  -9.497 -21.286  0.00  0.00    -0.134 N 
ATOM      2  N   UNL     1      32.563  -8.778 -22.404  0.00  0.00    -0.168 NA
ATOM      3  N   UNL     1      32.031  -9.993 -19.143  0.00  0.00    -0.178 NA
ATOM      4  N   UNL     1      32.592  -7.716 -19.742  0.00  0.00    -0.200 NA
ATOM      5  C   UNL     1      32.029 -10.834 -21.240  0.00  0.00    +0.086 C 
ATOM      6  C   UNL     1      32.316  -9.020 -19.989  0.00  0.00    +0.114 C 
ATOM      7  C   UNL     1      31.853 -11.115 -19.909  0.00  0.00    +0.124 C 
ATOM      8  C   UNL     1      32.807  -7.521 -22.189  0.00  0.00    +0.103 C 
ATOM      9  C   UNL     1      32.836  -6.984 -20.779  0.00  0.00    +0.184 C 
ENDROOT
BRANCH   8  11
ATOM     10  F   UNL     1      35.694  -5.904 -25.740  0.00  0.00    -0.204 F 
ATOM     11  C   UNL     1      33.069  -6.608 -23.327  0.00  0.00    +0.019 C 
ATOM     12  C   UNL     1      34.280  -6.682 -24.014  0.00  0.00    +0.031 C 
ATOM     13  C   UNL     1      32.104  -5.677 -23.710  0.00  0.00    +0.002 C 
ATOM     14  C   UNL     1      33.562  -4.892 -25.469  0.00  0.00    +0.081 C 
ATOM     15  C   UNL     1      34.526  -5.824 -25.086  0.00  0.00    +0.144 C 
ATOM     16  C   UNL     1      32.351  -4.819 -24.781  0.00  0.00    +0.007 C 
BRANCH  14  19
ATOM     17  O   UNL     1      33.906  -2.769 -26.404  0.00  0.00    -0.270 OA
ATOM     18  N   UNL     1      33.969  -4.581 -27.848  0.00  0.00    -0.299 N 
ATOM     19  C   UNL     1      33.814  -3.996 -26.586  0.00  0.00    +0.248 C 
ATOM     20  C   UNL     1      34.247  -3.828 -29.050  0.00  0.00    +0.111 C 
ATOM     21  H   UNL     1      33.883  -5.559 -27.922  0.00  0.00    +0.150 HD
ENDBRANCH  14  19
ENDBRANCH   8  11
BRANCH   5  22
ATOM     22  C   UNL     1      31.944 -11.711 -22.473  0.00  0.00    +0.068 C 
BRANCH  22  24
ATOM     23  N   UNL     1      35.297 -16.264 -22.243  0.00  0.00    -0.248 NA
ATOM     24  C   UNL     1      32.828 -12.912 -22.423  0.00  0.00    -0.038 C 
ATOM     25  C   UNL     1      33.229 -13.535 -23.600  0.00  0.00    +0.050 C 
ATOM     26  C   UNL     1      34.062 -14.666 -23.557  0.00  0.00    -0.004 C 
ATOM     27  C   UNL     1      33.256 -13.414 -21.200  0.00  0.00    -0.028 C 
ATOM     28  C   UNL     1      34.500 -15.182 -22.319  0.00  0.00    +0.060 C 
ATOM     29  C   UNL     1      34.083 -14.538 -21.157  0.00  0.00    +0.071 C 
ATOM     30  C   UNL     1      34.482 -15.313 -24.727  0.00  0.00    -0.001 C 
ATOM     31  C   UNL     1      35.304 -16.429 -24.651  0.00  0.00    +0.020 C 
ATOM     32  C   UNL     1      35.680 -16.859 -23.396  0.00  0.00    +0.098 C 
ENDBRANCH  22  24
ENDBRANCH   5  22
TORSDOF 4
ENDMDL
MODEL 8
REMARK VINA RESULT:     -10.8      3.004      9.971
REMARK  Name = 25145656
REMARK  4 active torsions:
REMARK  status: ('A' for Active; 'I' for Inactive)
REMARK    1  A    between atoms: C_5  and  C_22
REMARK    2  A    between atoms: C_8  and  C_11
REMARK    3  A    between atoms: C_14  and  C_19
REMARK    4  A    between atoms: C_22  and  C_24
REMARK                            x       y       z     vdW  Elec       q    Type
REMARK                         _______ _______ _______ _____ _____    ______ ____
ROOT
ATOM      1  N   UNL     1      34.159 -13.900 -25.359  0.00  0.00    -0.134 N 
ATOM      2  N   UNL     1      34.566 -14.771 -24.409  0.00  0.00    -0.168 NA
ATOM      3  N   UNL     1      33.377 -13.123 -27.284  0.00  0.00    -0.178 NA
ATOM      4  N   UNL     1      33.652 -15.513 -27.023  0.00  0.00    -0.200 NA
ATOM      5  C   UNL     1      34.118 -12.538 -25.230  0.00  0.00    +0.086 C 
ATOM      6  C   UNL     1      33.703 -14.219 -26.623  0.00  0.00    +0.114 C 
ATOM      7  C   UNL     1      33.632 -12.082 -26.430  0.00  0.00    +0.124 C 
ATOM      8  C   UNL     1      34.503 -16.019 -24.766  0.00  0.00    +0.103 C 
ATOM      9  C   UNL     1      34.036 -16.389 -26.153  0.00  0.00    +0.184 C 
ENDROOT
BRANCH   8  11
ATOM     10  F   UNL     1      36.166 -17.417 -20.426  0.00  0.00    -0.204 F 
ATOM     11  C   UNL     1      34.898 -17.085 -23.816  0.00  0.00    +0.019 C 
ATOM     12  C   UNL     1      35.356 -16.748 -22.543  0.00  0.00    +0.031 C 
ATOM     13  C   UNL     1      34.812 -18.424 -24.196  0.00  0.00    +0.002 C 
ATOM     14  C   UNL     1      35.643 -19.092 -22.027  0.00  0.00    +0.081 C 
ATOM     15  C   UNL     1      35.728 -17.752 -21.648  0.00  0.00    +0.144 C 
ATOM     16  C   UNL     1      35.184 -19.427 -23.301  0.00  0.00    +0.007 C 
BRANCH  14  19
ATOM     17  O   UNL     1      37.223 -20.311 -20.797  0.00  0.00    -0.270 OA
ATOM     18  N   UNL     1      34.999 -20.917 -20.553  0.00  0.00    -0.299 N 
ATOM     19  C   UNL     1      36.028 -20.141 -21.098  0.00  0.00    +0.248 C 
ATOM     20  C   UNL     1      35.219 -21.981 -19.599  0.00  0.00    +0.111 C 
ATOM     21  H   UNL     1      34.075 -20.730 -20.835  0.00  0.00    +0.150 HD
ENDBRANCH  14  19
ENDBRANCH   8  11
BRANCH   5  22
ATOM     22  C   UNL     1      34.545 -11.805 -23.975  0.00  0.00    +0.068 C 
BRANCH  22  24
ATOM     23  N   UNL     1      31.573  -7.099 -22.951  0.00  0.00    -0.248 NA
ATOM     24  C   UNL     1      33.770 -10.559 -23.708  0.00  0.00    -0.038 C 
ATOM     25  C   UNL     1      34.326  -9.314 -23.989  0.00  0.00    +0.050 C 
ATOM     26  C   UNL     1      33.599  -8.139 -23.740  0.00  0.00    -0.004 C 
ATOM     27  C   UNL     1      32.487 -10.633 -23.179  0.00  0.00    -0.028 C 
ATOM     28  C   UNL     1      32.296  -8.206 -23.202  0.00  0.00    +0.060 C 
ATOM     29  C   UNL     1      31.765  -9.464 -22.931  0.00  0.00    +0.071 C 
ATOM     30  C   UNL     1      34.135  -6.873 -24.014  0.00  0.00    -0.001 C 
ATOM     31  C   UNL     1      33.391  -5.729 -23.755  0.00  0.00    +0.020 C 
ATOM     32  C   UNL     1      32.127  -5.896 -23.229  0.00  0.00    +0.098 C 
ENDBRANCH  22  24
ENDBRANCH   5  22
TORSDOF 4
ENDMDL
MODEL 9
REMARK VINA RESULT:     -10.7      5.213      9.799
REMARK  Name = 25145656
REMARK  4 active torsions:
REMARK  status: ('A' for Active; 'I' for Inactive)
REMARK    1  A    between atoms: C_5  and  C_22
REMARK    2  A    between atoms: C_8  and  C_11
REMARK    3  A    between atoms: C_14  and  C_19
REMARK    4  A    between atoms: C_22  and  C_24
REMARK                            x       y       z     vdW  Elec       q    Type
REMARK                         _______ _______ _______ _____ _____    ______ ____
ROOT
ATOM      1  N   UNL     1      35.780 -22.957 -16.804  0.00  0.00    -0.134 N 
ATOM      2  N   UNL     1      35.448 -22.445 -18.010  0.00  0.00    -0.168 NA
ATOM      3  N   UNL     1      36.879 -23.288 -14.906  0.00  0.00    -0.178 NA
ATOM      4  N   UNL     1      37.736 -21.656 -16.475  0.00  0.00    -0.200 NA
ATOM      5  C   UNL     1      35.087 -23.924 -16.127  0.00  0.00    +0.086 C 
ATOM      6  C   UNL     1      36.865 -22.595 -16.031  0.00  0.00    +0.114 C 
ATOM      7  C   UNL     1      35.785 -24.110 -14.960  0.00  0.00    +0.124 C 
ATOM      8  C   UNL     1      36.257 -21.526 -18.443  0.00  0.00    +0.103 C 
ATOM      9  C   UNL     1      37.467 -21.137 -17.628  0.00  0.00    +0.184 C 
ENDROOT
BRANCH   8  11
ATOM     10  F   UNL     1      37.798 -18.920 -22.235  0.00  0.00    -0.204 F 
ATOM     11  C   UNL     1      36.003 -20.862 -19.742  0.00  0.00    +0.019 C 
ATOM     12  C   UNL     1      37.036 -20.189 -20.394  0.00  0.00    +0.031 C 
ATOM     13  C   UNL     1      34.732 -20.911 -20.314  0.00  0.00    +0.002 C 
ATOM     14  C   UNL     1      35.527 -19.612 -22.190  0.00  0.00    +0.081 C 
ATOM     15  C   UNL     1      36.798 -19.564 -21.618  0.00  0.00    +0.144 C 
ATOM     16  C   UNL     1      34.494 -20.286 -21.538  0.00  0.00    +0.007 C 
BRANCH  14  19
ATOM     17  O   UNL     1      34.985 -19.636 -24.471  0.00  0.00    -0.270 OA
ATOM     18  N   UNL     1      35.350 -17.565 -23.494  0.00  0.00    -0.299 N 
ATOM     19  C   UNL     1      35.274 -18.963 -23.466  0.00  0.00    +0.248 C 
ATOM     20  C   UNL     1      35.102 -16.775 -24.678  0.00  0.00    +0.111 C 
ATOM     21  H   UNL     1      35.585 -17.095 -22.662  0.00  0.00    +0.150 HD
ENDBRANCH  14  19
ENDBRANCH   8  11
BRANCH   5  22
ATOM     22  C   UNL     1      33.827 -24.576 -16.660  0.00  0.00    +0.068 C 
BRANCH  22  24
ATOM     23  N   UNL     1      29.067 -22.089 -14.876  0.00  0.00    -0.248 NA
ATOM     24  C   UNL     1      32.567 -23.925 -16.197  0.00  0.00    -0.038 C 
ATOM     25  C   UNL     1      31.389 -24.089 -16.919  0.00  0.00    +0.050 C 
ATOM     26  C   UNL     1      30.200 -23.477 -16.487  0.00  0.00    -0.004 C 
ATOM     27  C   UNL     1      32.563 -23.150 -15.044  0.00  0.00    -0.028 C 
ATOM     28  C   UNL     1      30.188 -22.689 -15.317  0.00  0.00    +0.060 C 
ATOM     29  C   UNL     1      31.381 -22.542 -14.615  0.00  0.00    +0.071 C 
ATOM     30  C   UNL     1      28.999 -23.627 -17.194  0.00  0.00    -0.001 C 
ATOM     31  C   UNL     1      27.842 -23.009 -16.741  0.00  0.00    +0.020 C 
ATOM     32  C   UNL     1      27.928 -22.258 -15.587  0.00  0.00    +0.098 C 
ENDBRANCH  22  24
ENDBRANCH   5  22
TORSDOF 4
ENDMDL
