MODEL 1
REMARK VINA RESULT:     -10.9      0.000      0.000
REMARK  Name = 445459
REMARK  7 active torsions:
REMARK  status: ('A' for Active; 'I' for Inactive)
REMARK    1  A    between atoms: C_1  and  C_7
REMARK    2  A    between atoms: C_1  and  N_13
REMARK    3  A    between atoms: C_1  and  C_27
REMARK    4  A    between atoms: C_4  and  C_9
REMARK    5  A    between atoms: C_9  and  O_10
REMARK    6  A    between atoms: C_14  and  C_18
REMARK    7  A    between atoms: C_27  and  C_28
REMARK                            x       y       z     vdW  Elec       q    Type
REMARK                         _______ _______ _______ _____ _____    ______ ____
ROOT
ATOM      1  C   UNL     1      33.048 -24.113 -14.930  0.00  0.00    +0.153 C 
ENDROOT
BRANCH   1   7
ATOM      2  O   UNL     1      31.726 -23.091 -13.221  0.00  0.00    -0.273 OA
ATOM      3  N   UNL     1      30.823 -23.264 -15.325  0.00  0.00    -0.277 N 
ATOM      4  C   UNL     1      29.449 -22.698 -16.733  0.00  0.00    +0.138 C 
ATOM      5  C   UNL     1      29.487 -22.711 -15.200  0.00  0.00    +0.106 C 
ATOM      6  C   UNL     1      30.700 -23.587 -16.732  0.00  0.00    +0.106 C 
ATOM      7  C   UNL     1      31.810 -23.442 -14.397  0.00  0.00    +0.244 C 
BRANCH   4   9
ATOM      8  O   UNL     1      27.962 -24.502 -17.597  0.00  0.00    -0.250 OA
ATOM      9  C   UNL     1      28.173 -23.308 -17.394  0.00  0.00    +0.317 C 
BRANCH   9  10
ATOM     10  O   UNL     1      27.267 -22.351 -17.737  0.00  0.00    -0.480 OA
ATOM     11  H   UNL     1      27.479 -21.445 -17.629  0.00  0.00    +0.295 HD
ENDBRANCH   9  10
ENDBRANCH   4   9
ENDBRANCH   1   7
BRANCH   1  13
ATOM     12  O   UNL     1      33.851 -24.996 -17.484  0.00  0.00    -0.269 OA
ATOM     13  N   UNL     1      33.462 -23.265 -16.026  0.00  0.00    -0.294 N 
ATOM     14  C   UNL     1      33.856 -23.757 -17.288  0.00  0.00    +0.260 C 
ATOM     15  H   UNL     1      33.470 -22.291 -15.882  0.00  0.00    +0.150 HD
BRANCH  14  18
ATOM     16 CL   UNL     1      36.786 -18.748 -22.299  0.00  0.00    -0.082 Cl
ATOM     17  N   UNL     1      33.302 -22.176 -19.100  0.00  0.00    -0.309 N 
ATOM     18  C   UNL     1      34.211 -22.793 -18.283  0.00  0.00    +0.102 C 
ATOM     19  C   UNL     1      35.462 -22.319 -18.604  0.00  0.00    +0.020 C 
ATOM     20  C   UNL     1      35.309 -21.376 -19.659  0.00  0.00    +0.016 C 
ATOM     21  C   UNL     1      33.945 -21.305 -19.951  0.00  0.00    +0.048 C 
ATOM     22  C   UNL     1      36.202 -20.574 -20.395  0.00  0.00    +0.013 C 
ATOM     23  C   UNL     1      33.428 -20.469 -20.947  0.00  0.00    +0.015 C 
ATOM     24  C   UNL     1      35.700 -19.732 -21.394  0.00  0.00    +0.058 C 
ATOM     25  C   UNL     1      34.334 -19.682 -21.664  0.00  0.00    +0.013 C 
ATOM     26  H   UNL     1      32.330 -22.333 -19.082  0.00  0.00    +0.152 HD
ENDBRANCH  14  18
ENDBRANCH   1  13
BRANCH   1  27
ATOM     27  C   UNL     1      34.109 -24.232 -13.838  0.00  0.00    +0.055 C 
BRANCH  27  28
ATOM     28  C   UNL     1      35.511 -24.289 -14.396  0.00  0.00    -0.020 C 
ATOM     29  C   UNL     1      36.241 -23.118 -14.523  0.00  0.00    -0.004 C 
ATOM     30  C   UNL     1      36.043 -25.513 -14.771  0.00  0.00    -0.004 C 
ATOM     31  C   UNL     1      37.537 -23.172 -15.037  0.00  0.00    -0.000 C 
ATOM     32  C   UNL     1      37.339 -25.567 -15.286  0.00  0.00    -0.000 C 
ATOM     33  C   UNL     1      38.085 -24.396 -15.419  0.00  0.00    -0.000 C 
ENDBRANCH  27  28
ENDBRANCH   1  27
TORSDOF 7
ENDMDL
MODEL 2
REMARK VINA RESULT:     -10.8      2.716      5.740
REMARK  Name = 445459
REMARK  7 active torsions:
REMARK  status: ('A' for Active; 'I' for Inactive)
REMARK    1  A    between atoms: C_1  and  C_7
REMARK    2  A    between atoms: C_1  and  N_13
REMARK    3  A    between atoms: C_1  and  C_27
REMARK    4  A    between atoms: C_4  and  C_9
REMARK    5  A    between atoms: C_9  and  O_10
REMARK    6  A    between atoms: C_14  and  C_18
REMARK    7  A    between atoms: C_27  and  C_28
REMARK                            x       y       z     vdW  Elec       q    Type
REMARK                         _______ _______ _______ _____ _____    ______ ____
ROOT
ATOM      1  C   UNL     1      34.965 -22.827 -16.128  0.00  0.00    +0.153 C 
ENDROOT
BRANCH   1   7
ATOM      2  O   UNL     1      37.253 -23.385 -16.536  0.00  0.00    -0.273 OA
ATOM      3  N   UNL     1      36.454 -23.607 -14.396  0.00  0.00    -0.277 N 
ATOM      4  C   UNL     1      36.765 -23.784 -12.380  0.00  0.00    +0.138 C 
ATOM      5  C   UNL     1      37.573 -24.132 -13.636  0.00  0.00    +0.106 C 
ATOM      6  C   UNL     1      35.535 -23.584 -13.275  0.00  0.00    +0.106 C 
ATOM      7  C   UNL     1      36.336 -23.299 -15.722  0.00  0.00    +0.244 C 
BRANCH   4   9
ATOM      8  O   UNL     1      36.703 -26.118 -11.508  0.00  0.00    -0.250 OA
ATOM      9  C   UNL     1      36.655 -24.907 -11.301  0.00  0.00    +0.317 C 
BRANCH   9  10
ATOM     10  O   UNL     1      36.500 -24.399 -10.047  0.00  0.00    -0.480 OA
ATOM     11  H   UNL     1      37.184 -24.496  -9.414  0.00  0.00    +0.295 HD
ENDBRANCH   9  10
ENDBRANCH   4   9
ENDBRANCH   1   7
BRANCH   1  13
ATOM     12  O   UNL     1      34.428 -23.537 -18.804  0.00  0.00    -0.269 OA
ATOM     13  N   UNL     1      35.210 -21.998 -17.288  0.00  0.00    -0.294 N 
ATOM     14  C   UNL     1      34.923 -22.400 -18.610  0.00  0.00    +0.260 C 
ATOM     15  H   UNL     1      35.599 -21.105 -17.148  0.00  0.00    +0.150 HD
BRANCH  14  18
ATOM     16 CL   UNL     1      35.346 -17.531 -24.518  0.00  0.00    -0.082 Cl
ATOM     17  N   UNL     1      36.396 -20.825 -19.809  0.00  0.00    -0.309 N 
ATOM     18  C   UNL     1      35.193 -21.460 -19.652  0.00  0.00    +0.102 C 
ATOM     19  C   UNL     1      34.351 -21.026 -20.650  0.00  0.00    +0.020 C 
ATOM     20  C   UNL     1      35.070 -20.089 -21.445  0.00  0.00    +0.016 C 
ATOM     21  C   UNL     1      36.349 -19.982 -20.896  0.00  0.00    +0.048 C 
ATOM     22  C   UNL     1      34.753 -19.321 -22.582  0.00  0.00    +0.013 C 
ATOM     23  C   UNL     1      37.331 -19.140 -21.429  0.00  0.00    +0.015 C 
ATOM     24  C   UNL     1      35.725 -18.474 -23.127  0.00  0.00    +0.058 C 
ATOM     25  C   UNL     1      36.994 -18.387 -22.558  0.00  0.00    +0.013 C 
ATOM     26  H   UNL     1      37.181 -20.952 -19.227  0.00  0.00    +0.152 HD
ENDBRANCH  14  18
ENDBRANCH   1  13
BRANCH   1  27
ATOM     27  C   UNL     1      34.054 -24.014 -16.430  0.00  0.00    +0.055 C 
BRANCH  27  28
ATOM     28  C   UNL     1      32.637 -23.791 -15.959  0.00  0.00    -0.020 C 
ATOM     29  C   UNL     1      32.255 -24.251 -14.709  0.00  0.00    -0.004 C 
ATOM     30  C   UNL     1      31.742 -23.129 -16.787  0.00  0.00    -0.004 C 
ATOM     31  C   UNL     1      30.946 -24.045 -14.274  0.00  0.00    -0.000 C 
ATOM     32  C   UNL     1      30.432 -22.923 -16.352  0.00  0.00    -0.000 C 
ATOM     33  C   UNL     1      30.035 -23.381 -15.095  0.00  0.00    -0.000 C 
ENDBRANCH  27  28
ENDBRANCH   1  27
TORSDOF 7
ENDMDL
MODEL 3
REMARK VINA RESULT:     -10.6      2.466      5.639
REMARK  Name = 445459
REMARK  7 active torsions:
REMARK  status: ('A' for Active; 'I' for Inactive)
REMARK    1  A    between atoms: C_1  and  C_7
REMARK    2  A    between atoms: C_1  and  N_13
REMARK    3  A    between atoms: C_1  and  C_27
REMARK    4  A    between atoms: C_4  and  C_9
REMARK    5  A    between atoms: C_9  and  O_10
REMARK    6  A    between atoms: C_14  and  C_18
REMARK    7  A    between atoms: C_27  and  C_28
REMARK                            x       y       z     vdW  Elec       q    Type
REMARK                         _______ _______ _______ _____ _____    ______ ____
ROOT
ATOM      1  C   UNL     1      33.971 -23.670 -15.806  0.00  0.00    +0.153 C 
ENDROOT
BRANCH   1   7
ATOM      2  O   UNL     1      35.946 -24.956 -16.203  0.00  0.00    -0.273 OA
ATOM      3  N   UNL     1      35.518 -24.273 -14.053  0.00  0.00    -0.277 N 
ATOM      4  C   UNL     1      36.138 -23.903 -12.138  0.00  0.00    +0.138 C 
ATOM      5  C   UNL     1      36.598 -24.836 -13.265  0.00  0.00    +0.106 C 
ATOM      6  C   UNL     1      34.851 -23.645 -12.930  0.00  0.00    +0.106 C 
ATOM      7  C   UNL     1      35.240 -24.366 -15.388  0.00  0.00    +0.244 C 
BRANCH   4   9
ATOM      8  O   UNL     1      35.273 -25.547 -10.476  0.00  0.00    -0.250 OA
ATOM      9  C   UNL     1      35.960 -24.560 -10.732  0.00  0.00    +0.317 C 
BRANCH   9  10
ATOM     10  O   UNL     1      36.676 -23.914  -9.771  0.00  0.00    -0.480 OA
ATOM     11  H   UNL     1      36.384 -23.929  -8.880  0.00  0.00    +0.295 HD
ENDBRANCH   9  10
ENDBRANCH   4   9
ENDBRANCH   1   7
BRANCH   1  13
ATOM     12  O   UNL     1      33.786 -24.163 -18.576  0.00  0.00    -0.269 OA
ATOM     13  N   UNL     1      34.395 -22.769 -16.855  0.00  0.00    -0.294 N 
ATOM     14  C   UNL     1      34.281 -23.063 -18.230  0.00  0.00    +0.260 C 
ATOM     15  H   UNL     1      34.785 -21.904 -16.594  0.00  0.00    +0.150 HD
BRANCH  14  18
ATOM     16 CL   UNL     1      35.582 -17.642 -23.494  0.00  0.00    -0.082 Cl
ATOM     17  N   UNL     1      36.011 -21.620 -19.238  0.00  0.00    -0.309 N 
ATOM     18  C   UNL     1      34.717 -22.060 -19.150  0.00  0.00    +0.102 C 
ATOM     19  C   UNL     1      33.971 -21.371 -20.079  0.00  0.00    +0.020 C 
ATOM     20  C   UNL     1      34.845 -20.477 -20.759  0.00  0.00    +0.016 C 
ATOM     21  C   UNL     1      36.118 -20.654 -20.212  0.00  0.00    +0.048 C 
ATOM     22  C   UNL     1      34.674 -19.532 -21.789  0.00  0.00    +0.013 C 
ATOM     23  C   UNL     1      37.233 -19.929 -20.647  0.00  0.00    +0.015 C 
ATOM     24  C   UNL     1      35.781 -18.799 -22.234  0.00  0.00    +0.058 C 
ATOM     25  C   UNL     1      37.040 -18.997 -21.670  0.00  0.00    +0.013 C 
ATOM     26  H   UNL     1      36.756 -21.948 -18.684  0.00  0.00    +0.152 HD
ENDBRANCH  14  18
ENDBRANCH   1  13
BRANCH   1  27
ATOM     27  C   UNL     1      32.931 -24.683 -16.279  0.00  0.00    +0.055 C 
BRANCH  27  28
ATOM     28  C   UNL     1      31.516 -24.222 -16.028  0.00  0.00    -0.020 C 
ATOM     29  C   UNL     1      31.071 -23.044 -16.606  0.00  0.00    -0.004 C 
ATOM     30  C   UNL     1      30.685 -24.987 -15.223  0.00  0.00    -0.004 C 
ATOM     31  C   UNL     1      29.763 -22.618 -16.375  0.00  0.00    -0.000 C 
ATOM     32  C   UNL     1      29.377 -24.561 -14.991  0.00  0.00    -0.000 C 
ATOM     33  C   UNL     1      28.917 -23.377 -15.567  0.00  0.00    -0.000 C 
ENDBRANCH  27  28
ENDBRANCH   1  27
TORSDOF 7
ENDMDL
MODEL 4
REMARK VINA RESULT:      -9.7      2.328      3.500
REMARK  Name = 445459
REMARK  7 active torsions:
REMARK  status: ('A' for Active; 'I' for Inactive)
REMARK    1  A    between atoms: C_1  and  C_7
REMARK    2  A    between atoms: C_1  and  N_13
REMARK    3  A    between atoms: C_1  and  C_27
REMARK    4  A    between atoms: C_4  and  C_9
REMARK    5  A    between atoms: C_9  and  O_10
REMARK    6  A    between atoms: C_14  and  C_18
REMARK    7  A    between atoms: C_27  and  C_28
REMARK                            x       y       z     vdW  Elec       q    Type
REMARK                         _______ _______ _______ _____ _____    ______ ____
ROOT
ATOM      1  C   UNL     1      36.221 -23.309 -16.492  0.00  0.00    +0.153 C 
ENDROOT
BRANCH   1   7
ATOM      2  O   UNL     1      35.557 -21.572 -14.991  0.00  0.00    -0.273 OA
ATOM      3  N   UNL     1      34.119 -23.335 -15.305  0.00  0.00    -0.277 N 
ATOM      4  C   UNL     1      32.251 -24.163 -15.182  0.00  0.00    +0.138 C 
ATOM      5  C   UNL     1      33.001 -23.061 -14.423  0.00  0.00    +0.106 C 
ATOM      6  C   UNL     1      33.587 -24.587 -15.806  0.00  0.00    +0.106 C 
ATOM      7  C   UNL     1      35.279 -22.646 -15.523  0.00  0.00    +0.244 C 
BRANCH   4   9
ATOM      8  O   UNL     1      31.758 -25.472 -13.119  0.00  0.00    -0.250 OA
ATOM      9  C   UNL     1      31.532 -25.235 -14.304  0.00  0.00    +0.317 C 
BRANCH   9  10
ATOM     10  O   UNL     1      30.579 -25.913 -15.001  0.00  0.00    -0.480 OA
ATOM     11  H   UNL     1      29.715 -25.557 -15.082  0.00  0.00    +0.295 HD
ENDBRANCH   9  10
ENDBRANCH   4   9
ENDBRANCH   1   7
BRANCH   1  13
ATOM     12  O   UNL     1      34.396 -23.295 -18.641  0.00  0.00    -0.269 OA
ATOM     13  N   UNL     1      36.253 -22.408 -17.622  0.00  0.00    -0.294 N 
ATOM     14  C   UNL     1      35.314 -22.441 -18.675  0.00  0.00    +0.260 C 
ATOM     15  H   UNL     1      36.970 -21.734 -17.659  0.00  0.00    +0.150 HD
BRANCH  14  18
ATOM     16 CL   UNL     1      35.071 -17.473 -24.511  0.00  0.00    -0.082 Cl
ATOM     17  N   UNL     1      36.589 -20.716 -19.895  0.00  0.00    -0.309 N 
ATOM     18  C   UNL     1      35.458 -21.465 -19.709  0.00  0.00    +0.102 C 
ATOM     19  C   UNL     1      34.545 -21.099 -20.672  0.00  0.00    +0.020 C 
ATOM     20  C   UNL     1      35.144 -20.088 -21.474  0.00  0.00    +0.016 C 
ATOM     21  C   UNL     1      36.425 -19.866 -20.966  0.00  0.00    +0.048 C 
ATOM     22  C   UNL     1      34.717 -19.338 -22.587  0.00  0.00    +0.013 C 
ATOM     23  C   UNL     1      37.305 -18.928 -21.517  0.00  0.00    +0.015 C 
ATOM     24  C   UNL     1      35.585 -18.395 -23.149  0.00  0.00    +0.058 C 
ATOM     25  C   UNL     1      36.859 -18.195 -22.621  0.00  0.00    +0.013 C 
ATOM     26  H   UNL     1      37.402 -20.776 -19.342  0.00  0.00    +0.152 HD
ENDBRANCH  14  18
ENDBRANCH   1  13
BRANCH   1  27
ATOM     27  C   UNL     1      37.595 -23.512 -15.857  0.00  0.00    +0.055 C 
BRANCH  27  28
ATOM     28  C   UNL     1      37.586 -24.570 -14.780  0.00  0.00    -0.020 C 
ATOM     29  C   UNL     1      37.281 -25.879 -15.116  0.00  0.00    -0.004 C 
ATOM     30  C   UNL     1      37.883 -24.213 -13.474  0.00  0.00    -0.004 C 
ATOM     31  C   UNL     1      37.273 -26.858 -14.121  0.00  0.00    -0.000 C 
ATOM     32  C   UNL     1      37.875 -25.191 -12.479  0.00  0.00    -0.000 C 
ATOM     33  C   UNL     1      37.570 -26.513 -12.803  0.00  0.00    -0.000 C 
ENDBRANCH  27  28
ENDBRANCH   1  27
TORSDOF 7
ENDMDL
MODEL 5
REMARK VINA RESULT:      -9.6      3.061      6.050
REMARK  Name = 445459
REMARK  7 active torsions:
REMARK  status: ('A' for Active; 'I' for Inactive)
REMARK    1  A    between atoms: C_1  and  C_7
REMARK    2  A    between atoms: C_1  and  N_13
REMARK    3  A    between atoms: C_1  and  C_27
REMARK    4  A    between atoms: C_4  and  C_9
REMARK    5  A    between atoms: C_9  and  O_10
REMARK    6  A    between atoms: C_14  and  C_18
REMARK    7  A    between atoms: C_27  and  C_28
REMARK                            x       y       z     vdW  Elec       q    Type
REMARK                         _______ _______ _______ _____ _____    ______ ____
ROOT
ATOM      1  C   UNL     1      33.434 -23.147 -16.701  0.00  0.00    +0.153 C 
ENDROOT
BRANCH   1   7
ATOM      2  O   UNL     1      32.868 -24.754 -15.024  0.00  0.00    -0.273 OA
ATOM      3  N   UNL     1      31.166 -23.536 -15.968  0.00  0.00    -0.277 N 
ATOM      4  C   UNL     1      29.249 -22.821 -15.937  0.00  0.00    +0.138 C 
ATOM      5  C   UNL     1      29.959 -24.045 -15.347  0.00  0.00    +0.106 C 
ATOM      6  C   UNL     1      30.484 -22.577 -16.813  0.00  0.00    +0.106 C 
ATOM      7  C   UNL     1      32.475 -23.897 -15.814  0.00  0.00    +0.244 C 
BRANCH   4   9
ATOM      8  O   UNL     1      27.797 -23.693 -17.766  0.00  0.00    -0.250 OA
ATOM      9  C   UNL     1      27.912 -23.100 -16.695  0.00  0.00    +0.317 C 
BRANCH   9  10
ATOM     10  O   UNL     1      26.832 -22.610 -16.026  0.00  0.00    -0.480 OA
ATOM     11  H   UNL     1      26.942 -21.922 -15.399  0.00  0.00    +0.295 HD
ENDBRANCH   9  10
ENDBRANCH   4   9
ENDBRANCH   1   7
BRANCH   1  13
ATOM     12  O   UNL     1      35.374 -22.046 -14.978  0.00  0.00    -0.269 OA
ATOM     13  N   UNL     1      34.722 -23.730 -16.396  0.00  0.00    -0.294 N 
ATOM     14  C   UNL     1      35.660 -23.138 -15.525  0.00  0.00    +0.260 C 
ATOM     15  H   UNL     1      34.956 -24.587 -16.821  0.00  0.00    +0.150 HD
BRANCH  14  18
ATOM     16 CL   UNL     1      41.650 -27.500 -13.555  0.00  0.00    -0.082 Cl
ATOM     17  N   UNL     1      38.037 -23.609 -15.990  0.00  0.00    -0.309 N 
ATOM     18  C   UNL     1      36.880 -23.848 -15.298  0.00  0.00    +0.102 C 
ATOM     19  C   UNL     1      37.126 -24.857 -14.395  0.00  0.00    +0.020 C 
ATOM     20  C   UNL     1      38.487 -25.247 -14.543  0.00  0.00    +0.016 C 
ATOM     21  C   UNL     1      39.035 -24.449 -15.549  0.00  0.00    +0.048 C 
ATOM     22  C   UNL     1      39.306 -26.205 -13.916  0.00  0.00    +0.013 C 
ATOM     23  C   UNL     1      40.367 -24.562 -15.961  0.00  0.00    +0.015 C 
ATOM     24  C   UNL     1      40.641 -26.331 -14.317  0.00  0.00    +0.058 C 
ATOM     25  C   UNL     1      41.162 -25.521 -15.325  0.00  0.00    +0.013 C 
ATOM     26  H   UNL     1      38.141 -22.934 -16.700  0.00  0.00    +0.152 HD
ENDBRANCH  14  18
ENDBRANCH   1  13
BRANCH   1  27
ATOM     27  C   UNL     1      33.045 -23.304 -18.169  0.00  0.00    +0.055 C 
BRANCH  27  28
ATOM     28  C   UNL     1      33.745 -22.311 -19.064  0.00  0.00    -0.020 C 
ATOM     29  C   UNL     1      35.127 -22.342 -19.165  0.00  0.00    -0.004 C 
ATOM     30  C   UNL     1      32.993 -21.385 -19.771  0.00  0.00    -0.004 C 
ATOM     31  C   UNL     1      35.774 -21.424 -19.992  0.00  0.00    -0.000 C 
ATOM     32  C   UNL     1      33.640 -20.467 -20.598  0.00  0.00    -0.000 C 
ATOM     33  C   UNL     1      35.030 -20.487 -20.709  0.00  0.00    -0.000 C 
ENDBRANCH  27  28
ENDBRANCH   1  27
TORSDOF 7
ENDMDL
MODEL 6
REMARK VINA RESULT:      -9.5     11.540     15.411
REMARK  Name = 445459
REMARK  7 active torsions:
REMARK  status: ('A' for Active; 'I' for Inactive)
REMARK    1  A    between atoms: C_1  and  C_7
REMARK    2  A    between atoms: C_1  and  N_13
REMARK    3  A    between atoms: C_1  and  C_27
REMARK    4  A    between atoms: C_4  and  C_9
REMARK    5  A    between atoms: C_9  and  O_10
REMARK    6  A    between atoms: C_14  and  C_18
REMARK    7  A    between atoms: C_27  and  C_28
REMARK                            x       y       z     vdW  Elec       q    Type
REMARK                         _______ _______ _______ _____ _____    ______ ____
ROOT
ATOM      1  C   UNL     1      33.061  -8.126 -23.337  0.00  0.00    +0.153 C 
ENDROOT
BRANCH   1   7
ATOM      2  O   UNL     1      33.524  -7.154 -21.203  0.00  0.00    -0.273 OA
ATOM      3  N   UNL     1      32.517  -9.217 -21.254  0.00  0.00    -0.277 N 
ATOM      4  C   UNL     1      31.437 -10.702 -20.349  0.00  0.00    +0.138 C 
ATOM      5  C   UNL     1      32.378  -9.594 -19.860  0.00  0.00    +0.106 C 
ATOM      6  C   UNL     1      31.927 -10.433 -21.777  0.00  0.00    +0.106 C 
ATOM      7  C   UNL     1      33.064  -8.106 -21.831  0.00  0.00    +0.244 C 
BRANCH   4   9
ATOM      8  O   UNL     1      32.002 -13.128 -20.449  0.00  0.00    -0.250 OA
ATOM      9  C   UNL     1      31.710 -12.133 -19.787  0.00  0.00    +0.317 C 
BRANCH   9  10
ATOM     10  O   UNL     1      31.597 -12.181 -18.432  0.00  0.00    -0.480 OA
ATOM     11  H   UNL     1      30.760 -12.060 -18.026  0.00  0.00    +0.295 HD
ENDBRANCH   9  10
ENDBRANCH   4   9
ENDBRANCH   1   7
BRANCH   1  13
ATOM     12  O   UNL     1      35.373  -9.403 -24.325  0.00  0.00    -0.269 OA
ATOM     13  N   UNL     1      33.176  -9.529 -23.669  0.00  0.00    -0.294 N 
ATOM     14  C   UNL     1      34.357 -10.121 -24.162  0.00  0.00    +0.260 C 
ATOM     15  H   UNL     1      32.384 -10.101 -23.545  0.00  0.00    +0.150 HD
BRANCH  14  18
ATOM     16 CL   UNL     1      34.578 -17.777 -24.523  0.00  0.00    -0.082 Cl
ATOM     17  N   UNL     1      33.893 -12.076 -25.595  0.00  0.00    -0.309 N 
ATOM     18  C   UNL     1      34.326 -11.527 -24.417  0.00  0.00    +0.102 C 
ATOM     19  C   UNL     1      34.699 -12.556 -23.582  0.00  0.00    +0.020 C 
ATOM     20  C   UNL     1      34.485 -13.778 -24.280  0.00  0.00    +0.016 C 
ATOM     21  C   UNL     1      33.980 -13.448 -25.539  0.00  0.00    +0.048 C 
ATOM     22  C   UNL     1      34.674 -15.136 -23.959  0.00  0.00    +0.013 C 
ATOM     23  C   UNL     1      33.652 -14.414 -26.497  0.00  0.00    +0.015 C 
ATOM     24  C   UNL     1      34.350 -16.113 -24.907  0.00  0.00    +0.058 C 
ATOM     25  C   UNL     1      33.847 -15.756 -26.156  0.00  0.00    +0.013 C 
ATOM     26  H   UNL     1      33.567 -11.562 -26.369  0.00  0.00    +0.152 HD
ENDBRANCH  14  18
ENDBRANCH   1  13
BRANCH   1  27
ATOM     27  C   UNL     1      31.785  -7.490 -23.883  0.00  0.00    +0.055 C 
BRANCH  27  28
ATOM     28  C   UNL     1      31.958  -6.025 -24.203  0.00  0.00    -0.020 C 
ATOM     29  C   UNL     1      31.247  -5.082 -23.478  0.00  0.00    -0.004 C 
ATOM     30  C   UNL     1      32.825  -5.649 -25.217  0.00  0.00    -0.004 C 
ATOM     31  C   UNL     1      31.407  -3.728 -23.772  0.00  0.00    -0.000 C 
ATOM     32  C   UNL     1      32.985  -4.294 -25.512  0.00  0.00    -0.000 C 
ATOM     33  C   UNL     1      32.276  -3.335 -24.790  0.00  0.00    -0.000 C 
ENDBRANCH  27  28
ENDBRANCH   1  27
TORSDOF 7
ENDMDL
MODEL 7
REMARK VINA RESULT:      -9.3      3.648      7.788
REMARK  Name = 445459
REMARK  7 active torsions:
REMARK  status: ('A' for Active; 'I' for Inactive)
REMARK    1  A    between atoms: C_1  and  C_7
REMARK    2  A    between atoms: C_1  and  N_13
REMARK    3  A    between atoms: C_1  and  C_27
REMARK    4  A    between atoms: C_4  and  C_9
REMARK    5  A    between atoms: C_9  and  O_10
REMARK    6  A    between atoms: C_14  and  C_18
REMARK    7  A    between atoms: C_27  and  C_28
REMARK                            x       y       z     vdW  Elec       q    Type
REMARK                         _______ _______ _______ _____ _____    ______ ____
ROOT
ATOM      1  C   UNL     1      36.727 -23.009 -16.201  0.00  0.00    +0.153 C 
ENDROOT
BRANCH   1   7
ATOM      2  O   UNL     1      36.545 -22.823 -13.825  0.00  0.00    -0.273 OA
ATOM      3  N   UNL     1      38.104 -24.278 -14.677  0.00  0.00    -0.277 N 
ATOM      4  C   UNL     1      39.365 -25.875 -14.461  0.00  0.00    +0.138 C 
ATOM      5  C   UNL     1      38.773 -24.826 -13.513  0.00  0.00    +0.106 C 
ATOM      6  C   UNL     1      38.894 -25.017 -15.642  0.00  0.00    +0.106 C 
ATOM      7  C   UNL     1      37.106 -23.350 -14.784  0.00  0.00    +0.244 C 
BRANCH   4   9
ATOM      8  O   UNL     1      41.455 -27.107 -13.890  0.00  0.00    -0.250 OA
ATOM      9  C   UNL     1      40.905 -26.109 -14.352  0.00  0.00    +0.317 C 
BRANCH   9  10
ATOM     10  O   UNL     1      41.618 -25.061 -14.847  0.00  0.00    -0.480 OA
ATOM     11  H   UNL     1      41.977 -25.104 -15.712  0.00  0.00    +0.295 HD
ENDBRANCH   9  10
ENDBRANCH   4   9
ENDBRANCH   1   7
BRANCH   1  13
ATOM     12  O   UNL     1      35.026 -25.257 -16.165  0.00  0.00    -0.269 OA
ATOM     13  N   UNL     1      35.281 -22.975 -16.178  0.00  0.00    -0.294 N 
ATOM     14  C   UNL     1      34.473 -24.131 -16.161  0.00  0.00    +0.260 C 
ATOM     15  H   UNL     1      34.837 -22.096 -16.175  0.00  0.00    +0.150 HD
BRANCH  14  18
ATOM     16 CL   UNL     1      27.040 -22.300 -16.605  0.00  0.00    -0.082 Cl
ATOM     17  N   UNL     1      32.217 -24.690 -15.332  0.00  0.00    -0.309 N 
ATOM     18  C   UNL     1      33.058 -23.939 -16.109  0.00  0.00    +0.102 C 
ATOM     19  C   UNL     1      32.296 -23.016 -16.789  0.00  0.00    +0.020 C 
ATOM     20  C   UNL     1      30.938 -23.214 -16.411  0.00  0.00    +0.016 C 
ATOM     21  C   UNL     1      30.917 -24.269 -15.497  0.00  0.00    +0.048 C 
ATOM     22  C   UNL     1      29.723 -22.594 -16.760  0.00  0.00    +0.013 C 
ATOM     23  C   UNL     1      29.735 -24.738 -14.912  0.00  0.00    +0.015 C 
ATOM     24  C   UNL     1      28.532 -23.053 -16.183  0.00  0.00    +0.058 C 
ATOM     25  C   UNL     1      28.541 -24.108 -15.274  0.00  0.00    +0.013 C 
ATOM     26  H   UNL     1      32.502 -25.425 -14.742  0.00  0.00    +0.152 HD
ENDBRANCH  14  18
ENDBRANCH   1  13
BRANCH   1  27
ATOM     27  C   UNL     1      37.344 -21.676 -16.619  0.00  0.00    +0.055 C 
BRANCH  27  28
ATOM     28  C   UNL     1      37.005 -21.300 -18.041  0.00  0.00    -0.020 C 
ATOM     29  C   UNL     1      36.058 -22.038 -18.732  0.00  0.00    -0.004 C 
ATOM     30  C   UNL     1      37.648 -20.221 -18.629  0.00  0.00    -0.004 C 
ATOM     31  C   UNL     1      35.745 -21.690 -20.046  0.00  0.00    -0.000 C 
ATOM     32  C   UNL     1      37.335 -19.874 -19.944  0.00  0.00    -0.000 C 
ATOM     33  C   UNL     1      36.383 -20.608 -20.651  0.00  0.00    -0.000 C 
ENDBRANCH  27  28
ENDBRANCH   1  27
TORSDOF 7
ENDMDL
MODEL 8
REMARK VINA RESULT:      -9.3      2.940      6.336
REMARK  Name = 445459
REMARK  7 active torsions:
REMARK  status: ('A' for Active; 'I' for Inactive)
REMARK    1  A    between atoms: C_1  and  C_7
REMARK    2  A    between atoms: C_1  and  N_13
REMARK    3  A    between atoms: C_1  and  C_27
REMARK    4  A    between atoms: C_4  and  C_9
REMARK    5  A    between atoms: C_9  and  O_10
REMARK    6  A    between atoms: C_14  and  C_18
REMARK    7  A    between atoms: C_27  and  C_28
REMARK                            x       y       z     vdW  Elec       q    Type
REMARK                         _______ _______ _______ _____ _____    ______ ____
ROOT
ATOM      1  C   UNL     1      35.557 -24.277 -14.902  0.00  0.00    +0.153 C 
ENDROOT
BRANCH   1   7
ATOM      2  O   UNL     1      35.571 -26.489 -15.809  0.00  0.00    -0.273 OA
ATOM      3  N   UNL     1      37.579 -25.565 -15.189  0.00  0.00    -0.277 N 
ATOM      4  C   UNL     1      39.624 -25.515 -15.264  0.00  0.00    +0.138 C 
ATOM      5  C   UNL     1      38.558 -26.603 -15.445  0.00  0.00    +0.106 C 
ATOM      6  C   UNL     1      38.537 -24.605 -14.678  0.00  0.00    +0.106 C 
ATOM      7  C   UNL     1      36.221 -25.554 -15.345  0.00  0.00    +0.244 C 
BRANCH   4   9
ATOM      8  O   UNL     1      41.294 -26.985 -14.141  0.00  0.00    -0.250 OA
ATOM      9  C   UNL     1      40.811 -25.868 -14.313  0.00  0.00    +0.317 C 
BRANCH   9  10
ATOM     10  O   UNL     1      41.292 -24.771 -13.666  0.00  0.00    -0.480 OA
ATOM     11  H   UNL     1      40.748 -24.016 -13.556  0.00  0.00    +0.295 HD
ENDBRANCH   9  10
ENDBRANCH   4   9
ENDBRANCH   1   7
BRANCH   1  13
ATOM     12  O   UNL     1      37.318 -22.416 -16.078  0.00  0.00    -0.269 OA
ATOM     13  N   UNL     1      35.326 -23.557 -16.135  0.00  0.00    -0.294 N 
ATOM     14  C   UNL     1      36.240 -22.633 -16.683  0.00  0.00    +0.260 C 
ATOM     15  H   UNL     1      34.483 -23.720 -16.617  0.00  0.00    +0.150 HD
BRANCH  14  18
ATOM     16 CL   UNL     1      35.396 -19.137 -23.455  0.00  0.00    -0.082 Cl
ATOM     17  N   UNL     1      34.603 -21.957 -18.400  0.00  0.00    -0.309 N 
ATOM     18  C   UNL     1      35.885 -22.021 -17.925  0.00  0.00    +0.102 C 
ATOM     19  C   UNL     1      36.709 -21.408 -18.841  0.00  0.00    +0.020 C 
ATOM     20  C   UNL     1      35.896 -20.954 -19.917  0.00  0.00    +0.016 C 
ATOM     21  C   UNL     1      34.580 -21.310 -19.616  0.00  0.00    +0.048 C 
ATOM     22  C   UNL     1      36.154 -20.271 -21.122  0.00  0.00    +0.013 C 
ATOM     23  C   UNL     1      33.505 -21.018 -20.462  0.00  0.00    +0.015 C 
ATOM     24  C   UNL     1      35.089 -19.972 -21.979  0.00  0.00    +0.058 C 
ATOM     25  C   UNL     1      33.786 -20.340 -21.653  0.00  0.00    +0.013 C 
ATOM     26  H   UNL     1      33.812 -22.321 -17.940  0.00  0.00    +0.152 HD
ENDBRANCH  14  18
ENDBRANCH   1  13
BRANCH   1  27
ATOM     27  C   UNL     1      34.268 -24.577 -14.140  0.00  0.00    +0.055 C 
BRANCH  27  28
ATOM     28  C   UNL     1      33.049 -23.982 -14.804  0.00  0.00    -0.020 C 
ATOM     29  C   UNL     1      32.113 -23.312 -14.032  0.00  0.00    -0.004 C 
ATOM     30  C   UNL     1      32.889 -24.115 -16.175  0.00  0.00    -0.004 C 
ATOM     31  C   UNL     1      30.988 -22.761 -14.645  0.00  0.00    -0.000 C 
ATOM     32  C   UNL     1      31.763 -23.564 -16.788  0.00  0.00    -0.000 C 
ATOM     33  C   UNL     1      30.814 -22.888 -16.023  0.00  0.00    -0.000 C 
ENDBRANCH  27  28
ENDBRANCH   1  27
TORSDOF 7
ENDMDL
MODEL 9
REMARK VINA RESULT:      -9.2     11.357     14.942
REMARK  Name = 445459
REMARK  7 active torsions:
REMARK  status: ('A' for Active; 'I' for Inactive)
REMARK    1  A    between atoms: C_1  and  C_7
REMARK    2  A    between atoms: C_1  and  N_13
REMARK    3  A    between atoms: C_1  and  C_27
REMARK    4  A    between atoms: C_4  and  C_9
REMARK    5  A    between atoms: C_9  and  O_10
REMARK    6  A    between atoms: C_14  and  C_18
REMARK    7  A    between atoms: C_27  and  C_28
REMARK                            x       y       z     vdW  Elec       q    Type
REMARK                         _______ _______ _______ _____ _____    ______ ____
ROOT
ATOM      1  C   UNL     1      32.509  -9.485 -23.546  0.00  0.00    +0.153 C 
ENDROOT
BRANCH   1   7
ATOM      2  O   UNL     1      34.854  -9.053 -23.373  0.00  0.00    -0.273 OA
ATOM      3  N   UNL     1      33.511  -7.395 -24.222  0.00  0.00    -0.277 N 
ATOM      4  C   UNL     1      33.265  -5.660 -25.280  0.00  0.00    +0.138 C 
ATOM      5  C   UNL     1      34.410  -6.285 -24.474  0.00  0.00    +0.106 C 
ATOM      6  C   UNL     1      32.319  -6.702 -24.668  0.00  0.00    +0.106 C 
ATOM      7  C   UNL     1      33.743  -8.636 -23.698  0.00  0.00    +0.244 C 
BRANCH   4   9
ATOM      8  O   UNL     1      32.367  -3.746 -23.961  0.00  0.00    -0.250 OA
ATOM      9  C   UNL     1      32.938  -4.166 -24.965  0.00  0.00    +0.317 C 
BRANCH   9  10
ATOM     10  O   UNL     1      33.371  -3.330 -25.948  0.00  0.00    -0.480 OA
ATOM     11  H   UNL     1      33.401  -3.626 -26.837  0.00  0.00    +0.295 HD
ENDBRANCH   9  10
ENDBRANCH   4   9
ENDBRANCH   1   7
BRANCH   1  13
ATOM     12  O   UNL     1      33.440 -11.296 -25.497  0.00  0.00    -0.269 OA
ATOM     13  N   UNL     1      33.026 -10.811 -23.291  0.00  0.00    -0.294 N 
ATOM     14  C   UNL     1      33.481 -11.681 -24.304  0.00  0.00    +0.260 C 
ATOM     15  H   UNL     1      33.061 -11.124 -22.358  0.00  0.00    +0.150 HD
BRANCH  14  18
ATOM     16 CL   UNL     1      36.407 -18.676 -23.159  0.00  0.00    -0.082 Cl
ATOM     17  N   UNL     1      34.049 -13.361 -22.588  0.00  0.00    -0.309 N 
ATOM     18  C   UNL     1      33.992 -12.951 -23.894  0.00  0.00    +0.102 C 
ATOM     19  C   UNL     1      34.502 -13.961 -24.678  0.00  0.00    +0.020 C 
ATOM     20  C   UNL     1      34.884 -15.027 -23.816  0.00  0.00    +0.016 C 
ATOM     21  C   UNL     1      34.590 -14.625 -22.511  0.00  0.00    +0.048 C 
ATOM     22  C   UNL     1      35.454 -16.298 -24.021  0.00  0.00    +0.013 C 
ATOM     23  C   UNL     1      34.839 -15.434 -21.397  0.00  0.00    +0.015 C 
ATOM     24  C   UNL     1      35.709 -17.119 -22.917  0.00  0.00    +0.058 C 
ATOM     25  C   UNL     1      35.405 -16.692 -21.625  0.00  0.00    +0.013 C 
ATOM     26  H   UNL     1      33.748 -12.829 -21.817  0.00  0.00    +0.152 HD
ENDBRANCH  14  18
ENDBRANCH   1  13
BRANCH   1  27
ATOM     27  C   UNL     1      31.631  -8.962 -22.412  0.00  0.00    +0.055 C 
BRANCH  27  28
ATOM     28  C   UNL     1      31.672  -9.848 -21.191  0.00  0.00    -0.020 C 
ATOM     29  C   UNL     1      32.322  -9.405 -20.050  0.00  0.00    -0.004 C 
ATOM     30  C   UNL     1      31.058 -11.091 -21.232  0.00  0.00    -0.004 C 
ATOM     31  C   UNL     1      32.360 -10.223 -18.921  0.00  0.00    -0.000 C 
ATOM     32  C   UNL     1      31.096 -11.910 -20.102  0.00  0.00    -0.000 C 
ATOM     33  C   UNL     1      31.747 -11.475 -18.948  0.00  0.00    -0.000 C 
ENDBRANCH  27  28
ENDBRANCH   1  27
TORSDOF 7
ENDMDL
