MODEL 1
REMARK VINA RESULT:     -11.3      0.000      0.000
REMARK  Name = 445849
REMARK  5 active torsions:
REMARK  status: ('A' for Active; 'I' for Inactive)
REMARK    1  A    between atoms: C_3  and  C_20
REMARK    2  A    between atoms: C_9  and  C_14
REMARK    3  A    between atoms: C_18  and  O_26
REMARK    4  A    between atoms: C_19  and  O_24
REMARK    5  A    between atoms: O_26  and  C_28
REMARK                            x       y       z     vdW  Elec       q    Type
REMARK                         _______ _______ _______ _____ _____    ______ ____
ROOT
ATOM      1  F   UNL     1      37.563 -22.801 -16.252  0.00  0.00    -0.204 F 
ATOM      2  N   UNL     1      36.531 -20.330 -20.315  0.00  0.00    -0.312 N 
ATOM      3  C   UNL     1      35.373 -20.213 -21.034  0.00  0.00    +0.051 C 
ATOM      4  C   UNL     1      35.000 -21.563 -19.261  0.00  0.00    +0.015 C 
ATOM      5  C   UNL     1      36.333 -21.149 -19.226  0.00  0.00    +0.051 C 
ATOM      6  C   UNL     1      34.407 -20.964 -20.407  0.00  0.00    +0.016 C 
ATOM      7  C   UNL     1      34.529 -22.419 -18.246  0.00  0.00    +0.006 C 
ATOM      8  C   UNL     1      37.223 -21.550 -18.223  0.00  0.00    +0.044 C 
ATOM      9  C   UNL     1      35.408 -22.829 -17.237  0.00  0.00    +0.058 C 
ATOM     10  C   UNL     1      36.734 -22.400 -17.227  0.00  0.00    +0.144 C 
ATOM     11  H   UNL     1      37.383 -19.892 -20.544  0.00  0.00    +0.152 HD
ENDROOT
BRANCH   9  14
ATOM     12  N   UNL     1      34.018 -23.272 -15.227  0.00  0.00    -0.343 N 
ATOM     13  N   UNL     1      35.352 -24.963 -16.133  0.00  0.00    -0.285 NA
ATOM     14  C   UNL     1      34.924 -23.714 -16.188  0.00  0.00    +0.119 C 
ATOM     15  H   UNL     1      33.704 -23.888 -14.526  0.00  0.00    +0.144 HD
ATOM     16  H   UNL     1      33.690 -22.344 -15.249  0.00  0.00    +0.144 HD
ATOM     17  H   UNL     1      35.027 -25.564 -15.424  0.00  0.00    +0.188 HD
ENDBRANCH   9  14
BRANCH   3  20
ATOM     18  C   UNL     1      35.369 -17.276 -23.350  0.00  0.00    +0.172 C 
ATOM     19  C   UNL     1      35.451 -18.026 -22.180  0.00  0.00    +0.169 C 
ATOM     20  C   UNL     1      35.293 -19.411 -22.233  0.00  0.00    +0.050 C 
ATOM     21  C   UNL     1      35.132 -17.898 -24.571  0.00  0.00    +0.040 C 
ATOM     22  C   UNL     1      35.054 -20.039 -23.454  0.00  0.00    +0.004 C 
ATOM     23  C   UNL     1      34.973 -19.284 -24.624  0.00  0.00    +0.003 C 
BRANCH  19  24
ATOM     24  O   UNL     1      35.686 -17.396 -20.991  0.00  0.00    -0.503 OA
ATOM     25  H   UNL     1      35.778 -16.465 -20.965  0.00  0.00    +0.292 HD
ENDBRANCH  19  24
BRANCH  18  26
ATOM     26  O   UNL     1      35.523 -15.916 -23.313  0.00  0.00    -0.476 OA
BRANCH  26  28
ATOM     27  C   UNL     1      34.165 -14.101 -24.157  0.00  0.00    +0.040 C 
ATOM     28  C   UNL     1      34.352 -15.149 -23.046  0.00  0.00    +0.166 C 
ATOM     29  C   UNL     1      32.993 -13.164 -23.834  0.00  0.00    +0.004 C 
ATOM     30  C   UNL     1      34.494 -14.491 -21.672  0.00  0.00    +0.044 C 
ATOM     31  C   UNL     1      33.145 -12.517 -22.461  0.00  0.00    +0.000 C 
ATOM     32  C   UNL     1      33.328 -13.560 -21.364  0.00  0.00    +0.004 C 
ATOM     33  C   UNL     1      33.956 -14.765 -25.521  0.00  0.00    +0.004 C 
ENDBRANCH  26  28
ENDBRANCH  18  26
ENDBRANCH   3  20
TORSDOF 5
ENDMDL
MODEL 2
REMARK VINA RESULT:     -11.1      3.872      9.988
REMARK  Name = 445849
REMARK  5 active torsions:
REMARK  status: ('A' for Active; 'I' for Inactive)
REMARK    1  A    between atoms: C_3  and  C_20
REMARK    2  A    between atoms: C_9  and  C_14
REMARK    3  A    between atoms: C_18  and  O_26
REMARK    4  A    between atoms: C_19  and  O_24
REMARK    5  A    between atoms: O_26  and  C_28
REMARK                            x       y       z     vdW  Elec       q    Type
REMARK                         _______ _______ _______ _____ _____    ______ ____
ROOT
ATOM      1  F   UNL     1      37.724 -18.105 -23.175  0.00  0.00    -0.204 F 
ATOM      2  N   UNL     1      36.485 -20.999 -19.465  0.00  0.00    -0.312 N 
ATOM      3  C   UNL     1      35.291 -21.574 -19.125  0.00  0.00    +0.051 C 
ATOM      4  C   UNL     1      35.009 -20.364 -21.012  0.00  0.00    +0.015 C 
ATOM      5  C   UNL     1      36.343 -20.253 -20.613  0.00  0.00    +0.051 C 
ATOM      6  C   UNL     1      34.358 -21.201 -20.063  0.00  0.00    +0.016 C 
ATOM      7  C   UNL     1      34.591 -19.689 -22.176  0.00  0.00    +0.006 C 
ATOM      8  C   UNL     1      37.283 -19.498 -21.323  0.00  0.00    +0.044 C 
ATOM      9  C   UNL     1      35.520 -18.929 -22.895  0.00  0.00    +0.058 C 
ATOM     10  C   UNL     1      36.845 -18.837 -22.474  0.00  0.00    +0.144 C 
ATOM     11  H   UNL     1      37.325 -21.102 -18.960  0.00  0.00    +0.152 HD
ENDROOT
BRANCH   9  14
ATOM     12  N   UNL     1      35.451 -16.905 -24.332  0.00  0.00    -0.343 N 
ATOM     13  N   UNL     1      34.337 -18.853 -24.987  0.00  0.00    -0.285 NA
ATOM     14  C   UNL     1      35.090 -18.230 -24.097  0.00  0.00    +0.119 C 
ATOM     15  H   UNL     1      35.149 -16.451 -25.152  0.00  0.00    +0.144 HD
ATOM     16  H   UNL     1      36.009 -16.423 -23.680  0.00  0.00    +0.144 HD
ATOM     17  H   UNL     1      34.045 -18.382 -25.800  0.00  0.00    +0.188 HD
ENDBRANCH   9  14
BRANCH   3  20
ATOM     18  C   UNL     1      35.977 -23.258 -15.857  0.00  0.00    +0.172 C 
ATOM     19  C   UNL     1      36.137 -22.441 -16.972  0.00  0.00    +0.169 C 
ATOM     20  C   UNL     1      35.150 -22.412 -17.957  0.00  0.00    +0.050 C 
ATOM     21  C   UNL     1      34.839 -24.045 -15.717  0.00  0.00    +0.040 C 
ATOM     22  C   UNL     1      34.008 -23.200 -17.822  0.00  0.00    +0.004 C 
ATOM     23  C   UNL     1      33.851 -24.017 -16.702  0.00  0.00    +0.003 C 
BRANCH  19  24
ATOM     24  O   UNL     1      37.261 -21.675 -17.090  0.00  0.00    -0.503 OA
ATOM     25  H   UNL     1      37.474 -21.277 -17.911  0.00  0.00    +0.292 HD
ENDBRANCH  19  24
BRANCH  18  26
ATOM     26  O   UNL     1      36.938 -23.296 -14.882  0.00  0.00    -0.476 OA
BRANCH  26  28
ATOM     27  C   UNL     1      38.004 -24.858 -13.374  0.00  0.00    +0.040 C 
ATOM     28  C   UNL     1      37.758 -24.460 -14.840  0.00  0.00    +0.166 C 
ATOM     29  C   UNL     1      38.996 -26.026 -13.283  0.00  0.00    +0.004 C 
ATOM     30  C   UNL     1      39.071 -24.168 -15.570  0.00  0.00    +0.044 C 
ATOM     31  C   UNL     1      40.299 -25.723 -14.017  0.00  0.00    +0.000 C 
ATOM     32  C   UNL     1      40.049 -25.332 -15.469  0.00  0.00    +0.004 C 
ATOM     33  C   UNL     1      36.695 -25.215 -12.665  0.00  0.00    +0.004 C 
ENDBRANCH  26  28
ENDBRANCH  18  26
ENDBRANCH   3  20
TORSDOF 5
ENDMDL
MODEL 3
REMARK VINA RESULT:     -10.9      2.424      4.376
REMARK  Name = 445849
REMARK  5 active torsions:
REMARK  status: ('A' for Active; 'I' for Inactive)
REMARK    1  A    between atoms: C_3  and  C_20
REMARK    2  A    between atoms: C_9  and  C_14
REMARK    3  A    between atoms: C_18  and  O_26
REMARK    4  A    between atoms: C_19  and  O_24
REMARK    5  A    between atoms: O_26  and  C_28
REMARK                            x       y       z     vdW  Elec       q    Type
REMARK                         _______ _______ _______ _____ _____    ______ ____
ROOT
ATOM      1  F   UNL     1      36.010 -25.445 -12.873  0.00  0.00    -0.204 F 
ATOM      2  N   UNL     1      34.807 -23.033 -16.924  0.00  0.00    -0.312 N 
ATOM      3  C   UNL     1      35.571 -22.349 -17.830  0.00  0.00    +0.051 C 
ATOM      4  C   UNL     1      36.919 -23.184 -16.222  0.00  0.00    +0.015 C 
ATOM      5  C   UNL     1      35.605 -23.554 -15.929  0.00  0.00    +0.051 C 
ATOM      6  C   UNL     1      36.881 -22.425 -17.424  0.00  0.00    +0.016 C 
ATOM      7  C   UNL     1      37.948 -23.596 -15.352  0.00  0.00    +0.006 C 
ATOM      8  C   UNL     1      35.266 -24.317 -14.806  0.00  0.00    +0.044 C 
ATOM      9  C   UNL     1      37.625 -24.359 -14.225  0.00  0.00    +0.058 C 
ATOM     10  C   UNL     1      36.304 -24.713 -13.957  0.00  0.00    +0.144 C 
ATOM     11  H   UNL     1      33.829 -23.136 -16.974  0.00  0.00    +0.152 HD
ENDROOT
BRANCH   9  14
ATOM     12  N   UNL     1      39.369 -25.982 -13.523  0.00  0.00    -0.343 N 
ATOM     13  N   UNL     1      39.012 -24.028 -12.290  0.00  0.00    -0.285 NA
ATOM     14  C   UNL     1      38.686 -24.783 -13.324  0.00  0.00    +0.119 C 
ATOM     15  H   UNL     1      40.084 -26.250 -12.901  0.00  0.00    +0.144 HD
ATOM     16  H   UNL     1      39.138 -26.559 -14.285  0.00  0.00    +0.144 HD
ATOM     17  H   UNL     1      39.730 -24.313 -11.679  0.00  0.00    +0.188 HD
ENDBRANCH   9  14
BRANCH   3  20
ATOM     18  C   UNL     1      35.184 -20.271 -20.916  0.00  0.00    +0.172 C 
ATOM     19  C   UNL     1      35.767 -20.889 -19.814  0.00  0.00    +0.169 C 
ATOM     20  C   UNL     1      34.991 -21.696 -18.981  0.00  0.00    +0.050 C 
ATOM     21  C   UNL     1      33.832 -20.452 -21.193  0.00  0.00    +0.040 C 
ATOM     22  C   UNL     1      33.636 -21.879 -19.253  0.00  0.00    +0.004 C 
ATOM     23  C   UNL     1      33.055 -21.258 -20.359  0.00  0.00    +0.003 C 
BRANCH  19  24
ATOM     24  O   UNL     1      37.095 -20.701 -19.560  0.00  0.00    -0.503 OA
ATOM     25  H   UNL     1      37.438 -19.832 -19.479  0.00  0.00    +0.292 HD
ENDBRANCH  19  24
BRANCH  18  26
ATOM     26  O   UNL     1      35.933 -19.478 -21.743  0.00  0.00    -0.476 OA
BRANCH  26  28
ATOM     27  C   UNL     1      35.611 -18.418 -23.893  0.00  0.00    +0.040 C 
ATOM     28  C   UNL     1      35.249 -18.413 -22.398  0.00  0.00    +0.166 C 
ATOM     29  C   UNL     1      35.003 -17.203 -24.608  0.00  0.00    +0.004 C 
ATOM     30  C   UNL     1      35.636 -17.091 -21.731  0.00  0.00    +0.044 C 
ATOM     31  C   UNL     1      35.394 -15.892 -23.932  0.00  0.00    +0.000 C 
ATOM     32  C   UNL     1      35.031 -15.893 -22.451  0.00  0.00    +0.004 C 
ATOM     33  C   UNL     1      35.162 -19.715 -24.572  0.00  0.00    +0.004 C 
ENDBRANCH  26  28
ENDBRANCH  18  26
ENDBRANCH   3  20
TORSDOF 5
ENDMDL
MODEL 4
REMARK VINA RESULT:     -10.4      4.609      8.010
REMARK  Name = 445849
REMARK  5 active torsions:
REMARK  status: ('A' for Active; 'I' for Inactive)
REMARK    1  A    between atoms: C_3  and  C_20
REMARK    2  A    between atoms: C_9  and  C_14
REMARK    3  A    between atoms: C_18  and  O_26
REMARK    4  A    between atoms: C_19  and  O_24
REMARK    5  A    between atoms: O_26  and  C_28
REMARK                            x       y       z     vdW  Elec       q    Type
REMARK                         _______ _______ _______ _____ _____    ______ ____
ROOT
ATOM      1  F   UNL     1      35.709 -17.783 -24.829  0.00  0.00    -0.204 F 
ATOM      2  N   UNL     1      33.551 -13.864 -22.916  0.00  0.00    -0.312 N 
ATOM      3  C   UNL     1      33.419 -13.446 -21.620  0.00  0.00    +0.051 C 
ATOM      4  C   UNL     1      34.571 -15.388 -21.647  0.00  0.00    +0.015 C 
ATOM      5  C   UNL     1      34.251 -15.049 -22.963  0.00  0.00    +0.051 C 
ATOM      6  C   UNL     1      34.040 -14.367 -20.811  0.00  0.00    +0.016 C 
ATOM      7  C   UNL     1      35.297 -16.572 -21.410  0.00  0.00    +0.006 C 
ATOM      8  C   UNL     1      34.621 -15.838 -24.059  0.00  0.00    +0.044 C 
ATOM      9  C   UNL     1      35.674 -17.371 -22.496  0.00  0.00    +0.058 C 
ATOM     10  C   UNL     1      35.340 -17.007 -23.799  0.00  0.00    +0.144 C 
ATOM     11  H   UNL     1      33.196 -13.387 -23.702  0.00  0.00    +0.152 HD
ENDROOT
BRANCH   9  14
ATOM     12  N   UNL     1      37.796 -18.660 -22.476  0.00  0.00    -0.343 N 
ATOM     13  N   UNL     1      35.795 -19.674 -21.819  0.00  0.00    -0.285 NA
ATOM     14  C   UNL     1      36.422 -18.595 -22.253  0.00  0.00    +0.119 C 
ATOM     15  H   UNL     1      38.283 -19.499 -22.306  0.00  0.00    +0.144 HD
ATOM     16  H   UNL     1      38.280 -17.868 -22.803  0.00  0.00    +0.144 HD
ATOM     17  H   UNL     1      36.300 -20.504 -21.655  0.00  0.00    +0.188 HD
ENDBRANCH   9  14
BRANCH   3  20
ATOM     18  C   UNL     1      31.873 -10.049 -21.862  0.00  0.00    +0.172 C 
ATOM     19  C   UNL     1      32.546 -11.213 -22.219  0.00  0.00    +0.169 C 
ATOM     20  C   UNL     1      32.724 -12.227 -21.277  0.00  0.00    +0.050 C 
ATOM     21  C   UNL     1      31.377  -9.888 -20.572  0.00  0.00    +0.040 C 
ATOM     22  C   UNL     1      32.229 -12.070 -19.983  0.00  0.00    +0.004 C 
ATOM     23  C   UNL     1      31.555 -10.901 -19.629  0.00  0.00    +0.003 C 
BRANCH  19  24
ATOM     24  O   UNL     1      33.024 -11.352 -23.490  0.00  0.00    -0.503 OA
ATOM     25  H   UNL     1      33.867 -11.010 -23.714  0.00  0.00    +0.292 HD
ENDBRANCH  19  24
BRANCH  18  26
ATOM     26  O   UNL     1      31.690  -9.046 -22.776  0.00  0.00    -0.476 OA
BRANCH  26  28
ATOM     27  C   UNL     1      31.947  -6.697 -23.295  0.00  0.00    +0.040 C 
ATOM     28  C   UNL     1      32.615  -7.963 -22.729  0.00  0.00    +0.166 C 
ATOM     29  C   UNL     1      32.954  -5.543 -23.389  0.00  0.00    +0.004 C 
ATOM     30  C   UNL     1      33.864  -8.343 -23.527  0.00  0.00    +0.044 C 
ATOM     31  C   UNL     1      34.196  -5.936 -24.185  0.00  0.00    +0.000 C 
ATOM     32  C   UNL     1      34.854  -7.189 -23.618  0.00  0.00    +0.004 C 
ATOM     33  C   UNL     1      30.737  -6.281 -22.454  0.00  0.00    +0.004 C 
ENDBRANCH  26  28
ENDBRANCH  18  26
ENDBRANCH   3  20
TORSDOF 5
ENDMDL
MODEL 5
REMARK VINA RESULT:     -10.3      8.400     13.607
REMARK  Name = 445849
REMARK  5 active torsions:
REMARK  status: ('A' for Active; 'I' for Inactive)
REMARK    1  A    between atoms: C_3  and  C_20
REMARK    2  A    between atoms: C_9  and  C_14
REMARK    3  A    between atoms: C_18  and  O_26
REMARK    4  A    between atoms: C_19  and  O_24
REMARK    5  A    between atoms: O_26  and  C_28
REMARK                            x       y       z     vdW  Elec       q    Type
REMARK                         _______ _______ _______ _____ _____    ______ ____
ROOT
ATOM      1  F   UNL     1      33.208  -4.010 -25.578  0.00  0.00    -0.204 F 
ATOM      2  N   UNL     1      32.799  -8.057 -22.906  0.00  0.00    -0.312 N 
ATOM      3  C   UNL     1      32.071  -8.328 -21.781  0.00  0.00    +0.051 C 
ATOM      4  C   UNL     1      31.695  -6.188 -22.396  0.00  0.00    +0.015 C 
ATOM      5  C   UNL     1      32.590  -6.756 -23.305  0.00  0.00    +0.051 C 
ATOM      6  C   UNL     1      31.376  -7.192 -21.440  0.00  0.00    +0.016 C 
ATOM      7  C   UNL     1      31.306  -4.845 -22.576  0.00  0.00    +0.006 C 
ATOM      8  C   UNL     1      33.118  -6.046 -24.389  0.00  0.00    +0.044 C 
ATOM      9  C   UNL     1      31.827  -4.123 -23.656  0.00  0.00    +0.058 C 
ATOM     10  C   UNL     1      32.719  -4.716 -24.547  0.00  0.00    +0.144 C 
ATOM     11  H   UNL     1      33.390  -8.699 -23.365  0.00  0.00    +0.152 HD
ENDROOT
BRANCH   9  14
ATOM     12  N   UNL     1      30.457  -2.381 -24.777  0.00  0.00    -0.343 N 
ATOM     13  N   UNL     1      31.997  -1.786 -23.122  0.00  0.00    -0.285 NA
ATOM     14  C   UNL     1      31.428  -2.736 -23.843  0.00  0.00    +0.119 C 
ATOM     15  H   UNL     1      30.202  -1.437 -24.888  0.00  0.00    +0.144 HD
ATOM     16  H   UNL     1      30.024  -3.075 -25.325  0.00  0.00    +0.144 HD
ATOM     17  H   UNL     1      31.729  -0.846 -23.248  0.00  0.00    +0.188 HD
ENDBRANCH   9  14
BRANCH   3  20
ATOM     18  C   UNL     1      32.228 -12.029 -21.259  0.00  0.00    +0.172 C 
ATOM     19  C   UNL     1      32.200 -10.793 -21.898  0.00  0.00    +0.169 C 
ATOM     20  C   UNL     1      32.102  -9.624 -21.143  0.00  0.00    +0.050 C 
ATOM     21  C   UNL     1      32.159 -12.107 -19.871  0.00  0.00    +0.040 C 
ATOM     22  C   UNL     1      32.031  -9.697 -19.752  0.00  0.00    +0.004 C 
ATOM     23  C   UNL     1      32.060 -10.938 -19.115  0.00  0.00    +0.003 C 
BRANCH  19  24
ATOM     24  O   UNL     1      32.271 -10.738 -23.261  0.00  0.00    -0.503 OA
ATOM     25  H   UNL     1      32.859 -11.302 -23.723  0.00  0.00    +0.292 HD
ENDBRANCH  19  24
BRANCH  18  26
ATOM     26  O   UNL     1      32.325 -13.184 -21.987  0.00  0.00    -0.476 OA
BRANCH  26  28
ATOM     27  C   UNL     1      33.841 -14.405 -23.424  0.00  0.00    +0.040 C 
ATOM     28  C   UNL     1      33.605 -13.810 -22.024  0.00  0.00    +0.166 C 
ATOM     29  C   UNL     1      35.149 -15.207 -23.464  0.00  0.00    +0.004 C 
ATOM     30  C   UNL     1      33.661 -14.887 -20.939  0.00  0.00    +0.044 C 
ATOM     31  C   UNL     1      35.194 -16.276 -22.376  0.00  0.00    +0.000 C 
ATOM     32  C   UNL     1      34.961 -15.679 -20.992  0.00  0.00    +0.004 C 
ATOM     33  C   UNL     1      33.851 -13.315 -24.499  0.00  0.00    +0.004 C 
ENDBRANCH  26  28
ENDBRANCH  18  26
ENDBRANCH   3  20
TORSDOF 5
ENDMDL
MODEL 6
REMARK VINA RESULT:     -10.3      3.902      9.591
REMARK  Name = 445849
REMARK  5 active torsions:
REMARK  status: ('A' for Active; 'I' for Inactive)
REMARK    1  A    between atoms: C_3  and  C_20
REMARK    2  A    between atoms: C_9  and  C_14
REMARK    3  A    between atoms: C_18  and  O_26
REMARK    4  A    between atoms: C_19  and  O_24
REMARK    5  A    between atoms: O_26  and  C_28
REMARK                            x       y       z     vdW  Elec       q    Type
REMARK                         _______ _______ _______ _____ _____    ______ ____
ROOT
ATOM      1  F   UNL     1      37.675 -18.302 -22.958  0.00  0.00    -0.204 F 
ATOM      2  N   UNL     1      35.567 -21.085 -19.568  0.00  0.00    -0.312 N 
ATOM      3  C   UNL     1      34.271 -21.495 -19.412  0.00  0.00    +0.051 C 
ATOM      4  C   UNL     1      34.412 -20.211 -21.265  0.00  0.00    +0.015 C 
ATOM      5  C   UNL     1      35.683 -20.298 -20.692  0.00  0.00    +0.051 C 
ATOM      6  C   UNL     1      33.532 -20.972 -20.446  0.00  0.00    +0.016 C 
ATOM      7  C   UNL     1      34.250 -19.456 -22.444  0.00  0.00    +0.006 C 
ATOM      8  C   UNL     1      36.804 -19.664 -21.241  0.00  0.00    +0.044 C 
ATOM      9  C   UNL     1      35.362 -18.816 -23.003  0.00  0.00    +0.058 C 
ATOM     10  C   UNL     1      36.618 -18.920 -22.409  0.00  0.00    +0.144 C 
ATOM     11  H   UNL     1      36.309 -21.317 -18.963  0.00  0.00    +0.152 HD
ENDROOT
BRANCH   9  14
ATOM     12  N   UNL     1      35.771 -16.772 -24.352  0.00  0.00    -0.343 N 
ATOM     13  N   UNL     1      34.484 -18.519 -25.221  0.00  0.00    -0.285 NA
ATOM     14  C   UNL     1      35.197 -18.034 -24.219  0.00  0.00    +0.119 C 
ATOM     15  H   UNL     1      35.647 -16.260 -25.184  0.00  0.00    +0.144 HD
ATOM     16  H   UNL     1      36.302 -16.393 -23.616  0.00  0.00    +0.144 HD
ATOM     17  H   UNL     1      34.370 -17.992 -26.044  0.00  0.00    +0.188 HD
ENDBRANCH   9  14
BRANCH   3  20
ATOM     18  C   UNL     1      34.379 -23.856 -16.513  0.00  0.00    +0.172 C 
ATOM     19  C   UNL     1      34.800 -23.055 -17.571  0.00  0.00    +0.169 C 
ATOM     20  C   UNL     1      33.861 -22.333 -18.309  0.00  0.00    +0.050 C 
ATOM     21  C   UNL     1      33.029 -23.942 -16.188  0.00  0.00    +0.040 C 
ATOM     22  C   UNL     1      32.507 -22.417 -17.987  0.00  0.00    +0.004 C 
ATOM     23  C   UNL     1      32.090 -23.221 -16.926  0.00  0.00    +0.003 C 
BRANCH  19  24
ATOM     24  O   UNL     1      36.129 -22.983 -17.874  0.00  0.00    -0.503 OA
ATOM     25  H   UNL     1      36.580 -22.164 -17.815  0.00  0.00    +0.292 HD
ENDBRANCH  19  24
BRANCH  18  26
ATOM     26  O   UNL     1      35.288 -24.570 -15.780  0.00  0.00    -0.476 OA
BRANCH  26  28
ATOM     27  C   UNL     1      37.244 -24.272 -14.387  0.00  0.00    +0.040 C 
ATOM     28  C   UNL     1      35.747 -23.969 -14.572  0.00  0.00    +0.166 C 
ATOM     29  C   UNL     1      37.743 -23.759 -13.030  0.00  0.00    +0.004 C 
ATOM     30  C   UNL     1      34.916 -24.507 -13.405  0.00  0.00    +0.044 C 
ATOM     31  C   UNL     1      36.905 -24.301 -11.875  0.00  0.00    +0.000 C 
ATOM     32  C   UNL     1      35.424 -23.995 -12.062  0.00  0.00    +0.004 C 
ATOM     33  C   UNL     1      38.079 -23.674 -15.522  0.00  0.00    +0.004 C 
ENDBRANCH  26  28
ENDBRANCH  18  26
ENDBRANCH   3  20
TORSDOF 5
ENDMDL
MODEL 7
REMARK VINA RESULT:     -10.2      8.399     13.631
REMARK  Name = 445849
REMARK  5 active torsions:
REMARK  status: ('A' for Active; 'I' for Inactive)
REMARK    1  A    between atoms: C_3  and  C_20
REMARK    2  A    between atoms: C_9  and  C_14
REMARK    3  A    between atoms: C_18  and  O_26
REMARK    4  A    between atoms: C_19  and  O_24
REMARK    5  A    between atoms: O_26  and  C_28
REMARK                            x       y       z     vdW  Elec       q    Type
REMARK                         _______ _______ _______ _____ _____    ______ ____
ROOT
ATOM      1  F   UNL     1      33.370  -3.431 -25.660  0.00  0.00    -0.204 F 
ATOM      2  N   UNL     1      33.009  -8.016 -24.071  0.00  0.00    -0.312 N 
ATOM      3  C   UNL     1      32.185  -8.589 -23.141  0.00  0.00    +0.051 C 
ATOM      4  C   UNL     1      31.702  -6.388 -23.287  0.00  0.00    +0.015 C 
ATOM      5  C   UNL     1      32.737  -6.671 -24.181  0.00  0.00    +0.051 C 
ATOM      6  C   UNL     1      31.364  -7.608 -22.639  0.00  0.00    +0.016 C 
ATOM      7  C   UNL     1      31.224  -5.065 -23.201  0.00  0.00    +0.006 C 
ATOM      8  C   UNL     1      33.321  -5.694 -24.995  0.00  0.00    +0.044 C 
ATOM      9  C   UNL     1      31.799  -4.078 -24.009  0.00  0.00    +0.058 C 
ATOM     10  C   UNL     1      32.831  -4.389 -24.892  0.00  0.00    +0.144 C 
ATOM     11  H   UNL     1      33.699  -8.496 -24.586  0.00  0.00    +0.152 HD
ENDROOT
BRANCH   9  14
ATOM     12  N   UNL     1      31.823  -1.815 -22.986  0.00  0.00    -0.343 N 
ATOM     13  N   UNL     1      30.350  -2.302 -24.734  0.00  0.00    -0.285 NA
ATOM     14  C   UNL     1      31.308  -2.710 -23.920  0.00  0.00    +0.119 C 
ATOM     15  H   UNL     1      31.477  -0.894 -22.943  0.00  0.00    +0.144 HD
ATOM     16  H   UNL     1      32.535  -2.102 -22.369  0.00  0.00    +0.144 HD
ATOM     17  H   UNL     1      30.016  -1.377 -24.676  0.00  0.00    +0.188 HD
ENDBRANCH   9  14
BRANCH   3  20
ATOM     18  C   UNL     1      33.342 -12.142 -22.973  0.00  0.00    +0.172 C 
ATOM     19  C   UNL     1      33.299 -10.789 -23.296  0.00  0.00    +0.169 C 
ATOM     20  C   UNL     1      32.254  -9.996 -22.821  0.00  0.00    +0.050 C 
ATOM     21  C   UNL     1      32.350 -12.710 -22.180  0.00  0.00    +0.040 C 
ATOM     22  C   UNL     1      31.257 -10.561 -22.026  0.00  0.00    +0.004 C 
ATOM     23  C   UNL     1      31.304 -11.917 -21.705  0.00  0.00    +0.003 C 
BRANCH  19  24
ATOM     24  O   UNL     1      34.283 -10.251 -24.075  0.00  0.00    -0.503 OA
ATOM     25  H   UNL     1      34.070  -9.608 -24.722  0.00  0.00    +0.292 HD
ENDBRANCH  19  24
BRANCH  18  26
ATOM     26  O   UNL     1      34.362 -12.932 -23.432  0.00  0.00    -0.476 OA
BRANCH  26  28
ATOM     27  C   UNL     1      35.030 -15.254 -23.554  0.00  0.00    +0.040 C 
ATOM     28  C   UNL     1      33.995 -14.197 -23.976  0.00  0.00    +0.166 C 
ATOM     29  C   UNL     1      34.745 -16.601 -24.232  0.00  0.00    +0.004 C 
ATOM     30  C   UNL     1      33.907 -14.074 -25.499  0.00  0.00    +0.044 C 
ATOM     31  C   UNL     1      34.657 -16.464 -25.750  0.00  0.00    +0.000 C 
ATOM     32  C   UNL     1      33.629 -15.417 -26.162  0.00  0.00    +0.004 C 
ATOM     33  C   UNL     1      35.067 -15.422 -22.032  0.00  0.00    +0.004 C 
ENDBRANCH  26  28
ENDBRANCH  18  26
ENDBRANCH   3  20
TORSDOF 5
ENDMDL
MODEL 8
REMARK VINA RESULT:     -10.2      5.105      9.747
REMARK  Name = 445849
REMARK  5 active torsions:
REMARK  status: ('A' for Active; 'I' for Inactive)
REMARK    1  A    between atoms: C_3  and  C_20
REMARK    2  A    between atoms: C_9  and  C_14
REMARK    3  A    between atoms: C_18  and  O_26
REMARK    4  A    between atoms: C_19  and  O_24
REMARK    5  A    between atoms: O_26  and  C_28
REMARK                            x       y       z     vdW  Elec       q    Type
REMARK                         _______ _______ _______ _____ _____    ______ ____
ROOT
ATOM      1  F   UNL     1      31.179  -9.912 -20.159  0.00  0.00    -0.204 F 
ATOM      2  N   UNL     1      33.030 -13.797 -22.431  0.00  0.00    -0.312 N 
ATOM      3  C   UNL     1      33.721 -13.913 -23.606  0.00  0.00    +0.051 C 
ATOM      4  C   UNL     1      33.221 -11.737 -23.266  0.00  0.00    +0.015 C 
ATOM      5  C   UNL     1      32.710 -12.478 -22.198  0.00  0.00    +0.051 C 
ATOM      6  C   UNL     1      33.857 -12.657 -24.146  0.00  0.00    +0.016 C 
ATOM      7  C   UNL     1      33.032 -10.341 -23.275  0.00  0.00    +0.006 C 
ATOM      8  C   UNL     1      32.016 -11.890 -21.134  0.00  0.00    +0.044 C 
ATOM      9  C   UNL     1      32.339  -9.739 -22.218  0.00  0.00    +0.058 C 
ATOM     10  C   UNL     1      31.840 -10.504 -21.165  0.00  0.00    +0.144 C 
ATOM     11  H   UNL     1      32.793 -14.547 -21.839  0.00  0.00    +0.152 HD
ENDROOT
BRANCH   9  14
ATOM     12  N   UNL     1      32.855  -7.463 -21.368  0.00  0.00    -0.343 N 
ATOM     13  N   UNL     1      31.263  -7.759 -23.054  0.00  0.00    -0.285 NA
ATOM     14  C   UNL     1      32.141  -8.298 -22.225  0.00  0.00    +0.119 C 
ATOM     15  H   UNL     1      32.705  -6.491 -21.390  0.00  0.00    +0.144 HD
ATOM     16  H   UNL     1      33.511  -7.847 -20.742  0.00  0.00    +0.144 HD
ATOM     17  H   UNL     1      31.127  -6.784 -23.060  0.00  0.00    +0.188 HD
ENDBRANCH   9  14
BRANCH   3  20
ATOM     18  C   UNL     1      35.413 -17.243 -23.808  0.00  0.00    +0.172 C 
ATOM     19  C   UNL     1      34.982 -16.017 -23.309  0.00  0.00    +0.169 C 
ATOM     20  C   UNL     1      34.183 -15.190 -24.099  0.00  0.00    +0.050 C 
ATOM     21  C   UNL     1      35.053 -17.649 -25.089  0.00  0.00    +0.040 C 
ATOM     22  C   UNL     1      33.819 -15.593 -25.383  0.00  0.00    +0.004 C 
ATOM     23  C   UNL     1      34.253 -16.822 -25.879  0.00  0.00    +0.003 C 
BRANCH  19  24
ATOM     24  O   UNL     1      35.346 -15.637 -22.049  0.00  0.00    -0.503 OA
ATOM     25  H   UNL     1      34.690 -15.407 -21.421  0.00  0.00    +0.292 HD
ENDBRANCH  19  24
BRANCH  18  26
ATOM     26  O   UNL     1      36.198 -18.065 -23.044  0.00  0.00    -0.476 OA
BRANCH  26  28
ATOM     27  C   UNL     1      36.573 -19.640 -21.247  0.00  0.00    +0.040 C 
ATOM     28  C   UNL     1      35.565 -18.705 -21.939  0.00  0.00    +0.166 C 
ATOM     29  C   UNL     1      35.892 -20.452 -20.136  0.00  0.00    +0.004 C 
ATOM     30  C   UNL     1      34.343 -19.473 -22.445  0.00  0.00    +0.044 C 
ATOM     31  C   UNL     1      34.673 -21.211 -20.653  0.00  0.00    +0.000 C 
ATOM     32  C   UNL     1      33.679 -20.279 -21.336  0.00  0.00    +0.004 C 
ATOM     33  C   UNL     1      37.763 -18.859 -20.683  0.00  0.00    +0.004 C 
ENDBRANCH  26  28
ENDBRANCH  18  26
ENDBRANCH   3  20
TORSDOF 5
ENDMDL
MODEL 9
REMARK VINA RESULT:      -9.9      5.045      9.898
REMARK  Name = 445849
REMARK  5 active torsions:
REMARK  status: ('A' for Active; 'I' for Inactive)
REMARK    1  A    between atoms: C_3  and  C_20
REMARK    2  A    between atoms: C_9  and  C_14
REMARK    3  A    between atoms: C_18  and  O_26
REMARK    4  A    between atoms: C_19  and  O_24
REMARK    5  A    between atoms: O_26  and  C_28
REMARK                            x       y       z     vdW  Elec       q    Type
REMARK                         _______ _______ _______ _____ _____    ______ ____
ROOT
ATOM      1  F   UNL     1      31.310  -9.674 -21.497  0.00  0.00    -0.204 F 
ATOM      2  N   UNL     1      33.350 -14.025 -22.263  0.00  0.00    -0.312 N 
ATOM      3  C   UNL     1      34.266 -14.444 -23.189  0.00  0.00    +0.051 C 
ATOM      4  C   UNL     1      33.844 -12.250 -23.521  0.00  0.00    +0.015 C 
ATOM      5  C   UNL     1      33.073 -12.688 -22.443  0.00  0.00    +0.051 C 
ATOM      6  C   UNL     1      34.592 -13.370 -23.981  0.00  0.00    +0.016 C 
ATOM      7  C   UNL     1      33.749 -10.902 -23.919  0.00  0.00    +0.006 C 
ATOM      8  C   UNL     1      32.208 -11.842 -21.739  0.00  0.00    +0.044 C 
ATOM      9  C   UNL     1      32.888 -10.045 -23.226  0.00  0.00    +0.058 C 
ATOM     10  C   UNL     1      32.130 -10.509 -22.153  0.00  0.00    +0.144 C 
ATOM     11  H   UNL     1      32.947 -14.596 -21.569  0.00  0.00    +0.152 HD
ENDROOT
BRANCH   9  14
ATOM     12  N   UNL     1      31.580  -8.111 -24.072  0.00  0.00    -0.343 N 
ATOM     13  N   UNL     1      33.858  -7.878 -23.604  0.00  0.00    -0.285 NA
ATOM     14  C   UNL     1      32.787  -8.652 -23.636  0.00  0.00    +0.119 C 
ATOM     15  H   UNL     1      31.534  -7.166 -24.345  0.00  0.00    +0.144 HD
ATOM     16  H   UNL     1      30.772  -8.672 -24.106  0.00  0.00    +0.144 HD
ATOM     17  H   UNL     1      33.793  -6.935 -23.881  0.00  0.00    +0.188 HD
ENDBRANCH   9  14
BRANCH   3  20
ATOM     18  C   UNL     1      35.491 -17.816 -22.130  0.00  0.00    +0.172 C 
ATOM     19  C   UNL     1      35.036 -16.503 -22.060  0.00  0.00    +0.169 C 
ATOM     20  C   UNL     1      34.740 -15.808 -23.233  0.00  0.00    +0.050 C 
ATOM     21  C   UNL     1      35.652 -18.442 -23.363  0.00  0.00    +0.040 C 
ATOM     22  C   UNL     1      34.900 -16.431 -24.471  0.00  0.00    +0.004 C 
ATOM     23  C   UNL     1      35.356 -17.747 -24.536  0.00  0.00    +0.003 C 
BRANCH  19  24
ATOM     24  O   UNL     1      34.884 -15.907 -20.841  0.00  0.00    -0.503 OA
ATOM     25  H   UNL     1      34.025 -15.743 -20.504  0.00  0.00    +0.292 HD
ENDBRANCH  19  24
BRANCH  18  26
ATOM     26  O   UNL     1      35.785 -18.510 -20.987  0.00  0.00    -0.476 OA
BRANCH  26  28
ATOM     27  C   UNL     1      34.202 -20.264 -20.470  0.00  0.00    +0.040 C 
ATOM     28  C   UNL     1      35.594 -19.922 -21.030  0.00  0.00    +0.166 C 
ATOM     29  C   UNL     1      34.011 -21.784 -20.371  0.00  0.00    +0.004 C 
ATOM     30  C   UNL     1      36.706 -20.597 -20.225  0.00  0.00    +0.044 C 
ATOM     31  C   UNL     1      35.127 -22.446 -19.568  0.00  0.00    +0.000 C 
ATOM     32  C   UNL     1      36.503 -22.104 -20.129  0.00  0.00    +0.004 C 
ATOM     33  C   UNL     1      33.090 -19.642 -21.318  0.00  0.00    +0.004 C 
ENDBRANCH  26  28
ENDBRANCH  18  26
ENDBRANCH   3  20
TORSDOF 5
ENDMDL
