MODEL 1
REMARK VINA RESULT:     -11.5      0.000      0.000
REMARK  Name = 11610526
REMARK  3 active torsions:
REMARK  status: ('A' for Active; 'I' for Inactive)
REMARK    1  A    between atoms: C_2  and  C_21
REMARK    2  A    between atoms: C_9  and  C_14
REMARK    3  A    between atoms: C_21  and  C_23
REMARK                            x       y       z     vdW  Elec       q    Type
REMARK                         _______ _______ _______ _____ _____    ______ ____
ROOT
ATOM      1  N   UNL     1      35.287 -16.796 -22.524  0.00  0.00    -0.388 NA
ATOM      2  C   UNL     1      35.672 -18.043 -22.805  0.00  0.00    +0.167 C 
ATOM      3  C   UNL     1      35.614 -18.664 -24.023  0.00  0.00    +0.031 C 
ATOM      4  C   UNL     1      34.791 -16.102 -23.572  0.00  0.00    +0.167 C 
ATOM      5  C   UNL     1      35.098 -17.918 -25.077  0.00  0.00    -0.015 C 
ATOM      6  C   UNL     1      34.677 -16.611 -24.855  0.00  0.00    +0.101 C 
ATOM      7  O   UNL     1      33.624 -14.110 -25.486  0.00  0.00    -0.270 OA
ATOM      8  N   UNL     1      34.365 -14.785 -23.360  0.00  0.00    -0.259 N 
ATOM      9  C   UNL     1      33.825 -13.897 -24.294  0.00  0.00    +0.255 C 
ATOM     10  H   UNL     1      34.455 -14.444 -22.441  0.00  0.00    +0.157 HD
ENDROOT
BRANCH   9  14
ATOM     11  F   UNL     1      32.073 -13.529 -22.136  0.00  0.00    -0.204 F 
ATOM     12  F   UNL     1      34.909 -11.555 -25.395  0.00  0.00    -0.204 F 
ATOM     13  F   UNL     1      32.573  -8.828 -22.315  0.00  0.00    -0.204 F 
ATOM     14  C   UNL     1      33.492 -12.548 -23.767  0.00  0.00    +0.109 C 
ATOM     15  C   UNL     1      32.621 -12.445 -22.702  0.00  0.00    +0.149 C 
ATOM     16  C   UNL     1      34.064 -11.442 -24.360  0.00  0.00    +0.149 C 
ATOM     17  C   UNL     1      32.309 -11.178 -22.209  0.00  0.00    +0.060 C 
ATOM     18  C   UNL     1      33.750 -10.175 -23.866  0.00  0.00    +0.060 C 
ATOM     19  C   UNL     1      32.873 -10.044 -22.790  0.00  0.00    +0.145 C 
ENDBRANCH   9  14
BRANCH   2  21
ATOM     20  O   UNL     1      37.141 -18.327 -20.982  0.00  0.00    -0.289 OA
ATOM     21  C   UNL     1      36.215 -18.795 -21.639  0.00  0.00    +0.202 C 
BRANCH  21  23
ATOM     22  N   UNL     1      34.348 -21.793 -19.249  0.00  0.00    +0.386 N 
ATOM     23  C   UNL     1      35.616 -20.121 -21.286  0.00  0.00    +0.060 C 
ATOM     24  C   UNL     1      34.159 -19.929 -20.865  0.00  0.00    -0.015 C 
ATOM     25  C   UNL     1      36.412 -20.778 -20.160  0.00  0.00    -0.015 C 
ATOM     26  C   UNL     1      33.553 -21.237 -20.352  0.00  0.00    -0.077 C 
ATOM     27  C   UNL     1      35.730 -22.057 -19.672  0.00  0.00    -0.077 C 
ATOM     28  C   UNL     1      33.727 -23.014 -18.736  0.00  0.00    -0.101 C 
ATOM     29  H   UNL     1      34.375 -21.100 -18.500  0.00  0.00    -0.080 HD
ENDBRANCH  21  23
ENDBRANCH   2  21
TORSDOF 3
ENDMDL
MODEL 2
REMARK VINA RESULT:     -11.5      3.763      6.459
REMARK  Name = 11610526
REMARK  3 active torsions:
REMARK  status: ('A' for Active; 'I' for Inactive)
REMARK    1  A    between atoms: C_2  and  C_21
REMARK    2  A    between atoms: C_9  and  C_14
REMARK    3  A    between atoms: C_21  and  C_23
REMARK                            x       y       z     vdW  Elec       q    Type
REMARK                         _______ _______ _______ _____ _____    ______ ____
ROOT
ATOM      1  N   UNL     1      34.628 -21.490 -19.905  0.00  0.00    -0.388 NA
ATOM      2  C   UNL     1      34.986 -22.235 -18.856  0.00  0.00    +0.167 C 
ATOM      3  C   UNL     1      36.195 -22.220 -18.215  0.00  0.00    +0.031 C 
ATOM      4  C   UNL     1      35.582 -20.646 -20.358  0.00  0.00    +0.167 C 
ATOM      5  C   UNL     1      37.150 -21.339 -18.709  0.00  0.00    -0.015 C 
ATOM      6  C   UNL     1      36.845 -20.533 -19.801  0.00  0.00    +0.101 C 
ATOM      7  O   UNL     1      37.271 -18.614 -21.775  0.00  0.00    -0.270 OA
ATOM      8  N   UNL     1      35.285 -19.830 -21.455  0.00  0.00    -0.259 N 
ATOM      9  C   UNL     1      36.116 -18.895 -22.079  0.00  0.00    +0.255 C 
ATOM     10  H   UNL     1      34.382 -19.927 -21.835  0.00  0.00    +0.157 HD
ENDROOT
BRANCH   9  14
ATOM     11  F   UNL     1      35.268 -20.191 -24.418  0.00  0.00    -0.204 F 
ATOM     12  F   UNL     1      35.729 -16.117 -22.018  0.00  0.00    -0.204 F 
ATOM     13  F   UNL     1      33.806 -16.123 -26.340  0.00  0.00    -0.204 F 
ATOM     14  C   UNL     1      35.501 -18.157 -23.213  0.00  0.00    +0.109 C 
ATOM     15  C   UNL     1      35.108 -18.863 -24.332  0.00  0.00    +0.149 C 
ATOM     16  C   UNL     1      35.343 -16.791 -23.111  0.00  0.00    +0.149 C 
ATOM     17  C   UNL     1      34.531 -18.169 -25.396  0.00  0.00    +0.060 C 
ATOM     18  C   UNL     1      34.766 -16.098 -24.176  0.00  0.00    +0.060 C 
ATOM     19  C   UNL     1      34.360 -16.788 -25.319  0.00  0.00    +0.145 C 
ENDBRANCH   9  14
BRANCH   2  21
ATOM     20  O   UNL     1      33.549 -24.092 -19.078  0.00  0.00    -0.289 OA
ATOM     21  C   UNL     1      33.925 -23.160 -18.370  0.00  0.00    +0.202 C 
BRANCH  21  23
ATOM     22  N   UNL     1      31.759 -24.023 -14.800  0.00  0.00    +0.386 N 
ATOM     23  C   UNL     1      33.329 -22.937 -17.015  0.00  0.00    +0.060 C 
ATOM     24  C   UNL     1      33.904 -23.954 -16.029  0.00  0.00    -0.015 C 
ATOM     25  C   UNL     1      31.808 -23.062 -17.079  0.00  0.00    -0.015 C 
ATOM     26  C   UNL     1      33.212 -23.859 -14.668  0.00  0.00    -0.077 C 
ATOM     27  C   UNL     1      31.187 -22.996 -15.683  0.00  0.00    -0.077 C 
ATOM     28  C   UNL     1      31.118 -23.982 -13.486  0.00  0.00    -0.101 C 
ATOM     29  H   UNL     1      31.581 -24.935 -15.223  0.00  0.00    -0.080 HD
ENDBRANCH  21  23
ENDBRANCH   2  21
TORSDOF 3
ENDMDL
MODEL 3
REMARK VINA RESULT:     -11.4      3.760      6.470
REMARK  Name = 11610526
REMARK  3 active torsions:
REMARK  status: ('A' for Active; 'I' for Inactive)
REMARK    1  A    between atoms: C_2  and  C_21
REMARK    2  A    between atoms: C_9  and  C_14
REMARK    3  A    between atoms: C_21  and  C_23
REMARK                            x       y       z     vdW  Elec       q    Type
REMARK                         _______ _______ _______ _____ _____    ______ ____
ROOT
ATOM      1  N   UNL     1      34.626 -21.489 -19.907  0.00  0.00    -0.388 NA
ATOM      2  C   UNL     1      34.983 -22.236 -18.859  0.00  0.00    +0.167 C 
ATOM      3  C   UNL     1      36.191 -22.223 -18.218  0.00  0.00    +0.031 C 
ATOM      4  C   UNL     1      35.580 -20.646 -20.358  0.00  0.00    +0.167 C 
ATOM      5  C   UNL     1      37.148 -21.342 -18.710  0.00  0.00    -0.015 C 
ATOM      6  C   UNL     1      36.843 -20.534 -19.801  0.00  0.00    +0.101 C 
ATOM      7  O   UNL     1      37.271 -18.614 -21.773  0.00  0.00    -0.270 OA
ATOM      8  N   UNL     1      35.284 -19.828 -21.455  0.00  0.00    -0.259 N 
ATOM      9  C   UNL     1      36.116 -18.893 -22.078  0.00  0.00    +0.255 C 
ATOM     10  H   UNL     1      34.381 -19.924 -21.835  0.00  0.00    +0.157 HD
ENDROOT
BRANCH   9  14
ATOM     11  F   UNL     1      35.725 -16.117 -22.010  0.00  0.00    -0.204 F 
ATOM     12  F   UNL     1      35.273 -20.184 -24.421  0.00  0.00    -0.204 F 
ATOM     13  F   UNL     1      33.806 -16.114 -26.335  0.00  0.00    -0.204 F 
ATOM     14  C   UNL     1      35.501 -18.153 -23.211  0.00  0.00    +0.109 C 
ATOM     15  C   UNL     1      35.341 -16.787 -23.105  0.00  0.00    +0.149 C 
ATOM     16  C   UNL     1      35.111 -18.856 -24.331  0.00  0.00    +0.149 C 
ATOM     17  C   UNL     1      34.763 -16.093 -24.169  0.00  0.00    +0.060 C 
ATOM     18  C   UNL     1      34.533 -18.162 -25.394  0.00  0.00    +0.060 C 
ATOM     19  C   UNL     1      34.359 -16.780 -25.313  0.00  0.00    +0.145 C 
ENDBRANCH   9  14
BRANCH   2  21
ATOM     20  O   UNL     1      33.541 -24.088 -19.085  0.00  0.00    -0.289 OA
ATOM     21  C   UNL     1      33.921 -23.161 -18.374  0.00  0.00    +0.202 C 
BRANCH  21  23
ATOM     22  N   UNL     1      31.766 -24.037 -14.800  0.00  0.00    +0.386 N 
ATOM     23  C   UNL     1      33.330 -22.943 -17.016  0.00  0.00    +0.060 C 
ATOM     24  C   UNL     1      33.908 -23.965 -16.036  0.00  0.00    -0.015 C 
ATOM     25  C   UNL     1      31.808 -23.066 -17.075  0.00  0.00    -0.015 C 
ATOM     26  C   UNL     1      33.220 -23.875 -14.672  0.00  0.00    -0.077 C 
ATOM     27  C   UNL     1      31.193 -23.006 -15.676  0.00  0.00    -0.077 C 
ATOM     28  C   UNL     1      31.130 -24.001 -13.483  0.00  0.00    -0.101 C 
ATOM     29  H   UNL     1      31.586 -24.947 -15.226  0.00  0.00    -0.080 HD
ENDBRANCH  21  23
ENDBRANCH   2  21
TORSDOF 3
ENDMDL
MODEL 4
REMARK VINA RESULT:     -11.0      3.461      8.321
REMARK  Name = 11610526
REMARK  3 active torsions:
REMARK  status: ('A' for Active; 'I' for Inactive)
REMARK    1  A    between atoms: C_2  and  C_21
REMARK    2  A    between atoms: C_9  and  C_14
REMARK    3  A    between atoms: C_21  and  C_23
REMARK                            x       y       z     vdW  Elec       q    Type
REMARK                         _______ _______ _______ _____ _____    ______ ____
ROOT
ATOM      1  N   UNL     1      34.462 -14.978 -23.419  0.00  0.00    -0.388 NA
ATOM      2  C   UNL     1      34.074 -14.099 -24.346  0.00  0.00    +0.167 C 
ATOM      3  C   UNL     1      33.865 -14.347 -25.675  0.00  0.00    +0.031 C 
ATOM      4  C   UNL     1      34.663 -16.234 -23.873  0.00  0.00    +0.167 C 
ATOM      5  C   UNL     1      34.082 -15.652 -26.105  0.00  0.00    -0.015 C 
ATOM      6  C   UNL     1      34.489 -16.620 -25.192  0.00  0.00    +0.101 C 
ATOM      7  O   UNL     1      35.254 -19.143 -24.296  0.00  0.00    -0.270 OA
ATOM      8  N   UNL     1      35.072 -17.216 -22.963  0.00  0.00    -0.259 N 
ATOM      9  C   UNL     1      35.336 -18.566 -23.217  0.00  0.00    +0.255 C 
ATOM     10  H   UNL     1      35.190 -16.921 -22.032  0.00  0.00    +0.157 HD
ENDROOT
BRANCH   9  14
ATOM     11  F   UNL     1      37.945 -18.533 -22.190  0.00  0.00    -0.204 F 
ATOM     12  F   UNL     1      33.514 -20.212 -21.860  0.00  0.00    -0.204 F 
ATOM     13  F   UNL     1      36.810 -21.585 -18.757  0.00  0.00    -0.204 F 
ATOM     14  C   UNL     1      35.728 -19.369 -22.030  0.00  0.00    +0.109 C 
ATOM     15  C   UNL     1      37.031 -19.302 -21.582  0.00  0.00    +0.149 C 
ATOM     16  C   UNL     1      34.777 -20.156 -21.414  0.00  0.00    +0.149 C 
ATOM     17  C   UNL     1      37.399 -20.057 -20.467  0.00  0.00    +0.060 C 
ATOM     18  C   UNL     1      35.146 -20.910 -20.300  0.00  0.00    +0.060 C 
ATOM     19  C   UNL     1      36.457 -20.861 -19.827  0.00  0.00    +0.145 C 
ENDBRANCH   9  14
BRANCH   2  21
ATOM     20  O   UNL     1      34.564 -11.795 -24.226  0.00  0.00    -0.289 OA
ATOM     21  C   UNL     1      33.857 -12.718 -23.829  0.00  0.00    +0.202 C 
BRANCH  21  23
ATOM     22  N   UNL     1      31.975 -11.232 -20.303  0.00  0.00    +0.386 N 
ATOM     23  C   UNL     1      32.772 -12.478 -22.826  0.00  0.00    +0.060 C 
ATOM     24  C   UNL     1      32.509 -10.977 -22.705  0.00  0.00    -0.015 C 
ATOM     25  C   UNL     1      33.169 -13.058 -21.469  0.00  0.00    -0.015 C 
ATOM     26  C   UNL     1      31.514 -10.678 -21.583  0.00  0.00    -0.077 C 
ATOM     27  C   UNL     1      32.151 -12.689 -20.389  0.00  0.00    -0.077 C 
ATOM     28  C   UNL     1      31.040 -10.892 -19.231  0.00  0.00    -0.101 C 
ATOM     29  H   UNL     1      32.883 -10.818 -20.089  0.00  0.00    -0.080 HD
ENDBRANCH  21  23
ENDBRANCH   2  21
TORSDOF 3
ENDMDL
MODEL 5
REMARK VINA RESULT:     -10.6      6.092     11.502
REMARK  Name = 11610526
REMARK  3 active torsions:
REMARK  status: ('A' for Active; 'I' for Inactive)
REMARK    1  A    between atoms: C_2  and  C_21
REMARK    2  A    between atoms: C_9  and  C_14
REMARK    3  A    between atoms: C_21  and  C_23
REMARK                            x       y       z     vdW  Elec       q    Type
REMARK                         _______ _______ _______ _____ _____    ______ ____
ROOT
ATOM      1  N   UNL     1      35.895 -21.601 -19.046  0.00  0.00    -0.388 NA
ATOM      2  C   UNL     1      35.197 -20.986 -20.004  0.00  0.00    +0.167 C 
ATOM      3  C   UNL     1      33.849 -21.072 -20.219  0.00  0.00    +0.031 C 
ATOM      4  C   UNL     1      35.165 -22.382 -18.220  0.00  0.00    +0.167 C 
ATOM      5  C   UNL     1      33.131 -21.885 -19.349  0.00  0.00    -0.015 C 
ATOM      6  C   UNL     1      33.795 -22.557 -18.327  0.00  0.00    +0.101 C 
ATOM      7  O   UNL     1      34.086 -24.226 -16.117  0.00  0.00    -0.270 OA
ATOM      8  N   UNL     1      35.824 -23.062 -17.189  0.00  0.00    -0.259 N 
ATOM      9  C   UNL     1      35.268 -23.915 -16.231  0.00  0.00    +0.255 C 
ATOM     10  H   UNL     1      36.797 -22.924 -17.132  0.00  0.00    +0.157 HD
ENDROOT
BRANCH   9  14
ATOM     11  F   UNL     1      35.995 -26.623 -16.210  0.00  0.00    -0.204 F 
ATOM     12  F   UNL     1      36.469 -22.317 -14.263  0.00  0.00    -0.204 F 
ATOM     13  F   UNL     1      38.875 -25.993 -12.510  0.00  0.00    -0.204 F 
ATOM     14  C   UNL     1      36.228 -24.468 -15.241  0.00  0.00    +0.109 C 
ATOM     15  C   UNL     1      36.537 -25.811 -15.292  0.00  0.00    +0.149 C 
ATOM     16  C   UNL     1      36.778 -23.620 -14.302  0.00  0.00    +0.149 C 
ATOM     17  C   UNL     1      37.439 -26.330 -14.362  0.00  0.00    +0.060 C 
ATOM     18  C   UNL     1      37.679 -24.140 -13.372  0.00  0.00    +0.060 C 
ATOM     19  C   UNL     1      38.009 -25.495 -13.402  0.00  0.00    +0.145 C 
ENDBRANCH   9  14
BRANCH   2  21
ATOM     20  O   UNL     1      37.242 -20.204 -20.881  0.00  0.00    -0.289 OA
ATOM     21  C   UNL     1      36.016 -20.129 -20.907  0.00  0.00    +0.202 C 
BRANCH  21  23
ATOM     22  N   UNL     1      35.514 -17.444 -24.181  0.00  0.00    +0.386 N 
ATOM     23  C   UNL     1      35.324 -19.183 -21.838  0.00  0.00    +0.060 C 
ATOM     24  C   UNL     1      35.374 -19.737 -23.262  0.00  0.00    -0.015 C 
ATOM     25  C   UNL     1      35.984 -17.806 -21.779  0.00  0.00    -0.015 C 
ATOM     26  C   UNL     1      34.811 -18.731 -24.268  0.00  0.00    -0.077 C 
ATOM     27  C   UNL     1      35.399 -16.866 -22.835  0.00  0.00    -0.077 C 
ATOM     28  C   UNL     1      35.000 -16.512 -25.184  0.00  0.00    -0.101 C 
ATOM     29  H   UNL     1      36.503 -17.613 -24.368  0.00  0.00    -0.080 HD
ENDBRANCH  21  23
ENDBRANCH   2  21
TORSDOF 3
ENDMDL
MODEL 6
REMARK VINA RESULT:     -10.5      6.556     10.010
REMARK  Name = 11610526
REMARK  3 active torsions:
REMARK  status: ('A' for Active; 'I' for Inactive)
REMARK    1  A    between atoms: C_2  and  C_21
REMARK    2  A    between atoms: C_9  and  C_14
REMARK    3  A    between atoms: C_21  and  C_23
REMARK                            x       y       z     vdW  Elec       q    Type
REMARK                         _______ _______ _______ _____ _____    ______ ____
ROOT
ATOM      1  N   UNL     1      34.785 -23.462 -15.318  0.00  0.00    -0.388 NA
ATOM      2  C   UNL     1      34.253 -24.199 -14.339  0.00  0.00    +0.167 C 
ATOM      3  C   UNL     1      33.011 -24.770 -14.327  0.00  0.00    +0.031 C 
ATOM      4  C   UNL     1      33.987 -23.279 -16.393  0.00  0.00    +0.167 C 
ATOM      5  C   UNL     1      32.218 -24.560 -15.450  0.00  0.00    -0.015 C 
ATOM      6  C   UNL     1      32.709 -23.802 -16.507  0.00  0.00    +0.101 C 
ATOM      7  O   UNL     1      32.689 -22.548 -18.995  0.00  0.00    -0.270 OA
ATOM      8  N   UNL     1      34.471 -22.518 -17.463  0.00  0.00    -0.259 N 
ATOM      9  C   UNL     1      33.818 -22.206 -18.659  0.00  0.00    +0.255 C 
ATOM     10  H   UNL     1      35.381 -22.156 -17.360  0.00  0.00    +0.157 HD
ENDROOT
BRANCH   9  14
ATOM     11  F   UNL     1      36.620 -22.295 -18.733  0.00  0.00    -0.204 F 
ATOM     12  F   UNL     1      32.606 -20.489 -20.516  0.00  0.00    -0.204 F 
ATOM     13  F   UNL     1      36.793 -19.159 -22.270  0.00  0.00    -0.204 F 
ATOM     14  C   UNL     1      34.610 -21.395 -19.621  0.00  0.00    +0.109 C 
ATOM     15  C   UNL     1      35.986 -21.491 -19.597  0.00  0.00    +0.149 C 
ATOM     16  C   UNL     1      33.944 -20.573 -20.504  0.00  0.00    +0.149 C 
ATOM     17  C   UNL     1      36.729 -20.729 -20.500  0.00  0.00    +0.060 C 
ATOM     18  C   UNL     1      34.688 -19.811 -21.406  0.00  0.00    +0.060 C 
ATOM     19  C   UNL     1      36.080 -19.889 -21.404  0.00  0.00    +0.145 C 
ENDBRANCH   9  14
BRANCH   2  21
ATOM     20  O   UNL     1      34.829 -23.928 -12.068  0.00  0.00    -0.289 OA
ATOM     21  C   UNL     1      35.145 -24.390 -13.162  0.00  0.00    +0.202 C 
BRANCH  21  23
ATOM     22  N   UNL     1      38.993 -25.379 -14.712  0.00  0.00    +0.386 N 
ATOM     23  C   UNL     1      36.424 -25.150 -13.333  0.00  0.00    +0.060 C 
ATOM     24  C   UNL     1      37.608 -24.238 -13.008  0.00  0.00    -0.015 C 
ATOM     25  C   UNL     1      36.538 -25.678 -14.762  0.00  0.00    -0.015 C 
ATOM     26  C   UNL     1      38.939 -24.929 -13.315  0.00  0.00    -0.077 C 
ATOM     27  C   UNL     1      37.904 -26.320 -15.009  0.00  0.00    -0.077 C 
ATOM     28  C   UNL     1      40.290 -25.988 -15.003  0.00  0.00    -0.101 C 
ATOM     29  H   UNL     1      38.873 -24.561 -15.311  0.00  0.00    -0.080 HD
ENDBRANCH  21  23
ENDBRANCH   2  21
TORSDOF 3
ENDMDL
MODEL 7
REMARK VINA RESULT:     -10.2      4.545      7.242
REMARK  Name = 11610526
REMARK  3 active torsions:
REMARK  status: ('A' for Active; 'I' for Inactive)
REMARK    1  A    between atoms: C_2  and  C_21
REMARK    2  A    between atoms: C_9  and  C_14
REMARK    3  A    between atoms: C_21  and  C_23
REMARK                            x       y       z     vdW  Elec       q    Type
REMARK                         _______ _______ _______ _____ _____    ______ ____
ROOT
ATOM      1  N   UNL     1      32.628 -11.096 -21.586  0.00  0.00    -0.388 NA
ATOM      2  C   UNL     1      32.324 -12.013 -20.664  0.00  0.00    +0.167 C 
ATOM      3  C   UNL     1      31.839 -11.782 -19.406  0.00  0.00    +0.031 C 
ATOM      4  C   UNL     1      32.424  -9.816 -21.205  0.00  0.00    +0.167 C 
ATOM      5  C   UNL     1      31.643 -10.452 -19.050  0.00  0.00    -0.015 C 
ATOM      6  C   UNL     1      31.938  -9.444 -19.962  0.00  0.00    +0.101 C 
ATOM      7  O   UNL     1      32.179  -6.841 -20.924  0.00  0.00    -0.270 OA
ATOM      8  N   UNL     1      32.718  -8.793 -22.116  0.00  0.00    -0.259 N 
ATOM      9  C   UNL     1      32.584  -7.414 -21.930  0.00  0.00    +0.255 C 
ATOM     10  H   UNL     1      33.062  -9.080 -22.992  0.00  0.00    +0.157 HD
ENDROOT
BRANCH   9  14
ATOM     11  F   UNL     1      30.746  -5.707 -23.184  0.00  0.00    -0.204 F 
ATOM     12  F   UNL     1      35.165  -7.443 -23.029  0.00  0.00    -0.204 F 
ATOM     13  F   UNL     1      33.974  -4.274 -26.333  0.00  0.00    -0.204 F 
ATOM     14  C   UNL     1      32.954  -6.578 -23.102  0.00  0.00    +0.109 C 
ATOM     15  C   UNL     1      31.995  -5.762 -23.667  0.00  0.00    +0.149 C 
ATOM     16  C   UNL     1      34.243  -6.646 -23.587  0.00  0.00    +0.149 C 
ATOM     17  C   UNL     1      32.343  -4.978 -24.767  0.00  0.00    +0.060 C 
ATOM     18  C   UNL     1      34.590  -5.861 -24.688  0.00  0.00    +0.060 C 
ATOM     19  C   UNL     1      33.640  -5.028 -25.278  0.00  0.00    +0.145 C 
ENDBRANCH   9  14
BRANCH   2  21
ATOM     20  O   UNL     1      31.969 -14.341 -20.537  0.00  0.00    -0.289 OA
ATOM     21  C   UNL     1      32.555 -13.419 -21.098  0.00  0.00    +0.202 C 
BRANCH  21  23
ATOM     22  N   UNL     1      34.353 -15.487 -24.366  0.00  0.00    +0.386 N 
ATOM     23  C   UNL     1      33.507 -13.686 -22.223  0.00  0.00    +0.060 C 
ATOM     24  C   UNL     1      32.730 -13.817 -23.532  0.00  0.00    -0.015 C 
ATOM     25  C   UNL     1      34.304 -14.961 -21.949  0.00  0.00    -0.015 C 
ATOM     26  C   UNL     1      33.647 -14.238 -24.682  0.00  0.00    -0.077 C 
ATOM     27  C   UNL     1      35.168 -15.343 -23.152  0.00  0.00    -0.077 C 
ATOM     28  C   UNL     1      35.184 -15.904 -25.495  0.00  0.00    -0.101 C 
ATOM     29  H   UNL     1      33.653 -16.209 -24.191  0.00  0.00    -0.080 HD
ENDBRANCH  21  23
ENDBRANCH   2  21
TORSDOF 3
ENDMDL
MODEL 8
REMARK VINA RESULT:     -10.1      3.444      9.512
REMARK  Name = 11610526
REMARK  3 active torsions:
REMARK  status: ('A' for Active; 'I' for Inactive)
REMARK    1  A    between atoms: C_2  and  C_21
REMARK    2  A    between atoms: C_9  and  C_14
REMARK    3  A    between atoms: C_21  and  C_23
REMARK                            x       y       z     vdW  Elec       q    Type
REMARK                         _______ _______ _______ _____ _____    ______ ____
ROOT
ATOM      1  N   UNL     1      33.348 -12.693 -22.876  0.00  0.00    -0.388 NA
ATOM      2  C   UNL     1      33.134 -11.447 -23.304  0.00  0.00    +0.167 C 
ATOM      3  C   UNL     1      33.547 -10.906 -24.490  0.00  0.00    +0.031 C 
ATOM      4  C   UNL     1      34.050 -13.475 -23.725  0.00  0.00    +0.167 C 
ATOM      5  C   UNL     1      34.266 -11.741 -25.338  0.00  0.00    -0.015 C 
ATOM      6  C   UNL     1      34.527 -13.052 -24.955  0.00  0.00    +0.101 C 
ATOM      7  O   UNL     1      35.536 -15.639 -25.174  0.00  0.00    -0.270 OA
ATOM      8  N   UNL     1      34.317 -14.797 -23.349  0.00  0.00    -0.259 N 
ATOM      9  C   UNL     1      35.020 -15.769 -24.069  0.00  0.00    +0.255 C 
ATOM     10  H   UNL     1      33.970 -15.076 -22.472  0.00  0.00    +0.157 HD
ENDROOT
BRANCH   9  14
ATOM     11  F   UNL     1      35.543 -16.046 -21.327  0.00  0.00    -0.204 F 
ATOM     12  F   UNL     1      34.685 -18.162 -25.493  0.00  0.00    -0.204 F 
ATOM     13  F   UNL     1      35.373 -20.766 -21.604  0.00  0.00    -0.204 F 
ATOM     14  C   UNL     1      35.114 -17.099 -23.412  0.00  0.00    +0.109 C 
ATOM     15  C   UNL     1      35.374 -17.157 -22.059  0.00  0.00    +0.149 C 
ATOM     16  C   UNL     1      34.938 -18.232 -24.178  0.00  0.00    +0.149 C 
ATOM     17  C   UNL     1      35.462 -18.406 -21.444  0.00  0.00    +0.060 C 
ATOM     18  C   UNL     1      35.027 -19.481 -23.562  0.00  0.00    +0.060 C 
ATOM     19  C   UNL     1      35.289 -19.568 -22.195  0.00  0.00    +0.145 C 
ENDBRANCH   9  14
BRANCH   2  21
ATOM     20  O   UNL     1      31.673 -11.119 -21.481  0.00  0.00    -0.289 OA
ATOM     21  C   UNL     1      32.360 -10.597 -22.356  0.00  0.00    +0.202 C 
BRANCH  21  23
ATOM     22  N   UNL     1      31.119  -6.526 -22.085  0.00  0.00    +0.386 N 
ATOM     23  C   UNL     1      32.433  -9.107 -22.488  0.00  0.00    +0.060 C 
ATOM     24  C   UNL     1      32.306  -8.464 -21.107  0.00  0.00    -0.015 C 
ATOM     25  C   UNL     1      31.325  -8.604 -23.412  0.00  0.00    -0.015 C 
ATOM     26  C   UNL     1      32.225  -6.940 -21.211  0.00  0.00    -0.077 C 
ATOM     27  C   UNL     1      31.278  -7.075 -23.438  0.00  0.00    -0.077 C 
ATOM     28  C   UNL     1      31.022  -5.068 -22.131  0.00  0.00    -0.101 C 
ATOM     29  H   UNL     1      30.253  -6.899 -21.694  0.00  0.00    -0.080 HD
ENDBRANCH  21  23
ENDBRANCH   2  21
TORSDOF 3
ENDMDL
MODEL 9
REMARK VINA RESULT:     -10.0      3.448      9.561
REMARK  Name = 11610526
REMARK  3 active torsions:
REMARK  status: ('A' for Active; 'I' for Inactive)
REMARK    1  A    between atoms: C_2  and  C_21
REMARK    2  A    between atoms: C_9  and  C_14
REMARK    3  A    between atoms: C_21  and  C_23
REMARK                            x       y       z     vdW  Elec       q    Type
REMARK                         _______ _______ _______ _____ _____    ______ ____
ROOT
ATOM      1  N   UNL     1      33.357 -12.668 -22.889  0.00  0.00    -0.388 NA
ATOM      2  C   UNL     1      33.152 -11.419 -23.314  0.00  0.00    +0.167 C 
ATOM      3  C   UNL     1      33.582 -10.872 -24.491  0.00  0.00    +0.031 C 
ATOM      4  C   UNL     1      34.068 -13.448 -23.733  0.00  0.00    +0.167 C 
ATOM      5  C   UNL     1      34.311 -11.706 -25.334  0.00  0.00    -0.015 C 
ATOM      6  C   UNL     1      34.562 -13.020 -24.954  0.00  0.00    +0.101 C 
ATOM      7  O   UNL     1      35.567 -15.609 -25.173  0.00  0.00    -0.270 OA
ATOM      8  N   UNL     1      34.326 -14.772 -23.360  0.00  0.00    -0.259 N 
ATOM      9  C   UNL     1      35.036 -15.742 -24.075  0.00  0.00    +0.255 C 
ATOM     10  H   UNL     1      33.966 -15.055 -22.489  0.00  0.00    +0.157 HD
ENDROOT
BRANCH   9  14
ATOM     11  F   UNL     1      34.663 -18.125 -25.507  0.00  0.00    -0.204 F 
ATOM     12  F   UNL     1      35.571 -16.037 -21.337  0.00  0.00    -0.204 F 
ATOM     13  F   UNL     1      35.340 -20.753 -21.631  0.00  0.00    -0.204 F 
ATOM     14  C   UNL     1      35.117 -17.076 -23.425  0.00  0.00    +0.109 C 
ATOM     15  C   UNL     1      34.922 -18.205 -24.194  0.00  0.00    +0.149 C 
ATOM     16  C   UNL     1      35.384 -17.142 -22.074  0.00  0.00    +0.149 C 
ATOM     17  C   UNL     1      34.998 -19.456 -23.583  0.00  0.00    +0.060 C 
ATOM     18  C   UNL     1      35.459 -18.395 -21.463  0.00  0.00    +0.060 C 
ATOM     19  C   UNL     1      35.266 -19.552 -22.218  0.00  0.00    +0.145 C 
ENDBRANCH   9  14
BRANCH   2  21
ATOM     20  O   UNL     1      31.681 -11.096 -21.498  0.00  0.00    -0.289 OA
ATOM     21  C   UNL     1      32.367 -10.572 -22.372  0.00  0.00    +0.202 C 
BRANCH  21  23
ATOM     22  N   UNL     1      31.105  -6.508 -22.097  0.00  0.00    +0.386 N 
ATOM     23  C   UNL     1      32.430  -9.082 -22.509  0.00  0.00    +0.060 C 
ATOM     24  C   UNL     1      32.314  -8.436 -21.128  0.00  0.00    -0.015 C 
ATOM     25  C   UNL     1      31.310  -8.587 -23.422  0.00  0.00    -0.015 C 
ATOM     26  C   UNL     1      32.222  -6.912 -21.235  0.00  0.00    -0.077 C 
ATOM     27  C   UNL     1      31.253  -7.059 -23.452  0.00  0.00    -0.077 C 
ATOM     28  C   UNL     1      30.998  -5.050 -22.147  0.00  0.00    -0.101 C 
ATOM     29  H   UNL     1      30.245  -6.885 -21.697  0.00  0.00    -0.080 HD
ENDBRANCH  21  23
ENDBRANCH   2  21
TORSDOF 3
ENDMDL
