MODEL 1
REMARK VINA RESULT:     -12.1      0.000      0.000
REMARK  Name = 10297043
REMARK  6 active torsions:
REMARK  status: ('A' for Active; 'I' for Inactive)
REMARK    1  A    between atoms: N_2  and  C_30
REMARK    2  A    between atoms: C_5  and  C_16
REMARK    3  A    between atoms: C_13  and  C_19
REMARK    4  A    between atoms: C_19  and  N_20
REMARK    5  A    between atoms: N_21  and  C_28
REMARK    6  A    between atoms: C_30  and  C_32
REMARK                            x       y       z     vdW  Elec       q    Type
REMARK                         _______ _______ _______ _____ _____    ______ ____
ROOT
ATOM      1  N   UNL     1      32.718 -22.067 -18.819  0.00  0.00    -0.301 N 
ATOM      2  N   UNL     1      35.223 -24.171 -15.492  0.00  0.00    -0.319 N 
ATOM      3  N   UNL     1      31.443 -23.263 -17.158  0.00  0.00    -0.233 NA
ATOM      4  N   UNL     1      32.840 -24.323 -15.470  0.00  0.00    -0.233 NA
ATOM      5  C   UNL     1      34.043 -21.821 -19.070  0.00  0.00    +0.046 C 
ATOM      6  C   UNL     1      33.879 -23.087 -17.210  0.00  0.00    +0.131 C 
ATOM      7  C   UNL     1      34.786 -22.441 -18.088  0.00  0.00    +0.003 C 
ATOM      8  C   UNL     1      32.600 -22.836 -17.691  0.00  0.00    +0.117 C 
ATOM      9  C   UNL     1      33.971 -23.863 -16.055  0.00  0.00    +0.113 C 
ATOM     10  C   UNL     1      31.662 -24.000 -16.050  0.00  0.00    +0.252 C 
ATOM     11  H   UNL     1      31.966 -21.741 -19.365  0.00  0.00    +0.153 HD
ATOM     12  H   UNL     1      36.033 -23.826 -15.933  0.00  0.00    +0.148 HD
ENDROOT
BRANCH   5  16
ATOM     13  C   UNL     1      35.304 -19.521 -22.379  0.00  0.00    -0.043 C 
ATOM     14  C   UNL     1      36.250 -20.044 -21.504  0.00  0.00    -0.006 C 
ATOM     15  C   UNL     1      33.948 -19.747 -22.176  0.00  0.00    -0.006 C 
ATOM     16  C   UNL     1      34.473 -21.035 -20.201  0.00  0.00    +0.013 C 
ATOM     17  C   UNL     1      35.833 -20.805 -20.411  0.00  0.00    +0.001 C 
ATOM     18  C   UNL     1      33.532 -20.507 -21.083  0.00  0.00    +0.001 C 
BRANCH  13  19
ATOM     19  C   UNL     1      35.753 -18.703 -23.555  0.00  0.00    -0.050 C 
BRANCH  19  20
ATOM     20  N   UNL     1      35.033 -17.434 -23.644  0.00  0.00    +0.387 N 
ATOM     21  N   UNL     1      34.890 -14.580 -24.079  0.00  0.00    +0.384 N 
ATOM     22  C   UNL     1      35.525 -16.484 -22.638  0.00  0.00    -0.100 C 
ATOM     23  C   UNL     1      35.150 -16.862 -24.991  0.00  0.00    -0.100 C 
ATOM     24  C   UNL     1      34.774 -15.152 -22.732  0.00  0.00    -0.101 C 
ATOM     25  C   UNL     1      34.397 -15.529 -25.083  0.00  0.00    -0.101 C 
ATOM     26  H   UNL     1      34.047 -17.618 -23.457  0.00  0.00    -0.079 HD
ATOM     27  H   UNL     1      35.877 -14.397 -24.267  0.00  0.00    -0.080 HD
BRANCH  21  28
ATOM     28  C   UNL     1      34.172 -13.310 -24.168  0.00  0.00    -0.078 C 
ATOM     29  C   UNL     1      33.096 -13.212 -23.100  0.00  0.00    -0.025 C 
ENDBRANCH  21  28
ENDBRANCH  19  20
ENDBRANCH  13  19
ENDBRANCH   5  16
BRANCH   2  30
ATOM     30  C   UNL     1      35.374 -24.963 -14.309  0.00  0.00    +0.093 C 
ATOM     31  C   UNL     1      34.718 -24.240 -13.135  0.00  0.00    +0.026 C 
BRANCH  30  32
ATOM     32  C   UNL     1      36.835 -25.278 -14.072  0.00  0.00    -0.005 C 
ATOM     33  C   UNL     1      37.746 -25.065 -15.092  0.00  0.00    -0.003 C 
ATOM     34  C   UNL     1      37.229 -25.772 -12.841  0.00  0.00    -0.003 C 
ATOM     35  C   UNL     1      39.092 -25.356 -14.874  0.00  0.00    -0.000 C 
ATOM     36  C   UNL     1      38.575 -26.063 -12.623  0.00  0.00    -0.000 C 
ATOM     37  C   UNL     1      39.507 -25.855 -13.639  0.00  0.00    -0.000 C 
ENDBRANCH  30  32
ENDBRANCH   2  30
TORSDOF 6
ENDMDL
MODEL 2
REMARK VINA RESULT:     -12.0      2.614     12.144
REMARK  Name = 10297043
REMARK  6 active torsions:
REMARK  status: ('A' for Active; 'I' for Inactive)
REMARK    1  A    between atoms: N_2  and  C_30
REMARK    2  A    between atoms: C_5  and  C_16
REMARK    3  A    between atoms: C_13  and  C_19
REMARK    4  A    between atoms: C_19  and  N_20
REMARK    5  A    between atoms: N_21  and  C_28
REMARK    6  A    between atoms: C_30  and  C_32
REMARK                            x       y       z     vdW  Elec       q    Type
REMARK                         _______ _______ _______ _____ _____    ______ ____
ROOT
ATOM      1  N   UNL     1      34.854 -17.337 -24.693  0.00  0.00    -0.301 N 
ATOM      2  N   UNL     1      34.060 -12.831 -23.780  0.00  0.00    -0.319 N 
ATOM      3  N   UNL     1      34.091 -16.017 -26.561  0.00  0.00    -0.233 NA
ATOM      4  N   UNL     1      33.707 -13.684 -25.982  0.00  0.00    -0.233 NA
ATOM      5  C   UNL     1      35.133 -17.120 -23.368  0.00  0.00    +0.046 C 
ATOM      6  C   UNL     1      34.463 -15.176 -24.297  0.00  0.00    +0.131 C 
ATOM      7  C   UNL     1      34.900 -15.788 -23.095  0.00  0.00    +0.003 C 
ATOM      8  C   UNL     1      34.444 -16.165 -25.272  0.00  0.00    +0.117 C 
ATOM      9  C   UNL     1      34.073 -13.898 -24.696  0.00  0.00    +0.113 C 
ATOM     10  C   UNL     1      33.737 -14.742 -26.823  0.00  0.00    +0.252 C 
ATOM     11  H   UNL     1      34.935 -18.202 -25.155  0.00  0.00    +0.153 HD
ATOM     12  H   UNL     1      34.330 -13.008 -22.850  0.00  0.00    +0.148 HD
ENDROOT
BRANCH   5  16
ATOM     13  C   UNL     1      36.456 -20.217 -20.822  0.00  0.00    -0.043 C 
ATOM     14  C   UNL     1      35.118 -20.158 -21.196  0.00  0.00    -0.006 C 
ATOM     15  C   UNL     1      37.363 -19.268 -21.277  0.00  0.00    -0.006 C 
ATOM     16  C   UNL     1      35.586 -18.178 -22.499  0.00  0.00    +0.013 C 
ATOM     17  C   UNL     1      34.682 -19.135 -22.038  0.00  0.00    +0.001 C 
ATOM     18  C   UNL     1      36.926 -18.244 -22.118  0.00  0.00    +0.001 C 
BRANCH  13  19
ATOM     19  C   UNL     1      36.926 -21.319 -19.916  0.00  0.00    -0.050 C 
BRANCH  19  20
ATOM     20  N   UNL     1      35.967 -21.595 -18.849  0.00  0.00    +0.387 N 
ATOM     21  N   UNL     1      34.597 -23.357 -17.012  0.00  0.00    +0.384 N 
ATOM     22  C   UNL     1      34.924 -22.520 -19.314  0.00  0.00    -0.100 C 
ATOM     23  C   UNL     1      36.644 -22.138 -17.666  0.00  0.00    -0.100 C 
ATOM     24  C   UNL     1      33.919 -22.815 -18.196  0.00  0.00    -0.101 C 
ATOM     25  C   UNL     1      35.637 -22.431 -16.548  0.00  0.00    -0.101 C 
ATOM     26  H   UNL     1      35.522 -20.714 -18.590  0.00  0.00    -0.079 HD
ATOM     27  H   UNL     1      35.043 -24.238 -17.272  0.00  0.00    -0.080 HD
BRANCH  21  28
ATOM     28  C   UNL     1      33.637 -23.636 -15.945  0.00  0.00    -0.078 C 
ATOM     29  C   UNL     1      32.225 -23.271 -16.369  0.00  0.00    -0.025 C 
ENDBRANCH  21  28
ENDBRANCH  19  20
ENDBRANCH  13  19
ENDBRANCH   5  16
BRANCH   2  30
ATOM     30  C   UNL     1      33.669 -11.500 -24.136  0.00  0.00    +0.093 C 
ATOM     31  C   UNL     1      34.895 -10.731 -24.623  0.00  0.00    +0.026 C 
BRANCH  30  32
ATOM     32  C   UNL     1      32.970 -10.830 -22.973  0.00  0.00    -0.005 C 
ATOM     33  C   UNL     1      32.971  -9.448 -22.891  0.00  0.00    -0.003 C 
ATOM     34  C   UNL     1      32.345 -11.611 -22.017  0.00  0.00    -0.003 C 
ATOM     35  C   UNL     1      32.328  -8.829 -21.819  0.00  0.00    -0.000 C 
ATOM     36  C   UNL     1      31.702 -10.993 -20.946  0.00  0.00    -0.000 C 
ATOM     37  C   UNL     1      31.694  -9.602 -20.846  0.00  0.00    -0.000 C 
ENDBRANCH  30  32
ENDBRANCH   2  30
TORSDOF 6
ENDMDL
MODEL 3
REMARK VINA RESULT:     -11.1      2.022      4.158
REMARK  Name = 10297043
REMARK  6 active torsions:
REMARK  status: ('A' for Active; 'I' for Inactive)
REMARK    1  A    between atoms: N_2  and  C_30
REMARK    2  A    between atoms: C_5  and  C_16
REMARK    3  A    between atoms: C_13  and  C_19
REMARK    4  A    between atoms: C_19  and  N_20
REMARK    5  A    between atoms: N_21  and  C_28
REMARK    6  A    between atoms: C_30  and  C_32
REMARK                            x       y       z     vdW  Elec       q    Type
REMARK                         _______ _______ _______ _____ _____    ______ ____
ROOT
ATOM      1  N   UNL     1      37.255 -21.027 -19.083  0.00  0.00    -0.301 N 
ATOM      2  N   UNL     1      34.104 -23.259 -16.463  0.00  0.00    -0.319 N 
ATOM      3  N   UNL     1      38.117 -22.081 -17.093  0.00  0.00    -0.233 NA
ATOM      4  N   UNL     1      36.397 -23.217 -15.798  0.00  0.00    -0.233 NA
ATOM      5  C   UNL     1      36.032 -20.895 -19.690  0.00  0.00    +0.046 C 
ATOM      6  C   UNL     1      35.779 -22.105 -17.803  0.00  0.00    +0.131 C 
ATOM      7  C   UNL     1      35.099 -21.554 -18.918  0.00  0.00    +0.003 C 
ATOM      8  C   UNL     1      37.119 -21.760 -17.934  0.00  0.00    +0.117 C 
ATOM      9  C   UNL     1      35.436 -22.861 -16.682  0.00  0.00    +0.113 C 
ATOM     10  C   UNL     1      37.660 -22.809 -16.054  0.00  0.00    +0.252 C 
ATOM     11  H   UNL     1      38.100 -20.653 -19.421  0.00  0.00    +0.153 HD
ATOM     12  H   UNL     1      33.420 -22.990 -17.119  0.00  0.00    +0.148 HD
ENDROOT
BRANCH   5  16
ATOM     13  C   UNL     1      35.547 -18.759 -23.299  0.00  0.00    -0.043 C 
ATOM     14  C   UNL     1      36.770 -18.725 -22.639  0.00  0.00    -0.006 C 
ATOM     15  C   UNL     1      34.482 -19.488 -22.784  0.00  0.00    -0.006 C 
ATOM     16  C   UNL     1      35.866 -20.165 -20.923  0.00  0.00    +0.013 C 
ATOM     17  C   UNL     1      36.930 -19.432 -21.447  0.00  0.00    +0.001 C 
ATOM     18  C   UNL     1      34.643 -20.194 -21.592  0.00  0.00    +0.001 C 
BRANCH  13  19
ATOM     19  C   UNL     1      35.374 -17.999 -24.583  0.00  0.00    -0.050 C 
BRANCH  19  20
ATOM     20  N   UNL     1      34.675 -16.732 -24.377  0.00  0.00    +0.387 N 
ATOM     21  N   UNL     1      34.481 -13.850 -24.490  0.00  0.00    +0.384 N 
ATOM     22  C   UNL     1      35.406 -15.881 -23.429  0.00  0.00    -0.100 C 
ATOM     23  C   UNL     1      34.480 -16.031 -25.652  0.00  0.00    -0.100 C 
ATOM     24  C   UNL     1      34.676 -14.551 -23.215  0.00  0.00    -0.101 C 
ATOM     25  C   UNL     1      33.749 -14.701 -25.436  0.00  0.00    -0.101 C 
ATOM     26  H   UNL     1      33.758 -16.940 -23.980  0.00  0.00    -0.079 HD
ATOM     27  H   UNL     1      35.398 -13.643 -24.887  0.00  0.00    -0.080 HD
BRANCH  21  28
ATOM     28  C   UNL     1      33.783 -12.582 -24.285  0.00  0.00    -0.078 C 
ATOM     29  C   UNL     1      34.455 -11.456 -25.051  0.00  0.00    -0.025 C 
ENDBRANCH  21  28
ENDBRANCH  19  20
ENDBRANCH  13  19
ENDBRANCH   5  16
BRANCH   2  30
ATOM     30  C   UNL     1      33.697 -24.034 -15.331  0.00  0.00    +0.093 C 
ATOM     31  C   UNL     1      34.466 -25.353 -15.324  0.00  0.00    +0.026 C 
BRANCH  30  32
ATOM     32  C   UNL     1      32.195 -24.222 -15.337  0.00  0.00    -0.005 C 
ATOM     33  C   UNL     1      31.415 -23.401 -16.132  0.00  0.00    -0.003 C 
ATOM     34  C   UNL     1      31.634 -25.210 -14.546  0.00  0.00    -0.003 C 
ATOM     35  C   UNL     1      30.031 -23.574 -16.138  0.00  0.00    -0.000 C 
ATOM     36  C   UNL     1      30.251 -25.383 -14.551  0.00  0.00    -0.000 C 
ATOM     37  C   UNL     1      29.449 -24.565 -15.347  0.00  0.00    -0.000 C 
ENDBRANCH  30  32
ENDBRANCH   2  30
TORSDOF 6
ENDMDL
MODEL 4
REMARK VINA RESULT:     -10.8      5.087      9.901
REMARK  Name = 10297043
REMARK  6 active torsions:
REMARK  status: ('A' for Active; 'I' for Inactive)
REMARK    1  A    between atoms: N_2  and  C_30
REMARK    2  A    between atoms: C_5  and  C_16
REMARK    3  A    between atoms: C_13  and  C_19
REMARK    4  A    between atoms: C_19  and  N_20
REMARK    5  A    between atoms: N_21  and  C_28
REMARK    6  A    between atoms: C_30  and  C_32
REMARK                            x       y       z     vdW  Elec       q    Type
REMARK                         _______ _______ _______ _____ _____    ______ ____
ROOT
ATOM      1  N   UNL     1      33.717 -14.456 -24.755  0.00  0.00    -0.301 N 
ATOM      2  N   UNL     1      36.006 -17.449 -22.004  0.00  0.00    -0.319 N 
ATOM      3  N   UNL     1      34.296 -16.565 -25.770  0.00  0.00    -0.233 NA
ATOM      4  N   UNL     1      35.486 -18.054 -24.254  0.00  0.00    -0.233 NA
ATOM      5  C   UNL     1      33.883 -13.861 -23.531  0.00  0.00    +0.046 C 
ATOM      6  C   UNL     1      34.813 -15.916 -23.471  0.00  0.00    +0.131 C 
ATOM      7  C   UNL     1      34.559 -14.744 -22.715  0.00  0.00    +0.003 C 
ATOM      8  C   UNL     1      34.278 -15.706 -24.736  0.00  0.00    +0.117 C 
ATOM      9  C   UNL     1      35.435 -17.145 -23.252  0.00  0.00    +0.113 C 
ATOM     10  C   UNL     1      34.922 -17.712 -25.435  0.00  0.00    +0.252 C 
ATOM     11  H   UNL     1      33.265 -14.048 -25.528  0.00  0.00    +0.153 HD
ATOM     12  H   UNL     1      35.958 -16.774 -21.289  0.00  0.00    +0.148 HD
ENDROOT
BRANCH   5  16
ATOM     13  C   UNL     1      32.455  -9.971 -22.722  0.00  0.00    -0.043 C 
ATOM     14  C   UNL     1      33.344 -10.173 -23.772  0.00  0.00    -0.006 C 
ATOM     15  C   UNL     1      32.032 -11.035 -21.935  0.00  0.00    -0.006 C 
ATOM     16  C   UNL     1      33.395 -12.532 -23.254  0.00  0.00    +0.013 C 
ATOM     17  C   UNL     1      33.814 -11.459 -24.039  0.00  0.00    +0.001 C 
ATOM     18  C   UNL     1      32.503 -12.321 -22.203  0.00  0.00    +0.001 C 
BRANCH  13  19
ATOM     19  C   UNL     1      31.948  -8.587 -22.434  0.00  0.00    -0.050 C 
BRANCH  19  20
ATOM     20  N   UNL     1      32.354  -7.632 -23.463  0.00  0.00    +0.387 N 
ATOM     21  N   UNL     1      32.852  -4.957 -24.439  0.00  0.00    +0.384 N 
ATOM     22  C   UNL     1      31.249  -6.722 -23.793  0.00  0.00    -0.100 C 
ATOM     23  C   UNL     1      33.533  -6.871 -23.033  0.00  0.00    -0.100 C 
ATOM     24  C   UNL     1      31.672  -5.717 -24.869  0.00  0.00    -0.101 C 
ATOM     25  C   UNL     1      33.956  -5.866 -24.111  0.00  0.00    -0.101 C 
ATOM     26  H   UNL     1      32.598  -8.158 -24.302  0.00  0.00    -0.079 HD
ATOM     27  H   UNL     1      32.608  -4.432 -23.599  0.00  0.00    -0.080 HD
BRANCH  21  28
ATOM     28  C   UNL     1      33.257  -4.000 -25.467  0.00  0.00    -0.078 C 
ATOM     29  C   UNL     1      33.926  -4.701 -26.637  0.00  0.00    -0.025 C 
ENDBRANCH  21  28
ENDBRANCH  19  20
ENDBRANCH  13  19
ENDBRANCH   5  16
BRANCH   2  30
ATOM     30  C   UNL     1      36.656 -18.694 -21.725  0.00  0.00    +0.093 C 
ATOM     31  C   UNL     1      37.318 -19.211 -23.001  0.00  0.00    +0.026 C 
BRANCH  30  32
ATOM     32  C   UNL     1      35.674 -19.677 -21.126  0.00  0.00    -0.005 C 
ATOM     33  C   UNL     1      36.150 -20.719 -20.348  0.00  0.00    -0.003 C 
ATOM     34  C   UNL     1      34.321 -19.514 -21.368  0.00  0.00    -0.003 C 
ATOM     35  C   UNL     1      35.245 -21.625 -19.796  0.00  0.00    -0.000 C 
ATOM     36  C   UNL     1      33.416 -20.420 -20.816  0.00  0.00    -0.000 C 
ATOM     37  C   UNL     1      33.878 -21.475 -20.031  0.00  0.00    -0.000 C 
ENDBRANCH  30  32
ENDBRANCH   2  30
TORSDOF 6
ENDMDL
MODEL 5
REMARK VINA RESULT:     -10.7      2.380      5.537
REMARK  Name = 10297043
REMARK  6 active torsions:
REMARK  status: ('A' for Active; 'I' for Inactive)
REMARK    1  A    between atoms: N_2  and  C_30
REMARK    2  A    between atoms: C_5  and  C_16
REMARK    3  A    between atoms: C_13  and  C_19
REMARK    4  A    between atoms: C_19  and  N_20
REMARK    5  A    between atoms: N_21  and  C_28
REMARK    6  A    between atoms: C_30  and  C_32
REMARK                            x       y       z     vdW  Elec       q    Type
REMARK                         _______ _______ _______ _____ _____    ______ ____
ROOT
ATOM      1  N   UNL     1      35.245 -22.302 -18.471  0.00  0.00    -0.301 N 
ATOM      2  N   UNL     1      30.912 -23.075 -16.924  0.00  0.00    -0.319 N 
ATOM      3  N   UNL     1      35.069 -23.773 -16.568  0.00  0.00    -0.233 NA
ATOM      4  N   UNL     1      32.770 -24.111 -15.840  0.00  0.00    -0.233 NA
ATOM      5  C   UNL     1      34.382 -21.593 -19.265  0.00  0.00    +0.046 C 
ATOM      6  C   UNL     1      33.189 -22.698 -17.700  0.00  0.00    +0.131 C 
ATOM      7  C   UNL     1      33.099 -21.820 -18.811  0.00  0.00    +0.003 C 
ATOM      8  C   UNL     1      34.537 -22.979 -17.514  0.00  0.00    +0.117 C 
ATOM      9  C   UNL     1      32.296 -23.300 -16.815  0.00  0.00    +0.113 C 
ATOM     10  C   UNL     1      34.108 -24.294 -15.777  0.00  0.00    +0.252 C 
ATOM     11  H   UNL     1      36.224 -22.322 -18.573  0.00  0.00    +0.153 HD
ATOM     12  H   UNL     1      30.588 -22.482 -17.640  0.00  0.00    +0.148 HD
ENDROOT
BRANCH   5  16
ATOM     13  C   UNL     1      35.738 -19.209 -22.475  0.00  0.00    -0.043 C 
ATOM     14  C   UNL     1      34.387 -19.523 -22.374  0.00  0.00    -0.006 C 
ATOM     15  C   UNL     1      36.647 -19.672 -21.531  0.00  0.00    -0.006 C 
ATOM     16  C   UNL     1      34.845 -20.779 -20.361  0.00  0.00    +0.013 C 
ATOM     17  C   UNL     1      33.940 -20.310 -21.313  0.00  0.00    +0.001 C 
ATOM     18  C   UNL     1      36.198 -20.459 -20.470  0.00  0.00    +0.001 C 
BRANCH  13  19
ATOM     19  C   UNL     1      36.220 -18.362 -23.617  0.00  0.00    -0.050 C 
BRANCH  19  20
ATOM     20  N   UNL     1      35.204 -17.408 -24.056  0.00  0.00    +0.387 N 
ATOM     21  N   UNL     1      34.269 -15.211 -25.686  0.00  0.00    +0.384 N 
ATOM     22  C   UNL     1      35.638 -16.029 -23.799  0.00  0.00    -0.100 C 
ATOM     23  C   UNL     1      34.896 -17.592 -25.480  0.00  0.00    -0.100 C 
ATOM     24  C   UNL     1      34.576 -15.026 -24.263  0.00  0.00    -0.101 C 
ATOM     25  C   UNL     1      33.833 -16.589 -25.942  0.00  0.00    -0.101 C 
ATOM     26  H   UNL     1      34.355 -17.583 -23.519  0.00  0.00    -0.079 HD
ATOM     27  H   UNL     1      35.118 -15.037 -26.224  0.00  0.00    -0.080 HD
BRANCH  21  28
ATOM     28  C   UNL     1      33.254 -14.256 -26.127  0.00  0.00    -0.078 C 
ATOM     29  C   UNL     1      33.730 -13.467 -27.335  0.00  0.00    -0.025 C 
ENDBRANCH  21  28
ENDBRANCH  19  20
ENDBRANCH  13  19
ENDBRANCH   5  16
BRANCH   2  30
ATOM     30  C   UNL     1      29.952 -23.668 -16.042  0.00  0.00    +0.093 C 
ATOM     31  C   UNL     1      29.977 -25.184 -16.220  0.00  0.00    +0.026 C 
BRANCH  30  32
ATOM     32  C   UNL     1      28.584 -23.065 -16.273  0.00  0.00    -0.005 C 
ATOM     33  C   UNL     1      28.120 -22.921 -17.570  0.00  0.00    -0.003 C 
ATOM     34  C   UNL     1      27.826 -22.668 -15.185  0.00  0.00    -0.003 C 
ATOM     35  C   UNL     1      26.859 -22.365 -17.784  0.00  0.00    -0.000 C 
ATOM     36  C   UNL     1      26.566 -22.112 -15.400  0.00  0.00    -0.000 C 
ATOM     37  C   UNL     1      26.082 -21.960 -16.699  0.00  0.00    -0.000 C 
ENDBRANCH  30  32
ENDBRANCH   2  30
TORSDOF 6
ENDMDL
MODEL 6
REMARK VINA RESULT:     -10.5      1.392      1.976
REMARK  Name = 10297043
REMARK  6 active torsions:
REMARK  status: ('A' for Active; 'I' for Inactive)
REMARK    1  A    between atoms: N_2  and  C_30
REMARK    2  A    between atoms: C_5  and  C_16
REMARK    3  A    between atoms: C_13  and  C_19
REMARK    4  A    between atoms: C_19  and  N_20
REMARK    5  A    between atoms: N_21  and  C_28
REMARK    6  A    between atoms: C_30  and  C_32
REMARK                            x       y       z     vdW  Elec       q    Type
REMARK                         _______ _______ _______ _____ _____    ______ ____
ROOT
ATOM      1  N   UNL     1      34.207 -22.122 -18.405  0.00  0.00    -0.301 N 
ATOM      2  N   UNL     1      37.359 -24.294 -15.738  0.00  0.00    -0.319 N 
ATOM      3  N   UNL     1      33.305 -23.526 -16.665  0.00  0.00    -0.233 NA
ATOM      4  N   UNL     1      35.028 -24.613 -15.332  0.00  0.00    -0.233 NA
ATOM      5  C   UNL     1      35.454 -21.766 -18.852  0.00  0.00    +0.046 C 
ATOM      6  C   UNL     1      35.683 -23.179 -17.107  0.00  0.00    +0.131 C 
ATOM      7  C   UNL     1      36.388 -22.407 -18.065  0.00  0.00    +0.003 C 
ATOM      8  C   UNL     1      34.328 -22.981 -17.345  0.00  0.00    +0.117 C 
ATOM      9  C   UNL     1      36.014 -24.032 -16.055  0.00  0.00    +0.113 C 
ATOM     10  C   UNL     1      33.752 -24.328 -15.677  0.00  0.00    +0.252 C 
ATOM     11  H   UNL     1      33.356 -21.808 -18.788  0.00  0.00    +0.153 HD
ATOM     12  H   UNL     1      38.061 -23.862 -16.277  0.00  0.00    +0.148 HD
ENDROOT
BRANCH   5  16
ATOM     13  C   UNL     1      35.998 -19.140 -22.112  0.00  0.00    -0.043 C 
ATOM     14  C   UNL     1      37.073 -19.438 -21.282  0.00  0.00    -0.006 C 
ATOM     15  C   UNL     1      34.747 -19.697 -21.880  0.00  0.00    -0.006 C 
ATOM     16  C   UNL     1      35.640 -20.869 -19.966  0.00  0.00    +0.013 C 
ATOM     17  C   UNL     1      36.893 -20.307 -20.206  0.00  0.00    +0.001 C 
ATOM     18  C   UNL     1      34.567 -20.565 -20.803  0.00  0.00    +0.001 C 
BRANCH  13  19
ATOM     19  C   UNL     1      36.192 -18.205 -23.271  0.00  0.00    -0.050 C 
BRANCH  19  20
ATOM     20  N   UNL     1      35.206 -17.127 -23.274  0.00  0.00    +0.387 N 
ATOM     21  N   UNL     1      34.434 -14.344 -23.409  0.00  0.00    +0.384 N 
ATOM     22  C   UNL     1      35.424 -16.219 -22.140  0.00  0.00    -0.100 C 
ATOM     23  C   UNL     1      35.246 -16.385 -24.540  0.00  0.00    -0.100 C 
ATOM     24  C   UNL     1      34.394 -15.085 -22.142  0.00  0.00    -0.101 C 
ATOM     25  C   UNL     1      34.214 -15.252 -24.541  0.00  0.00    -0.101 C 
ATOM     26  H   UNL     1      34.281 -17.546 -23.176  0.00  0.00    -0.079 HD
ATOM     27  H   UNL     1      35.360 -13.926 -23.508  0.00  0.00    -0.080 HD
BRANCH  21  28
ATOM     28  C   UNL     1      33.450 -13.264 -23.411  0.00  0.00    -0.078 C 
ATOM     29  C   UNL     1      32.744 -13.161 -22.070  0.00  0.00    -0.025 C 
ENDBRANCH  21  28
ENDBRANCH  19  20
ENDBRANCH  13  19
ENDBRANCH   5  16
BRANCH   2  30
ATOM     30  C   UNL     1      37.755 -25.162 -14.670  0.00  0.00    +0.093 C 
ATOM     31  C   UNL     1      37.211 -26.564 -14.935  0.00  0.00    +0.026 C 
BRANCH  30  32
ATOM     32  C   UNL     1      37.311 -24.593 -13.340  0.00  0.00    -0.005 C 
ATOM     33  C   UNL     1      37.796 -23.362 -12.936  0.00  0.00    -0.003 C 
ATOM     34  C   UNL     1      36.429 -25.317 -12.556  0.00  0.00    -0.003 C 
ATOM     35  C   UNL     1      37.388 -22.838 -11.710  0.00  0.00    -0.000 C 
ATOM     36  C   UNL     1      36.020 -24.793 -11.330  0.00  0.00    -0.000 C 
ATOM     37  C   UNL     1      36.500 -23.554 -10.907  0.00  0.00    -0.000 C 
ENDBRANCH  30  32
ENDBRANCH   2  30
TORSDOF 6
ENDMDL
MODEL 7
REMARK VINA RESULT:     -10.0      4.667     14.111
REMARK  Name = 10297043
REMARK  6 active torsions:
REMARK  status: ('A' for Active; 'I' for Inactive)
REMARK    1  A    between atoms: N_2  and  C_30
REMARK    2  A    between atoms: C_5  and  C_16
REMARK    3  A    between atoms: C_13  and  C_19
REMARK    4  A    between atoms: C_19  and  N_20
REMARK    5  A    between atoms: N_21  and  C_28
REMARK    6  A    between atoms: C_30  and  C_32
REMARK                            x       y       z     vdW  Elec       q    Type
REMARK                         _______ _______ _______ _____ _____    ______ ____
ROOT
ATOM      1  N   UNL     1      32.892 -12.290 -20.585  0.00  0.00    -0.301 N 
ATOM      2  N   UNL     1      32.429  -8.531 -23.310  0.00  0.00    -0.319 N 
ATOM      3  N   UNL     1      31.830 -10.385 -19.556  0.00  0.00    -0.233 NA
ATOM      4  N   UNL     1      31.636  -8.479 -21.059  0.00  0.00    -0.233 NA
ATOM      5  C   UNL     1      33.426 -12.590 -21.812  0.00  0.00    +0.046 C 
ATOM      6  C   UNL     1      32.652 -10.471 -21.856  0.00  0.00    +0.131 C 
ATOM      7  C   UNL     1      33.290 -11.481 -22.620  0.00  0.00    +0.003 C 
ATOM      8  C   UNL     1      32.418 -11.005 -20.594  0.00  0.00    +0.117 C 
ATOM      9  C   UNL     1      32.235  -9.157 -22.066  0.00  0.00    +0.113 C 
ATOM     10  C   UNL     1      31.474  -9.126 -19.882  0.00  0.00    +0.252 C 
ATOM     11  H   UNL     1      32.856 -12.903 -19.816  0.00  0.00    +0.153 HD
ATOM     12  H   UNL     1      32.867  -9.042 -24.029  0.00  0.00    +0.148 HD
ENDROOT
BRANCH   5  16
ATOM     13  C   UNL     1      35.128 -16.362 -22.647  0.00  0.00    -0.043 C 
ATOM     14  C   UNL     1      34.915 -15.981 -21.327  0.00  0.00    -0.006 C 
ATOM     15  C   UNL     1      34.788 -15.516 -23.695  0.00  0.00    -0.006 C 
ATOM     16  C   UNL     1      34.007 -13.879 -22.098  0.00  0.00    +0.013 C 
ATOM     17  C   UNL     1      34.351 -14.735 -21.052  0.00  0.00    +0.001 C 
ATOM     18  C   UNL     1      34.225 -14.269 -23.419  0.00  0.00    +0.001 C 
BRANCH  13  19
ATOM     19  C   UNL     1      35.735 -17.704 -22.944  0.00  0.00    -0.050 C 
BRANCH  19  20
ATOM     20  N   UNL     1      35.664 -18.602 -21.793  0.00  0.00    +0.387 N 
ATOM     21  N   UNL     1      35.894 -21.192 -20.531  0.00  0.00    +0.384 N 
ATOM     22  C   UNL     1      34.656 -19.647 -22.009  0.00  0.00    -0.100 C 
ATOM     23  C   UNL     1      36.976 -19.202 -21.519  0.00  0.00    -0.100 C 
ATOM     24  C   UNL     1      34.583 -20.593 -20.805  0.00  0.00    -0.101 C 
ATOM     25  C   UNL     1      36.901 -20.147 -20.314  0.00  0.00    -0.101 C 
ATOM     26  H   UNL     1      35.387 -18.050 -20.980  0.00  0.00    -0.079 HD
ATOM     27  H   UNL     1      36.173 -21.743 -21.344  0.00  0.00    -0.080 HD
BRANCH  21  28
ATOM     28  C   UNL     1      35.824 -22.092 -19.381  0.00  0.00    -0.078 C 
ATOM     29  C   UNL     1      36.870 -21.735 -18.339  0.00  0.00    -0.025 C 
ENDBRANCH  21  28
ENDBRANCH  19  20
ENDBRANCH  13  19
ENDBRANCH   5  16
BRANCH   2  30
ATOM     30  C   UNL     1      32.022  -7.185 -23.579  0.00  0.00    +0.093 C 
ATOM     31  C   UNL     1      30.637  -7.200 -24.222  0.00  0.00    +0.026 C 
BRANCH  30  32
ATOM     32  C   UNL     1      33.061  -6.481 -24.424  0.00  0.00    -0.005 C 
ATOM     33  C   UNL     1      32.647  -5.656 -25.456  0.00  0.00    -0.003 C 
ATOM     34  C   UNL     1      34.403  -6.677 -24.149  0.00  0.00    -0.003 C 
ATOM     35  C   UNL     1      33.604  -5.007 -26.235  0.00  0.00    -0.000 C 
ATOM     36  C   UNL     1      35.360  -6.029 -24.928  0.00  0.00    -0.000 C 
ATOM     37  C   UNL     1      34.961  -5.194 -25.971  0.00  0.00    -0.000 C 
ENDBRANCH  30  32
ENDBRANCH   2  30
TORSDOF 6
ENDMDL
MODEL 8
REMARK VINA RESULT:      -9.8      1.696      2.602
REMARK  Name = 10297043
REMARK  6 active torsions:
REMARK  status: ('A' for Active; 'I' for Inactive)
REMARK    1  A    between atoms: N_2  and  C_30
REMARK    2  A    between atoms: C_5  and  C_16
REMARK    3  A    between atoms: C_13  and  C_19
REMARK    4  A    between atoms: C_19  and  N_20
REMARK    5  A    between atoms: N_21  and  C_28
REMARK    6  A    between atoms: C_30  and  C_32
REMARK                            x       y       z     vdW  Elec       q    Type
REMARK                         _______ _______ _______ _____ _____    ______ ____
ROOT
ATOM      1  N   UNL     1      37.290 -20.766 -18.786  0.00  0.00    -0.301 N 
ATOM      2  N   UNL     1      34.505 -23.779 -16.566  0.00  0.00    -0.319 N 
ATOM      3  N   UNL     1      38.145 -21.631 -16.705  0.00  0.00    -0.233 NA
ATOM      4  N   UNL     1      36.620 -23.193 -15.627  0.00  0.00    -0.233 NA
ATOM      5  C   UNL     1      36.153 -20.921 -19.538  0.00  0.00    +0.046 C 
ATOM      6  C   UNL     1      35.987 -22.211 -17.693  0.00  0.00    +0.131 C 
ATOM      7  C   UNL     1      35.328 -21.812 -18.884  0.00  0.00    +0.003 C 
ATOM      8  C   UNL     1      37.205 -21.542 -17.661  0.00  0.00    +0.117 C 
ATOM      9  C   UNL     1      35.712 -23.060 -16.622  0.00  0.00    +0.113 C 
ATOM     10  C   UNL     1      37.764 -22.479 -15.728  0.00  0.00    +0.252 C 
ATOM     11  H   UNL     1      38.049 -20.185 -19.020  0.00  0.00    +0.153 HD
ATOM     12  H   UNL     1      33.858 -23.668 -17.300  0.00  0.00    +0.148 HD
ENDROOT
BRANCH   5  16
ATOM     13  C   UNL     1      35.583 -18.868 -23.182  0.00  0.00    -0.043 C 
ATOM     14  C   UNL     1      36.823 -18.824 -22.555  0.00  0.00    -0.006 C 
ATOM     15  C   UNL     1      34.529 -19.580 -22.623  0.00  0.00    -0.006 C 
ATOM     16  C   UNL     1      35.958 -20.220 -20.783  0.00  0.00    +0.013 C 
ATOM     17  C   UNL     1      37.011 -19.503 -21.351  0.00  0.00    +0.001 C 
ATOM     18  C   UNL     1      34.718 -20.258 -21.419  0.00  0.00    +0.001 C 
BRANCH  13  19
ATOM     19  C   UNL     1      35.380 -18.137 -24.478  0.00  0.00    -0.050 C 
BRANCH  19  20
ATOM     20  N   UNL     1      34.689 -16.864 -24.285  0.00  0.00    +0.387 N 
ATOM     21  N   UNL     1      34.550 -13.977 -24.326  0.00  0.00    +0.384 N 
ATOM     22  C   UNL     1      35.365 -16.054 -23.264  0.00  0.00    -0.100 C 
ATOM     23  C   UNL     1      34.595 -16.123 -25.549  0.00  0.00    -0.100 C 
ATOM     24  C   UNL     1      34.644 -14.717 -23.062  0.00  0.00    -0.101 C 
ATOM     25  C   UNL     1      33.873 -14.787 -25.345  0.00  0.00    -0.101 C 
ATOM     26  H   UNL     1      33.743 -17.066 -23.960  0.00  0.00    -0.079 HD
ATOM     27  H   UNL     1      35.497 -13.776 -24.652  0.00  0.00    -0.080 HD
BRANCH  21  28
ATOM     28  C   UNL     1      33.861 -12.703 -24.133  0.00  0.00    -0.078 C 
ATOM     29  C   UNL     1      34.357 -11.655 -25.114  0.00  0.00    -0.025 C 
ENDBRANCH  21  28
ENDBRANCH  19  20
ENDBRANCH  13  19
ENDBRANCH   5  16
BRANCH   2  30
ATOM     30  C   UNL     1      34.171 -24.663 -15.490  0.00  0.00    +0.093 C 
ATOM     31  C   UNL     1      33.396 -23.889 -14.427  0.00  0.00    +0.026 C 
BRANCH  30  32
ATOM     32  C   UNL     1      35.420 -25.326 -14.950  0.00  0.00    -0.005 C 
ATOM     33  C   UNL     1      36.117 -26.211 -15.755  0.00  0.00    -0.003 C 
ATOM     34  C   UNL     1      35.837 -25.036 -13.663  0.00  0.00    -0.003 C 
ATOM     35  C   UNL     1      37.267 -26.822 -15.258  0.00  0.00    -0.000 C 
ATOM     36  C   UNL     1      36.987 -25.648 -13.166  0.00  0.00    -0.000 C 
ATOM     37  C   UNL     1      37.702 -26.541 -13.963  0.00  0.00    -0.000 C 
ENDBRANCH  30  32
ENDBRANCH   2  30
TORSDOF 6
ENDMDL
MODEL 9
REMARK VINA RESULT:      -9.8      5.532     15.349
REMARK  Name = 10297043
REMARK  6 active torsions:
REMARK  status: ('A' for Active; 'I' for Inactive)
REMARK    1  A    between atoms: N_2  and  C_30
REMARK    2  A    between atoms: C_5  and  C_16
REMARK    3  A    between atoms: C_13  and  C_19
REMARK    4  A    between atoms: C_19  and  N_20
REMARK    5  A    between atoms: N_21  and  C_28
REMARK    6  A    between atoms: C_30  and  C_32
REMARK                            x       y       z     vdW  Elec       q    Type
REMARK                         _______ _______ _______ _____ _____    ______ ____
ROOT
ATOM      1  N   UNL     1      32.761 -10.860 -22.156  0.00  0.00    -0.301 N 
ATOM      2  N   UNL     1      33.392  -6.779 -24.326  0.00  0.00    -0.319 N 
ATOM      3  N   UNL     1      31.926  -8.923 -20.988  0.00  0.00    -0.233 NA
ATOM      4  N   UNL     1      32.304  -6.847 -22.202  0.00  0.00    -0.233 NA
ATOM      5  C   UNL     1      33.403 -11.109 -23.341  0.00  0.00    +0.046 C 
ATOM      6  C   UNL     1      33.043  -8.888 -23.161  0.00  0.00    +0.131 C 
ATOM      7  C   UNL     1      33.591  -9.904 -23.986  0.00  0.00    +0.003 C 
ATOM      8  C   UNL     1      32.535  -9.515 -22.029  0.00  0.00    +0.117 C 
ATOM      9  C   UNL     1      32.909  -7.502 -23.220  0.00  0.00    +0.113 C 
ATOM     10  C   UNL     1      31.857  -7.587 -21.163  0.00  0.00    +0.252 C 
ATOM     11  H   UNL     1      32.502 -11.544 -21.496  0.00  0.00    +0.153 HD
ATOM     12  H   UNL     1      33.829  -7.275 -25.056  0.00  0.00    +0.148 HD
ENDROOT
BRANCH   5  16
ATOM     13  C   UNL     1      34.491 -15.014 -24.521  0.00  0.00    -0.043 C 
ATOM     14  C   UNL     1      34.514 -14.671 -23.174  0.00  0.00    -0.006 C 
ATOM     15  C   UNL     1      34.113 -14.085 -25.484  0.00  0.00    -0.006 C 
ATOM     16  C   UNL     1      33.774 -12.443 -23.745  0.00  0.00    +0.013 C 
ATOM     17  C   UNL     1      34.153 -13.380 -22.785  0.00  0.00    +0.001 C 
ATOM     18  C   UNL     1      33.753 -12.795 -25.094  0.00  0.00    +0.001 C 
BRANCH  13  19
ATOM     19  C   UNL     1      34.878 -16.402 -24.941  0.00  0.00    -0.050 C 
BRANCH  19  20
ATOM     20  N   UNL     1      34.779 -17.354 -23.837  0.00  0.00    +0.387 N 
ATOM     21  N   UNL     1      35.783 -19.522 -22.208  0.00  0.00    +0.384 N 
ATOM     22  C   UNL     1      34.803 -18.736 -24.336  0.00  0.00    -0.100 C 
ATOM     23  C   UNL     1      35.860 -17.141 -22.866  0.00  0.00    -0.100 C 
ATOM     24  C   UNL     1      34.703 -19.736 -23.179  0.00  0.00    -0.101 C 
ATOM     25  C   UNL     1      35.758 -18.142 -21.709  0.00  0.00    -0.101 C 
ATOM     26  H   UNL     1      33.888 -17.198 -23.366  0.00  0.00    -0.079 HD
ATOM     27  H   UNL     1      36.675 -19.677 -22.680  0.00  0.00    -0.080 HD
BRANCH  21  28
ATOM     28  C   UNL     1      35.686 -20.475 -21.105  0.00  0.00    -0.078 C 
ATOM     29  C   UNL     1      34.263 -20.562 -20.578  0.00  0.00    -0.025 C 
ENDBRANCH  21  28
ENDBRANCH  19  20
ENDBRANCH  13  19
ENDBRANCH   5  16
BRANCH   2  30
ATOM     30  C   UNL     1      33.281  -5.356 -24.438  0.00  0.00    +0.093 C 
ATOM     31  C   UNL     1      31.806  -4.976 -24.542  0.00  0.00    +0.026 C 
BRANCH  30  32
ATOM     32  C   UNL     1      34.107  -4.855 -25.602  0.00  0.00    -0.005 C 
ATOM     33  C   UNL     1      35.309  -5.478 -25.896  0.00  0.00    -0.003 C 
ATOM     34  C   UNL     1      33.646  -3.785 -26.349  0.00  0.00    -0.003 C 
ATOM     35  C   UNL     1      36.071  -5.016 -26.968  0.00  0.00    -0.000 C 
ATOM     36  C   UNL     1      34.408  -3.324 -27.422  0.00  0.00    -0.000 C 
ATOM     37  C   UNL     1      35.620  -3.939 -27.731  0.00  0.00    -0.000 C 
ENDBRANCH  30  32
ENDBRANCH   2  30
TORSDOF 6
ENDMDL
