MODEL 1
REMARK VINA RESULT:     -11.8      0.000      0.000
REMARK  Name = 25058128
REMARK  13 active torsions:
REMARK  status: ('A' for Active; 'I' for Inactive)
REMARK    1  A    between atoms: C_1  and  S_11
REMARK    2  A    between atoms: C_9  and  O_27
REMARK    3  A    between atoms: S_11  and  N_14
REMARK    4  A    between atoms: N_14  and  C_16
REMARK    5  A    between atoms: C_16  and  C_18
REMARK    6  A    between atoms: C_16  and  C_21
REMARK    7  A    between atoms: C_18  and  O_19
REMARK    8  A    between atoms: C_21  and  C_22
REMARK    9  A    between atoms: C_22  and  C_24
REMARK   10  A    between atoms: C_24  and  O_25
REMARK   11  A    between atoms: O_27  and  C_28
REMARK   12  A    between atoms: C_28  and  C_30
REMARK   13  A    between atoms: C_35  and  C_37
REMARK                            x       y       z     vdW  Elec       q    Type
REMARK                         _______ _______ _______ _____ _____    ______ ____
ROOT
ATOM      1  C   UNL     1      35.845 -23.012 -16.810  0.00  0.00    +0.122 C 
ATOM      2  C   UNL     1      34.860 -22.001 -18.790  0.00  0.00    +0.002 C 
ATOM      3  C   UNL     1      34.745 -22.796 -17.638  0.00  0.00    +0.020 C 
ATOM      4  C   UNL     1      36.110 -21.416 -19.104  0.00  0.00    +0.003 C 
ATOM      5  C   UNL     1      37.074 -22.438 -17.118  0.00  0.00    +0.020 C 
ATOM      6  C   UNL     1      37.207 -21.644 -18.258  0.00  0.00    +0.001 C 
ATOM      7  C   UNL     1      36.226 -20.620 -20.256  0.00  0.00    +0.037 C 
ATOM      8  C   UNL     1      33.763 -21.772 -19.637  0.00  0.00    +0.003 C 
ATOM      9  C   UNL     1      35.125 -20.404 -21.086  0.00  0.00    +0.139 C 
ATOM     10  C   UNL     1      33.896 -20.979 -20.777  0.00  0.00    +0.037 C 
ENDROOT
BRANCH   1  11
ATOM     11  S   UNL     1      35.678 -24.017 -15.364  0.00  0.00    +0.061 S 
ATOM     12  O   UNL     1      34.587 -23.484 -14.572  0.00  0.00    -0.153 OA
ATOM     13  O   UNL     1      35.650 -25.397 -15.810  0.00  0.00    -0.153 OA
BRANCH  11  14
ATOM     14  N   UNL     1      37.150 -23.727 -14.566  0.00  0.00    -0.170 NA
ATOM     15  H   UNL     1      36.994 -22.941 -13.935  0.00  0.00    +0.149 HD
BRANCH  14  16
ATOM     16  C   UNL     1      37.780 -24.799 -13.764  0.00  0.00    +0.174 C 
BRANCH  16  18
ATOM     17  O   UNL     1      40.176 -25.058 -14.090  0.00  0.00    -0.249 OA
ATOM     18  C   UNL     1      39.031 -25.247 -14.481  0.00  0.00    +0.330 C 
BRANCH  18  19
ATOM     19  O   UNL     1      38.751 -25.917 -15.629  0.00  0.00    -0.479 OA
ATOM     20  H   UNL     1      38.217 -26.686 -15.605  0.00  0.00    +0.295 HD
ENDBRANCH  18  19
ENDBRANCH  16  18
BRANCH  16  21
ATOM     21  C   UNL     1      38.005 -24.329 -12.322  0.00  0.00    +0.040 C 
BRANCH  21  22
ATOM     22  C   UNL     1      36.834 -23.605 -11.651  0.00  0.00    +0.111 C 
BRANCH  22  24
ATOM     23  O   UNL     1      35.701 -24.752  -9.852  0.00  0.00    -0.250 OA
ATOM     24  C   UNL     1      35.806 -24.531 -11.053  0.00  0.00    +0.314 C 
BRANCH  24  25
ATOM     25  O   UNL     1      35.013 -25.112 -11.987  0.00  0.00    -0.480 OA
ATOM     26  H   UNL     1      34.308 -24.626 -12.370  0.00  0.00    +0.295 HD
ENDBRANCH  24  25
ENDBRANCH  22  24
ENDBRANCH  21  22
ENDBRANCH  16  21
ENDBRANCH  14  16
ENDBRANCH  11  14
ENDBRANCH   1  11
BRANCH   9  27
ATOM     27  O   UNL     1      35.253 -19.630 -22.197  0.00  0.00    -0.471 OA
BRANCH  27  28
ATOM     28  C   UNL     1      35.868 -18.353 -22.032  0.00  0.00    +0.234 C 
BRANCH  28  30
ATOM     29  F   UNL     1      35.320 -15.615 -21.567  0.00  0.00    -0.204 F 
ATOM     30  C   UNL     1      35.367 -17.426 -23.100  0.00  0.00    +0.049 C 
ATOM     31  C   UNL     1      35.115 -16.086 -22.805  0.00  0.00    +0.140 C 
ATOM     32  C   UNL     1      35.152 -17.907 -24.392  0.00  0.00    +0.002 C 
ATOM     33  C   UNL     1      34.649 -15.228 -23.801  0.00  0.00    +0.040 C 
ATOM     34  C   UNL     1      34.686 -17.049 -25.388  0.00  0.00    +0.010 C 
ATOM     35  C   UNL     1      34.434 -15.709 -25.093  0.00  0.00    +0.071 C 
BRANCH  35  37
ATOM     36  N   UNL     1      33.571 -14.114 -26.941  0.00  0.00    -0.191 NA
ATOM     37  C   UNL     1      33.958 -14.829 -26.113  0.00  0.00    +0.100 C 
ENDBRANCH  35  37
ENDBRANCH  28  30
ENDBRANCH  27  28
ENDBRANCH   9  27
TORSDOF 13
ENDMDL
MODEL 2
REMARK VINA RESULT:     -11.7      1.128      2.739
REMARK  Name = 25058128
REMARK  13 active torsions:
REMARK  status: ('A' for Active; 'I' for Inactive)
REMARK    1  A    between atoms: C_1  and  S_11
REMARK    2  A    between atoms: C_9  and  O_27
REMARK    3  A    between atoms: S_11  and  N_14
REMARK    4  A    between atoms: N_14  and  C_16
REMARK    5  A    between atoms: C_16  and  C_18
REMARK    6  A    between atoms: C_16  and  C_21
REMARK    7  A    between atoms: C_18  and  O_19
REMARK    8  A    between atoms: C_21  and  C_22
REMARK    9  A    between atoms: C_22  and  C_24
REMARK   10  A    between atoms: C_24  and  O_25
REMARK   11  A    between atoms: O_27  and  C_28
REMARK   12  A    between atoms: C_28  and  C_30
REMARK   13  A    between atoms: C_35  and  C_37
REMARK                            x       y       z     vdW  Elec       q    Type
REMARK                         _______ _______ _______ _____ _____    ______ ____
ROOT
ATOM      1  C   UNL     1      36.040 -23.404 -15.997  0.00  0.00    +0.122 C 
ATOM      2  C   UNL     1      34.914 -22.569 -17.985  0.00  0.00    +0.002 C 
ATOM      3  C   UNL     1      34.892 -23.293 -16.782  0.00  0.00    +0.020 C 
ATOM      4  C   UNL     1      36.118 -21.949 -18.397  0.00  0.00    +0.003 C 
ATOM      5  C   UNL     1      37.223 -22.793 -16.402  0.00  0.00    +0.020 C 
ATOM      6  C   UNL     1      37.263 -22.070 -17.595  0.00  0.00    +0.001 C 
ATOM      7  C   UNL     1      36.140 -21.224 -19.601  0.00  0.00    +0.037 C 
ATOM      8  C   UNL     1      33.768 -22.447 -18.789  0.00  0.00    +0.003 C 
ATOM      9  C   UNL     1      34.991 -21.114 -20.386  0.00  0.00    +0.139 C 
ATOM     10  C   UNL     1      33.808 -21.724 -19.981  0.00  0.00    +0.037 C 
ENDROOT
BRANCH   1  11
ATOM     11  S   UNL     1      35.991 -24.320 -14.485  0.00  0.00    +0.061 S 
ATOM     12  O   UNL     1      34.780 -23.952 -13.779  0.00  0.00    -0.153 OA
ATOM     13  O   UNL     1      36.246 -25.707 -14.824  0.00  0.00    -0.153 OA
BRANCH  11  14
ATOM     14  N   UNL     1      37.339 -23.699 -13.658  0.00  0.00    -0.170 NA
ATOM     15  H   UNL     1      37.041 -22.827 -13.219  0.00  0.00    +0.149 HD
BRANCH  14  16
ATOM     16  C   UNL     1      37.995 -24.504 -12.604  0.00  0.00    +0.174 C 
BRANCH  16  18
ATOM     17  O   UNL     1      36.227 -24.557 -10.934  0.00  0.00    -0.249 OA
ATOM     18  C   UNL     1      36.916 -25.141 -11.762  0.00  0.00    +0.330 C 
BRANCH  18  19
ATOM     19  O   UNL     1      36.765 -26.463 -12.036  0.00  0.00    -0.479 OA
ATOM     20  H   UNL     1      36.653 -27.077 -11.338  0.00  0.00    +0.295 HD
ENDBRANCH  18  19
ENDBRANCH  16  18
BRANCH  16  21
ATOM     21  C   UNL     1      38.987 -25.495 -13.225  0.00  0.00    +0.040 C 
BRANCH  21  22
ATOM     22  C   UNL     1      39.672 -25.051 -14.520  0.00  0.00    +0.111 C 
BRANCH  22  24
ATOM     23  O   UNL     1      41.360 -26.773 -14.371  0.00  0.00    -0.250 OA
ATOM     24  C   UNL     1      40.651 -26.058 -15.069  0.00  0.00    +0.314 C 
BRANCH  24  25
ATOM     25  O   UNL     1      40.680 -26.079 -16.425  0.00  0.00    -0.480 OA
ATOM     26  H   UNL     1      40.221 -25.423 -16.913  0.00  0.00    +0.295 HD
ENDBRANCH  24  25
ENDBRANCH  22  24
ENDBRANCH  21  22
ENDBRANCH  16  21
ENDBRANCH  14  16
ENDBRANCH  11  14
ENDBRANCH   1  11
BRANCH   9  27
ATOM     27  O   UNL     1      35.028 -20.407 -21.549  0.00  0.00    -0.471 OA
BRANCH  27  28
ATOM     28  C   UNL     1      35.839 -19.233 -21.571  0.00  0.00    +0.234 C 
BRANCH  28  30
ATOM     29  F   UNL     1      35.680 -16.411 -21.416  0.00  0.00    -0.204 F 
ATOM     30  C   UNL     1      35.425 -18.373 -22.728  0.00  0.00    +0.049 C 
ATOM     31  C   UNL     1      35.366 -16.987 -22.585  0.00  0.00    +0.140 C 
ATOM     32  C   UNL     1      35.098 -18.963 -23.949  0.00  0.00    +0.002 C 
ATOM     33  C   UNL     1      34.980 -16.191 -23.664  0.00  0.00    +0.040 C 
ATOM     34  C   UNL     1      34.712 -18.166 -25.027  0.00  0.00    +0.010 C 
ATOM     35  C   UNL     1      34.653 -16.780 -24.884  0.00  0.00    +0.071 C 
BRANCH  35  37
ATOM     36  N   UNL     1      33.941 -15.301 -26.887  0.00  0.00    -0.191 NA
ATOM     37  C   UNL     1      34.259 -15.964 -25.989  0.00  0.00    +0.100 C 
ENDBRANCH  35  37
ENDBRANCH  28  30
ENDBRANCH  27  28
ENDBRANCH   9  27
TORSDOF 13
ENDMDL
MODEL 3
REMARK VINA RESULT:     -11.3      2.456      4.072
REMARK  Name = 25058128
REMARK  13 active torsions:
REMARK  status: ('A' for Active; 'I' for Inactive)
REMARK    1  A    between atoms: C_1  and  S_11
REMARK    2  A    between atoms: C_9  and  O_27
REMARK    3  A    between atoms: S_11  and  N_14
REMARK    4  A    between atoms: N_14  and  C_16
REMARK    5  A    between atoms: C_16  and  C_18
REMARK    6  A    between atoms: C_16  and  C_21
REMARK    7  A    between atoms: C_18  and  O_19
REMARK    8  A    between atoms: C_21  and  C_22
REMARK    9  A    between atoms: C_22  and  C_24
REMARK   10  A    between atoms: C_24  and  O_25
REMARK   11  A    between atoms: O_27  and  C_28
REMARK   12  A    between atoms: C_28  and  C_30
REMARK   13  A    between atoms: C_35  and  C_37
REMARK                            x       y       z     vdW  Elec       q    Type
REMARK                         _______ _______ _______ _____ _____    ______ ____
ROOT
ATOM      1  C   UNL     1      35.746 -23.007 -16.669  0.00  0.00    +0.122 C 
ATOM      2  C   UNL     1      34.918 -21.991 -18.718  0.00  0.00    +0.002 C 
ATOM      3  C   UNL     1      34.708 -22.775 -17.571  0.00  0.00    +0.020 C 
ATOM      4  C   UNL     1      36.199 -21.436 -18.952  0.00  0.00    +0.003 C 
ATOM      5  C   UNL     1      37.005 -22.460 -16.898  0.00  0.00    +0.020 C 
ATOM      6  C   UNL     1      37.231 -21.679 -18.032  0.00  0.00    +0.001 C 
ATOM      7  C   UNL     1      36.409 -20.652 -20.098  0.00  0.00    +0.037 C 
ATOM      8  C   UNL     1      33.885 -21.747 -19.638  0.00  0.00    +0.003 C 
ATOM      9  C   UNL     1      35.371 -20.420 -21.002  0.00  0.00    +0.139 C 
ATOM     10  C   UNL     1      34.112 -20.966 -20.772  0.00  0.00    +0.037 C 
ENDROOT
BRANCH   1  11
ATOM     11  S   UNL     1      35.461 -23.996 -15.231  0.00  0.00    +0.061 S 
ATOM     12  O   UNL     1      35.325 -25.375 -15.656  0.00  0.00    -0.153 OA
ATOM     13  O   UNL     1      36.472 -23.627 -14.258  0.00  0.00    -0.153 OA
BRANCH  11  14
ATOM     14  N   UNL     1      33.953 -23.417 -14.702  0.00  0.00    -0.170 NA
ATOM     15  H   UNL     1      33.741 -22.590 -15.262  0.00  0.00    +0.149 HD
BRANCH  14  16
ATOM     16  C   UNL     1      32.762 -24.292 -14.765  0.00  0.00    +0.174 C 
BRANCH  16  18
ATOM     17  O   UNL     1      31.091 -24.873 -13.097  0.00  0.00    -0.249 OA
ATOM     18  C   UNL     1      32.007 -24.148 -13.466  0.00  0.00    +0.330 C 
BRANCH  18  19
ATOM     19  O   UNL     1      32.471 -23.116 -12.715  0.00  0.00    -0.479 OA
ATOM     20  H   UNL     1      33.343 -23.140 -12.373  0.00  0.00    +0.295 HD
ENDBRANCH  18  19
ENDBRANCH  16  18
BRANCH  16  21
ATOM     21  C   UNL     1      31.936 -23.985 -16.021  0.00  0.00    +0.040 C 
BRANCH  21  22
ATOM     22  C   UNL     1      31.007 -22.770 -15.945  0.00  0.00    +0.111 C 
BRANCH  22  24
ATOM     23  O   UNL     1      28.960 -24.038 -15.757  0.00  0.00    -0.250 OA
ATOM     24  C   UNL     1      29.563 -23.087 -16.239  0.00  0.00    +0.314 C 
BRANCH  24  25
ATOM     25  O   UNL     1      28.999 -22.215 -17.112  0.00  0.00    -0.480 OA
ATOM     26  H   UNL     1      28.067 -22.181 -17.202  0.00  0.00    +0.295 HD
ENDBRANCH  24  25
ENDBRANCH  22  24
ENDBRANCH  21  22
ENDBRANCH  16  21
ENDBRANCH  14  16
ENDBRANCH  11  14
ENDBRANCH   1  11
BRANCH   9  27
ATOM     27  O   UNL     1      35.590 -19.657 -22.107  0.00  0.00    -0.471 OA
BRANCH  27  28
ATOM     28  C   UNL     1      35.923 -18.286 -21.896  0.00  0.00    +0.234 C 
BRANCH  28  30
ATOM     29  F   UNL     1      35.391 -15.512 -21.713  0.00  0.00    -0.204 F 
ATOM     30  C   UNL     1      35.413 -17.474 -23.049  0.00  0.00    +0.049 C 
ATOM     31  C   UNL     1      35.170 -16.110 -22.893  0.00  0.00    +0.140 C 
ATOM     32  C   UNL     1      35.182 -18.087 -24.281  0.00  0.00    +0.002 C 
ATOM     33  C   UNL     1      34.696 -15.358 -23.968  0.00  0.00    +0.040 C 
ATOM     34  C   UNL     1      34.707 -17.335 -25.356  0.00  0.00    +0.010 C 
ATOM     35  C   UNL     1      34.463 -15.970 -25.199  0.00  0.00    +0.071 C 
BRANCH  35  37
ATOM     36  N   UNL     1      33.586 -14.574 -27.196  0.00  0.00    -0.191 NA
ATOM     37  C   UNL     1      33.979 -15.200 -26.301  0.00  0.00    +0.100 C 
ENDBRANCH  35  37
ENDBRANCH  28  30
ENDBRANCH  27  28
ENDBRANCH   9  27
TORSDOF 13
ENDMDL
MODEL 4
REMARK VINA RESULT:     -10.8      3.627     11.543
REMARK  Name = 25058128
REMARK  13 active torsions:
REMARK  status: ('A' for Active; 'I' for Inactive)
REMARK    1  A    between atoms: C_1  and  S_11
REMARK    2  A    between atoms: C_9  and  O_27
REMARK    3  A    between atoms: S_11  and  N_14
REMARK    4  A    between atoms: N_14  and  C_16
REMARK    5  A    between atoms: C_16  and  C_18
REMARK    6  A    between atoms: C_16  and  C_21
REMARK    7  A    between atoms: C_18  and  O_19
REMARK    8  A    between atoms: C_21  and  C_22
REMARK    9  A    between atoms: C_22  and  C_24
REMARK   10  A    between atoms: C_24  and  O_25
REMARK   11  A    between atoms: O_27  and  C_28
REMARK   12  A    between atoms: C_28  and  C_30
REMARK   13  A    between atoms: C_35  and  C_37
REMARK                            x       y       z     vdW  Elec       q    Type
REMARK                         _______ _______ _______ _____ _____    ______ ____
ROOT
ATOM      1  C   UNL     1      35.726 -19.778 -21.482  0.00  0.00    +0.122 C 
ATOM      2  C   UNL     1      34.497 -21.225 -19.962  0.00  0.00    +0.002 C 
ATOM      3  C   UNL     1      34.526 -20.343 -21.055  0.00  0.00    +0.020 C 
ATOM      4  C   UNL     1      35.705 -21.537 -19.294  0.00  0.00    +0.003 C 
ATOM      5  C   UNL     1      36.914 -20.085 -20.825  0.00  0.00    +0.020 C 
ATOM      6  C   UNL     1      36.905 -20.959 -19.738  0.00  0.00    +0.001 C 
ATOM      7  C   UNL     1      35.678 -22.419 -18.201  0.00  0.00    +0.037 C 
ATOM      8  C   UNL     1      33.297 -21.804 -19.518  0.00  0.00    +0.003 C 
ATOM      9  C   UNL     1      34.476 -22.985 -17.773  0.00  0.00    +0.139 C 
ATOM     10  C   UNL     1      33.288 -22.678 -18.430  0.00  0.00    +0.037 C 
ENDROOT
BRANCH   1  11
ATOM     11  S   UNL     1      35.740 -18.670 -22.861  0.00  0.00    +0.061 S 
ATOM     12  O   UNL     1      37.068 -18.695 -23.441  0.00  0.00    -0.153 OA
ATOM     13  O   UNL     1      34.582 -18.992 -23.672  0.00  0.00    -0.153 OA
BRANCH  11  14
ATOM     14  N   UNL     1      35.482 -17.170 -22.105  0.00  0.00    -0.170 NA
ATOM     15  H   UNL     1      36.400 -16.806 -21.848  0.00  0.00    +0.149 HD
BRANCH  14  16
ATOM     16  C   UNL     1      34.782 -16.087 -22.832  0.00  0.00    +0.174 C 
BRANCH  16  18
ATOM     17  O   UNL     1      34.627 -14.945 -20.690  0.00  0.00    -0.249 OA
ATOM     18  C   UNL     1      34.685 -14.894 -21.913  0.00  0.00    +0.330 C 
BRANCH  18  19
ATOM     19  O   UNL     1      34.688 -13.719 -22.596  0.00  0.00    -0.479 OA
ATOM     20  H   UNL     1      33.879 -13.293 -22.799  0.00  0.00    +0.295 HD
ENDBRANCH  18  19
ENDBRANCH  16  18
BRANCH  16  21
ATOM     21  C   UNL     1      35.474 -15.806 -24.171  0.00  0.00    +0.040 C 
BRANCH  21  22
ATOM     22  C   UNL     1      34.690 -16.174 -25.433  0.00  0.00    +0.111 C 
BRANCH  22  24
ATOM     23  O   UNL     1      33.287 -14.213 -25.285  0.00  0.00    -0.250 OA
ATOM     24  C   UNL     1      33.852 -15.047 -25.982  0.00  0.00    +0.314 C 
BRANCH  24  25
ATOM     25  O   UNL     1      33.773 -15.060 -27.336  0.00  0.00    -0.480 OA
ATOM     26  H   UNL     1      33.529 -15.848 -27.783  0.00  0.00    +0.295 HD
ENDBRANCH  24  25
ENDBRANCH  22  24
ENDBRANCH  21  22
ENDBRANCH  16  21
ENDBRANCH  14  16
ENDBRANCH  11  14
ENDBRANCH   1  11
BRANCH   9  27
ATOM     27  O   UNL     1      34.466 -23.839 -16.714  0.00  0.00    -0.471 OA
BRANCH  27  28
ATOM     28  C   UNL     1      35.095 -23.393 -15.514  0.00  0.00    +0.234 C 
BRANCH  28  30
ATOM     29  F   UNL     1      37.603 -22.083 -15.606  0.00  0.00    -0.204 F 
ATOM     30  C   UNL     1      36.400 -24.113 -15.348  0.00  0.00    +0.049 C 
ATOM     31  C   UNL     1      37.602 -23.408 -15.405  0.00  0.00    +0.140 C 
ATOM     32  C   UNL     1      36.410 -25.492 -15.136  0.00  0.00    +0.002 C 
ATOM     33  C   UNL     1      38.814 -24.082 -15.251  0.00  0.00    +0.040 C 
ATOM     34  C   UNL     1      37.622 -26.166 -14.982  0.00  0.00    +0.010 C 
ATOM     35  C   UNL     1      38.824 -25.461 -15.040  0.00  0.00    +0.071 C 
BRANCH  35  37
ATOM     36  N   UNL     1      41.073 -26.710 -14.749  0.00  0.00    -0.191 NA
ATOM     37  C   UNL     1      40.065 -26.150 -14.880  0.00  0.00    +0.100 C 
ENDBRANCH  35  37
ENDBRANCH  28  30
ENDBRANCH  27  28
ENDBRANCH   9  27
TORSDOF 13
ENDMDL
MODEL 5
REMARK VINA RESULT:     -10.7      1.494      2.861
REMARK  Name = 25058128
REMARK  13 active torsions:
REMARK  status: ('A' for Active; 'I' for Inactive)
REMARK    1  A    between atoms: C_1  and  S_11
REMARK    2  A    between atoms: C_9  and  O_27
REMARK    3  A    between atoms: S_11  and  N_14
REMARK    4  A    between atoms: N_14  and  C_16
REMARK    5  A    between atoms: C_16  and  C_18
REMARK    6  A    between atoms: C_16  and  C_21
REMARK    7  A    between atoms: C_18  and  O_19
REMARK    8  A    between atoms: C_21  and  C_22
REMARK    9  A    between atoms: C_22  and  C_24
REMARK   10  A    between atoms: C_24  and  O_25
REMARK   11  A    between atoms: O_27  and  C_28
REMARK   12  A    between atoms: C_28  and  C_30
REMARK   13  A    between atoms: C_35  and  C_37
REMARK                            x       y       z     vdW  Elec       q    Type
REMARK                         _______ _______ _______ _____ _____    ______ ____
ROOT
ATOM      1  C   UNL     1      35.816 -23.112 -16.793  0.00  0.00    +0.122 C 
ATOM      2  C   UNL     1      34.672 -22.070 -18.669  0.00  0.00    +0.002 C 
ATOM      3  C   UNL     1      34.655 -22.896 -17.533  0.00  0.00    +0.020 C 
ATOM      4  C   UNL     1      35.886 -21.453 -19.057  0.00  0.00    +0.003 C 
ATOM      5  C   UNL     1      37.009 -22.505 -17.174  0.00  0.00    +0.020 C 
ATOM      6  C   UNL     1      37.045 -21.681 -18.299  0.00  0.00    +0.001 C 
ATOM      7  C   UNL     1      35.903 -20.626 -20.192  0.00  0.00    +0.037 C 
ATOM      8  C   UNL     1      33.512 -21.842 -19.428  0.00  0.00    +0.003 C 
ATOM      9  C   UNL     1      34.741 -20.410 -20.934  0.00  0.00    +0.139 C 
ATOM     10  C   UNL     1      33.548 -21.017 -20.553  0.00  0.00    +0.037 C 
ENDROOT
BRANCH   1  11
ATOM     11  S   UNL     1      35.773 -24.156 -15.366  0.00  0.00    +0.061 S 
ATOM     12  O   UNL     1      34.388 -24.310 -14.967  0.00  0.00    -0.153 OA
ATOM     13  O   UNL     1      36.578 -25.323 -15.673  0.00  0.00    -0.153 OA
BRANCH  11  14
ATOM     14  N   UNL     1      36.591 -23.210 -14.216  0.00  0.00    -0.170 NA
ATOM     15  H   UNL     1      35.908 -22.959 -13.501  0.00  0.00    +0.149 HD
BRANCH  14  16
ATOM     16  C   UNL     1      37.768 -23.761 -13.508  0.00  0.00    +0.174 C 
BRANCH  16  18
ATOM     17  O   UNL     1      37.313 -23.962 -11.128  0.00  0.00    -0.249 OA
ATOM     18  C   UNL     1      37.712 -23.294 -12.074  0.00  0.00    +0.330 C 
BRANCH  18  19
ATOM     19  O   UNL     1      38.180 -22.027 -11.928  0.00  0.00    -0.479 OA
ATOM     20  H   UNL     1      38.199 -21.447 -12.664  0.00  0.00    +0.295 HD
ENDBRANCH  18  19
ENDBRANCH  16  18
BRANCH  16  21
ATOM     21  C   UNL     1      37.835 -25.283 -13.682  0.00  0.00    +0.040 C 
BRANCH  21  22
ATOM     22  C   UNL     1      39.190 -25.941 -13.411  0.00  0.00    +0.111 C 
BRANCH  22  24
ATOM     23  O   UNL     1      41.199 -26.503 -14.629  0.00  0.00    -0.250 OA
ATOM     24  C   UNL     1      40.028 -26.146 -14.648  0.00  0.00    +0.314 C 
BRANCH  24  25
ATOM     25  O   UNL     1      39.352 -25.875 -15.793  0.00  0.00    -0.480 OA
ATOM     26  H   UNL     1      39.727 -25.302 -16.433  0.00  0.00    +0.295 HD
ENDBRANCH  24  25
ENDBRANCH  22  24
ENDBRANCH  21  22
ENDBRANCH  16  21
ENDBRANCH  14  16
ENDBRANCH  11  14
ENDBRANCH   1  11
BRANCH   9  27
ATOM     27  O   UNL     1      34.774 -19.605 -22.031  0.00  0.00    -0.471 OA
BRANCH  27  28
ATOM     28  C   UNL     1      35.929 -18.784 -22.200  0.00  0.00    +0.234 C 
BRANCH  28  30
ATOM     29  F   UNL     1      35.623 -17.811 -24.840  0.00  0.00    -0.204 F 
ATOM     30  C   UNL     1      35.493 -17.383 -22.509  0.00  0.00    +0.049 C 
ATOM     31  C   UNL     1      35.363 -16.965 -23.834  0.00  0.00    +0.140 C 
ATOM     32  C   UNL     1      35.217 -16.496 -21.468  0.00  0.00    +0.002 C 
ATOM     33  C   UNL     1      34.957 -15.660 -24.117  0.00  0.00    +0.040 C 
ATOM     34  C   UNL     1      34.813 -15.191 -21.752  0.00  0.00    +0.010 C 
ATOM     35  C   UNL     1      34.683 -14.773 -23.076  0.00  0.00    +0.071 C 
BRANCH  35  37
ATOM     36  N   UNL     1      33.927 -12.353 -23.602  0.00  0.00    -0.191 NA
ATOM     37  C   UNL     1      34.266 -13.438 -23.367  0.00  0.00    +0.100 C 
ENDBRANCH  35  37
ENDBRANCH  28  30
ENDBRANCH  27  28
ENDBRANCH   9  27
TORSDOF 13
ENDMDL
MODEL 6
REMARK VINA RESULT:     -10.7      1.616      2.127
REMARK  Name = 25058128
REMARK  13 active torsions:
REMARK  status: ('A' for Active; 'I' for Inactive)
REMARK    1  A    between atoms: C_1  and  S_11
REMARK    2  A    between atoms: C_9  and  O_27
REMARK    3  A    between atoms: S_11  and  N_14
REMARK    4  A    between atoms: N_14  and  C_16
REMARK    5  A    between atoms: C_16  and  C_18
REMARK    6  A    between atoms: C_16  and  C_21
REMARK    7  A    between atoms: C_18  and  O_19
REMARK    8  A    between atoms: C_21  and  C_22
REMARK    9  A    between atoms: C_22  and  C_24
REMARK   10  A    between atoms: C_24  and  O_25
REMARK   11  A    between atoms: O_27  and  C_28
REMARK   12  A    between atoms: C_28  and  C_30
REMARK   13  A    between atoms: C_35  and  C_37
REMARK                            x       y       z     vdW  Elec       q    Type
REMARK                         _______ _______ _______ _____ _____    ______ ____
ROOT
ATOM      1  C   UNL     1      35.587 -22.523 -17.739  0.00  0.00    +0.122 C 
ATOM      2  C   UNL     1      35.063 -21.257 -19.749  0.00  0.00    +0.002 C 
ATOM      3  C   UNL     1      34.676 -22.132 -18.720  0.00  0.00    +0.020 C 
ATOM      4  C   UNL     1      36.393 -20.773 -19.782  0.00  0.00    +0.003 C 
ATOM      5  C   UNL     1      36.894 -22.047 -17.771  0.00  0.00    +0.020 C 
ATOM      6  C   UNL     1      37.296 -21.177 -18.786  0.00  0.00    +0.001 C 
ATOM      7  C   UNL     1      36.780 -19.898 -20.810  0.00  0.00    +0.037 C 
ATOM      8  C   UNL     1      34.160 -20.852 -20.745  0.00  0.00    +0.003 C 
ATOM      9  C   UNL     1      35.869 -19.506 -21.792  0.00  0.00    +0.139 C 
ATOM     10  C   UNL     1      34.562 -19.982 -21.760  0.00  0.00    +0.037 C 
ENDROOT
BRANCH   1  11
ATOM     11  S   UNL     1      35.080 -23.625 -16.453  0.00  0.00    +0.061 S 
ATOM     12  O   UNL     1      34.549 -22.828 -15.365  0.00  0.00    -0.153 OA
ATOM     13  O   UNL     1      34.263 -24.651 -17.073  0.00  0.00    -0.153 OA
BRANCH  11  14
ATOM     14  N   UNL     1      36.560 -24.313 -15.979  0.00  0.00    -0.170 NA
ATOM     15  H   UNL     1      37.163 -23.544 -15.686  0.00  0.00    +0.149 HD
BRANCH  14  16
ATOM     16  C   UNL     1      36.594 -25.319 -14.894  0.00  0.00    +0.174 C 
BRANCH  16  18
ATOM     17  O   UNL     1      36.566 -27.305 -16.297  0.00  0.00    -0.249 OA
ATOM     18  C   UNL     1      37.134 -26.607 -15.467  0.00  0.00    +0.330 C 
BRANCH  18  19
ATOM     19  O   UNL     1      38.361 -26.914 -14.970  0.00  0.00    -0.479 OA
ATOM     20  H   UNL     1      38.454 -27.162 -14.072  0.00  0.00    +0.295 HD
ENDBRANCH  18  19
ENDBRANCH  16  18
BRANCH  16  21
ATOM     21  C   UNL     1      37.372 -24.781 -13.688  0.00  0.00    +0.040 C 
BRANCH  21  22
ATOM     22  C   UNL     1      37.031 -25.396 -12.328  0.00  0.00    +0.111 C 
BRANCH  22  24
ATOM     23  O   UNL     1      35.106 -23.942 -12.198  0.00  0.00    -0.250 OA
ATOM     24  C   UNL     1      35.770 -24.848 -11.709  0.00  0.00    +0.314 C 
BRANCH  24  25
ATOM     25  O   UNL     1      35.453 -25.452 -10.537  0.00  0.00    -0.480 OA
ATOM     26  H   UNL     1      36.105 -25.554  -9.871  0.00  0.00    +0.295 HD
ENDBRANCH  24  25
ENDBRANCH  22  24
ENDBRANCH  21  22
ENDBRANCH  16  21
ENDBRANCH  14  16
ENDBRANCH  11  14
ENDBRANCH   1  11
BRANCH   9  27
ATOM     27  O   UNL     1      36.259 -18.656 -22.781  0.00  0.00    -0.471 OA
BRANCH  27  28
ATOM     28  C   UNL     1      35.338 -18.435 -23.848  0.00  0.00    +0.234 C 
BRANCH  28  30
ATOM     29  F   UNL     1      34.318 -17.212 -26.188  0.00  0.00    -0.204 F 
ATOM     30  C   UNL     1      35.034 -16.969 -23.938  0.00  0.00    +0.049 C 
ATOM     31  C   UNL     1      34.534 -16.428 -25.122  0.00  0.00    +0.140 C 
ATOM     32  C   UNL     1      35.254 -16.146 -22.833  0.00  0.00    +0.002 C 
ATOM     33  C   UNL     1      34.253 -15.064 -25.202  0.00  0.00    +0.040 C 
ATOM     34  C   UNL     1      34.974 -14.781 -22.914  0.00  0.00    +0.010 C 
ATOM     35  C   UNL     1      34.474 -14.240 -24.098  0.00  0.00    +0.071 C 
BRANCH  35  37
ATOM     36  N   UNL     1      33.948 -11.709 -24.246  0.00  0.00    -0.191 NA
ATOM     37  C   UNL     1      34.184 -12.844 -24.179  0.00  0.00    +0.100 C 
ENDBRANCH  35  37
ENDBRANCH  28  30
ENDBRANCH  27  28
ENDBRANCH   9  27
TORSDOF 13
ENDMDL
MODEL 7
REMARK VINA RESULT:     -10.6      6.546     13.091
REMARK  Name = 25058128
REMARK  13 active torsions:
REMARK  status: ('A' for Active; 'I' for Inactive)
REMARK    1  A    between atoms: C_1  and  S_11
REMARK    2  A    between atoms: C_9  and  O_27
REMARK    3  A    between atoms: S_11  and  N_14
REMARK    4  A    between atoms: N_14  and  C_16
REMARK    5  A    between atoms: C_16  and  C_18
REMARK    6  A    between atoms: C_16  and  C_21
REMARK    7  A    between atoms: C_18  and  O_19
REMARK    8  A    between atoms: C_21  and  C_22
REMARK    9  A    between atoms: C_22  and  C_24
REMARK   10  A    between atoms: C_24  and  O_25
REMARK   11  A    between atoms: O_27  and  C_28
REMARK   12  A    between atoms: C_28  and  C_30
REMARK   13  A    between atoms: C_35  and  C_37
REMARK                            x       y       z     vdW  Elec       q    Type
REMARK                         _______ _______ _______ _____ _____    ______ ____
ROOT
ATOM      1  C   UNL     1      32.319 -12.435 -21.244  0.00  0.00    +0.122 C 
ATOM      2  C   UNL     1      33.780 -14.000 -22.397  0.00  0.00    +0.002 C 
ATOM      3  C   UNL     1      33.012 -12.824 -22.390  0.00  0.00    +0.020 C 
ATOM      4  C   UNL     1      33.845 -14.791 -21.225  0.00  0.00    +0.003 C 
ATOM      5  C   UNL     1      32.383 -13.212 -20.092  0.00  0.00    +0.020 C 
ATOM      6  C   UNL     1      33.141 -14.383 -20.081  0.00  0.00    +0.001 C 
ATOM      7  C   UNL     1      34.613 -15.967 -21.231  0.00  0.00    +0.037 C 
ATOM      8  C   UNL     1      34.484 -14.410 -23.541  0.00  0.00    +0.003 C 
ATOM      9  C   UNL     1      35.307 -16.358 -22.378  0.00  0.00    +0.139 C 
ATOM     10  C   UNL     1      35.242 -15.581 -23.530  0.00  0.00    +0.037 C 
ENDROOT
BRANCH   1  11
ATOM     11  S   UNL     1      31.358 -10.950 -21.256  0.00  0.00    +0.061 S 
ATOM     12  O   UNL     1      30.532 -10.962 -22.447  0.00  0.00    -0.153 OA
ATOM     13  O   UNL     1      30.748 -10.832 -19.946  0.00  0.00    -0.153 OA
BRANCH  11  14
ATOM     14  N   UNL     1      32.559  -9.758 -21.413  0.00  0.00    -0.170 NA
ATOM     15  H   UNL     1      33.281 -10.144 -22.022  0.00  0.00    +0.149 HD
BRANCH  14  16
ATOM     16  C   UNL     1      32.212  -8.426 -21.954  0.00  0.00    +0.174 C 
BRANCH  16  18
ATOM     17  O   UNL     1      32.590  -6.172 -21.121  0.00  0.00    -0.249 OA
ATOM     18  C   UNL     1      32.753  -7.381 -21.009  0.00  0.00    +0.330 C 
BRANCH  18  19
ATOM     19  O   UNL     1      33.446  -7.932 -19.978  0.00  0.00    -0.479 OA
ATOM     20  H   UNL     1      33.466  -7.505 -19.144  0.00  0.00    +0.295 HD
ENDBRANCH  18  19
ENDBRANCH  16  18
BRANCH  16  21
ATOM     21  C   UNL     1      32.699  -8.291 -23.402  0.00  0.00    +0.040 C 
BRANCH  21  22
ATOM     22  C   UNL     1      34.216  -8.304 -23.614  0.00  0.00    +0.111 C 
BRANCH  22  24
ATOM     23  O   UNL     1      34.080 -10.631 -24.248  0.00  0.00    -0.250 OA
ATOM     24  C   UNL     1      34.744  -9.605 -24.161  0.00  0.00    +0.314 C 
BRANCH  24  25
ATOM     25  O   UNL     1      36.046  -9.530 -24.536  0.00  0.00    -0.480 OA
ATOM     26  H   UNL     1      36.583 -10.297 -24.516  0.00  0.00    +0.295 HD
ENDBRANCH  24  25
ENDBRANCH  22  24
ENDBRANCH  21  22
ENDBRANCH  16  21
ENDBRANCH  14  16
ENDBRANCH  11  14
ENDBRANCH   1  11
BRANCH   9  27
ATOM     27  O   UNL     1      36.048 -17.499 -22.368  0.00  0.00    -0.471 OA
BRANCH  27  28
ATOM     28  C   UNL     1      35.424 -18.683 -22.862  0.00  0.00    +0.234 C 
BRANCH  28  30
ATOM     29  F   UNL     1      37.599 -19.663 -21.339  0.00  0.00    -0.204 F 
ATOM     30  C   UNL     1      35.259 -19.658 -21.734  0.00  0.00    +0.049 C 
ATOM     31  C   UNL     1      36.373 -20.103 -21.023  0.00  0.00    +0.140 C 
ATOM     32  C   UNL     1      33.986 -20.120 -21.396  0.00  0.00    +0.002 C 
ATOM     33  C   UNL     1      36.215 -21.010 -19.975  0.00  0.00    +0.040 C 
ATOM     34  C   UNL     1      33.829 -21.028 -20.348  0.00  0.00    +0.010 C 
ATOM     35  C   UNL     1      34.944 -21.473 -19.638  0.00  0.00    +0.071 C 
BRANCH  35  37
ATOM     36  N   UNL     1      34.650 -23.153 -17.690  0.00  0.00    -0.191 NA
ATOM     37  C   UNL     1      34.783 -22.400 -18.563  0.00  0.00    +0.100 C 
ENDBRANCH  35  37
ENDBRANCH  28  30
ENDBRANCH  27  28
ENDBRANCH   9  27
TORSDOF 13
ENDMDL
MODEL 8
REMARK VINA RESULT:     -10.6      4.529     11.087
REMARK  Name = 25058128
REMARK  13 active torsions:
REMARK  status: ('A' for Active; 'I' for Inactive)
REMARK    1  A    between atoms: C_1  and  S_11
REMARK    2  A    between atoms: C_9  and  O_27
REMARK    3  A    between atoms: S_11  and  N_14
REMARK    4  A    between atoms: N_14  and  C_16
REMARK    5  A    between atoms: C_16  and  C_18
REMARK    6  A    between atoms: C_16  and  C_21
REMARK    7  A    between atoms: C_18  and  O_19
REMARK    8  A    between atoms: C_21  and  C_22
REMARK    9  A    between atoms: C_22  and  C_24
REMARK   10  A    between atoms: C_24  and  O_25
REMARK   11  A    between atoms: O_27  and  C_28
REMARK   12  A    between atoms: C_28  and  C_30
REMARK   13  A    between atoms: C_35  and  C_37
REMARK                            x       y       z     vdW  Elec       q    Type
REMARK                         _______ _______ _______ _____ _____    ______ ____
ROOT
ATOM      1  C   UNL     1      35.549 -19.595 -21.683  0.00  0.00    +0.122 C 
ATOM      2  C   UNL     1      35.823 -21.073 -19.771  0.00  0.00    +0.002 C 
ATOM      3  C   UNL     1      36.358 -20.169 -20.704  0.00  0.00    +0.020 C 
ATOM      4  C   UNL     1      34.446 -21.397 -19.835  0.00  0.00    +0.003 C 
ATOM      5  C   UNL     1      34.196 -19.913 -21.745  0.00  0.00    +0.020 C 
ATOM      6  C   UNL     1      33.646 -20.808 -20.827  0.00  0.00    +0.001 C 
ATOM      7  C   UNL     1      33.910 -22.300 -18.902  0.00  0.00    +0.037 C 
ATOM      8  C   UNL     1      36.622 -21.662 -18.778  0.00  0.00    +0.003 C 
ATOM      9  C   UNL     1      34.719 -22.876 -17.922  0.00  0.00    +0.139 C 
ATOM     10  C   UNL     1      36.072 -22.558 -17.860  0.00  0.00    +0.037 C 
ENDROOT
BRANCH   1  11
ATOM     11  S   UNL     1      36.244 -18.459 -22.848  0.00  0.00    +0.061 S 
ATOM     12  O   UNL     1      37.668 -18.714 -22.926  0.00  0.00    -0.153 OA
ATOM     13  O   UNL     1      35.423 -18.525 -24.042  0.00  0.00    -0.153 OA
BRANCH  11  14
ATOM     14  N   UNL     1      35.978 -16.967 -22.080  0.00  0.00    -0.170 NA
ATOM     15  H   UNL     1      36.854 -16.445 -22.136  0.00  0.00    +0.149 HD
BRANCH  14  16
ATOM     16  C   UNL     1      34.912 -16.064 -22.568  0.00  0.00    +0.174 C 
BRANCH  16  18
ATOM     17  O   UNL     1      34.388 -13.855 -21.695  0.00  0.00    -0.249 OA
ATOM     18  C   UNL     1      34.641 -15.037 -21.496  0.00  0.00    +0.330 C 
BRANCH  18  19
ATOM     19  O   UNL     1      34.688 -15.574 -20.249  0.00  0.00    -0.479 OA
ATOM     20  H   UNL     1      35.472 -15.509 -19.739  0.00  0.00    +0.295 HD
ENDBRANCH  18  19
ENDBRANCH  16  18
BRANCH  16  21
ATOM     21  C   UNL     1      35.290 -15.476 -23.934  0.00  0.00    +0.040 C 
BRANCH  21  22
ATOM     22  C   UNL     1      34.130 -15.042 -24.833  0.00  0.00    +0.111 C 
BRANCH  22  24
ATOM     23  O   UNL     1      33.694 -15.188 -27.205  0.00  0.00    -0.250 OA
ATOM     24  C   UNL     1      34.121 -15.713 -26.184  0.00  0.00    +0.314 C 
BRANCH  24  25
ATOM     25  O   UNL     1      34.621 -16.973 -26.149  0.00  0.00    -0.480 OA
ATOM     26  H   UNL     1      34.902 -17.386 -26.943  0.00  0.00    +0.295 HD
ENDBRANCH  24  25
ENDBRANCH  22  24
ENDBRANCH  21  22
ENDBRANCH  16  21
ENDBRANCH  14  16
ENDBRANCH  11  14
ENDBRANCH   1  11
BRANCH   9  27
ATOM     27  O   UNL     1      34.184 -23.748 -17.025  0.00  0.00    -0.471 OA
BRANCH  27  28
ATOM     28  C   UNL     1      33.758 -23.213 -15.773  0.00  0.00    +0.234 C 
BRANCH  28  30
ATOM     29  F   UNL     1      32.195 -23.266 -13.413  0.00  0.00    -0.204 F 
ATOM     30  C   UNL     1      32.263 -23.084 -15.779  0.00  0.00    +0.049 C 
ATOM     31  C   UNL     1      31.551 -23.119 -14.580  0.00  0.00    +0.140 C 
ATOM     32  C   UNL     1      31.585 -22.929 -16.988  0.00  0.00    +0.002 C 
ATOM     33  C   UNL     1      30.161 -22.999 -14.590  0.00  0.00    +0.040 C 
ATOM     34  C   UNL     1      30.195 -22.809 -16.998  0.00  0.00    +0.010 C 
ATOM     35  C   UNL     1      29.483 -22.844 -15.799  0.00  0.00    +0.071 C 
BRANCH  35  37
ATOM     36  N   UNL     1      26.904 -22.617 -15.818  0.00  0.00    -0.191 NA
ATOM     37  C   UNL     1      28.060 -22.719 -15.809  0.00  0.00    +0.100 C 
ENDBRANCH  35  37
ENDBRANCH  28  30
ENDBRANCH  27  28
ENDBRANCH   9  27
TORSDOF 13
ENDMDL
MODEL 9
REMARK VINA RESULT:     -10.5      3.680     11.102
REMARK  Name = 25058128
REMARK  13 active torsions:
REMARK  status: ('A' for Active; 'I' for Inactive)
REMARK    1  A    between atoms: C_1  and  S_11
REMARK    2  A    between atoms: C_9  and  O_27
REMARK    3  A    between atoms: S_11  and  N_14
REMARK    4  A    between atoms: N_14  and  C_16
REMARK    5  A    between atoms: C_16  and  C_18
REMARK    6  A    between atoms: C_16  and  C_21
REMARK    7  A    between atoms: C_18  and  O_19
REMARK    8  A    between atoms: C_21  and  C_22
REMARK    9  A    between atoms: C_22  and  C_24
REMARK   10  A    between atoms: C_24  and  O_25
REMARK   11  A    between atoms: O_27  and  C_28
REMARK   12  A    between atoms: C_28  and  C_30
REMARK   13  A    between atoms: C_35  and  C_37
REMARK                            x       y       z     vdW  Elec       q    Type
REMARK                         _______ _______ _______ _____ _____    ______ ____
ROOT
ATOM      1  C   UNL     1      35.587 -19.569 -21.644  0.00  0.00    +0.122 C 
ATOM      2  C   UNL     1      34.440 -21.076 -20.117  0.00  0.00    +0.002 C 
ATOM      3  C   UNL     1      34.413 -20.168 -21.189  0.00  0.00    +0.020 C 
ATOM      4  C   UNL     1      35.677 -21.378 -19.498  0.00  0.00    +0.003 C 
ATOM      5  C   UNL     1      36.803 -19.868 -21.036  0.00  0.00    +0.020 C 
ATOM      6  C   UNL     1      36.849 -20.767 -19.970  0.00  0.00    +0.001 C 
ATOM      7  C   UNL     1      35.705 -22.286 -18.426  0.00  0.00    +0.037 C 
ATOM      8  C   UNL     1      33.268 -21.688 -19.644  0.00  0.00    +0.003 C 
ATOM      9  C   UNL     1      34.530 -22.885 -17.970  0.00  0.00    +0.139 C 
ATOM     10  C   UNL     1      33.314 -22.587 -18.578  0.00  0.00    +0.037 C 
ENDROOT
BRANCH   1  11
ATOM     11  S   UNL     1      35.531 -18.430 -22.995  0.00  0.00    +0.061 S 
ATOM     12  O   UNL     1      36.887 -18.225 -23.464  0.00  0.00    -0.153 OA
ATOM     13  O   UNL     1      34.507 -18.906 -23.906  0.00  0.00    -0.153 OA
BRANCH  11  14
ATOM     14  N   UNL     1      34.975 -17.015 -22.236  0.00  0.00    -0.170 NA
ATOM     15  H   UNL     1      35.287 -17.059 -21.265  0.00  0.00    +0.149 HD
BRANCH  14  16
ATOM     16  C   UNL     1      35.380 -15.690 -22.755  0.00  0.00    +0.174 C 
BRANCH  16  18
ATOM     17  O   UNL     1      33.764 -14.883 -24.383  0.00  0.00    -0.249 OA
ATOM     18  C   UNL     1      34.778 -15.521 -24.128  0.00  0.00    +0.330 C 
BRANCH  18  19
ATOM     19  O   UNL     1      35.506 -16.150 -25.088  0.00  0.00    -0.479 OA
ATOM     20  H   UNL     1      35.183 -16.937 -25.481  0.00  0.00    +0.295 HD
ENDBRANCH  18  19
ENDBRANCH  16  18
BRANCH  16  21
ATOM     21  C   UNL     1      35.011 -14.587 -21.756  0.00  0.00    +0.040 C 
BRANCH  21  22
ATOM     22  C   UNL     1      33.888 -14.912 -20.766  0.00  0.00    +0.111 C 
BRANCH  22  24
ATOM     23  O   UNL     1      32.163 -13.532 -19.789  0.00  0.00    -0.250 OA
ATOM     24  C   UNL     1      32.749 -13.925 -20.790  0.00  0.00    +0.314 C 
BRANCH  24  25
ATOM     25  O   UNL     1      32.424 -13.526 -22.045  0.00  0.00    -0.480 OA
ATOM     26  H   UNL     1      32.486 -12.620 -22.279  0.00  0.00    +0.295 HD
ENDBRANCH  24  25
ENDBRANCH  22  24
ENDBRANCH  21  22
ENDBRANCH  16  21
ENDBRANCH  14  16
ENDBRANCH  11  14
ENDBRANCH   1  11
BRANCH   9  27
ATOM     27  O   UNL     1      34.573 -23.763 -16.932  0.00  0.00    -0.471 OA
BRANCH  27  28
ATOM     28  C   UNL     1      35.140 -23.296 -15.709  0.00  0.00    +0.234 C 
BRANCH  28  30
ATOM     29  F   UNL     1      37.659 -22.017 -15.885  0.00  0.00    -0.204 F 
ATOM     30  C   UNL     1      36.438 -24.008 -15.466  0.00  0.00    +0.049 C 
ATOM     31  C   UNL     1      37.646 -23.319 -15.570  0.00  0.00    +0.140 C 
ATOM     32  C   UNL     1      36.434 -25.364 -15.136  0.00  0.00    +0.002 C 
ATOM     33  C   UNL     1      38.850 -23.986 -15.344  0.00  0.00    +0.040 C 
ATOM     34  C   UNL     1      37.639 -26.030 -14.910  0.00  0.00    +0.010 C 
ATOM     35  C   UNL     1      38.847 -25.341 -15.014  0.00  0.00    +0.071 C 
BRANCH  35  37
ATOM     36  N   UNL     1      41.083 -26.577 -14.593  0.00  0.00    -0.191 NA
ATOM     37  C   UNL     1      40.081 -26.023 -14.781  0.00  0.00    +0.100 C 
ENDBRANCH  35  37
ENDBRANCH  28  30
ENDBRANCH  27  28
ENDBRANCH   9  27
TORSDOF 13
ENDMDL
