MODEL 1
REMARK VINA RESULT:     -11.7      0.000      0.000
REMARK  Name = 10267580
REMARK  2 active torsions:
REMARK  status: ('A' for Active; 'I' for Inactive)
REMARK    1  A    between atoms: N_1  and  C_21
REMARK    2  A    between atoms: C_7  and  C_14
REMARK                            x       y       z     vdW  Elec       q    Type
REMARK                         _______ _______ _______ _____ _____    ______ ____
ROOT
ATOM      1  N   UNL     1      32.929 -22.544 -18.637  0.00  0.00    -0.290 N 
ATOM      2  N   UNL     1      34.436 -23.348 -17.018  0.00  0.00    -0.327 NA
ATOM      3  N   UNL     1      33.640 -24.161 -14.894  0.00  0.00    -0.342 NA
ATOM      4  C   UNL     1      32.071 -23.350 -16.517  0.00  0.00    +0.143 C 
ATOM      5  C   UNL     1      33.156 -23.097 -17.352  0.00  0.00    +0.184 C 
ATOM      6  C   UNL     1      32.372 -23.899 -15.259  0.00  0.00    +0.133 C 
ATOM      7  C   UNL     1      34.602 -23.872 -15.793  0.00  0.00    +0.165 C 
ATOM      8  C   UNL     1      30.742 -23.079 -16.888  0.00  0.00    -0.011 C 
ATOM      9  C   UNL     1      31.313 -24.165 -14.396  0.00  0.00    +0.029 C 
ATOM     10  C   UNL     1      29.703 -23.354 -16.004  0.00  0.00    -0.004 C 
ATOM     11  C   UNL     1      29.990 -23.898 -14.758  0.00  0.00    +0.002 C 
ATOM     12  H   UNL     1      32.030 -22.684 -19.014  0.00  0.00    +0.154 HD
ENDROOT
BRANCH   7  14
ATOM     13  N   UNL     1      36.088 -25.125 -14.459  0.00  0.00    -0.398 NA
ATOM     14  C   UNL     1      35.956 -24.156 -15.394  0.00  0.00    +0.197 C 
ATOM     15  C   UNL     1      37.027 -23.467 -15.949  0.00  0.00    +0.098 C 
ATOM     16  C   UNL     1      37.349 -25.414 -14.063  0.00  0.00    +0.110 C 
ATOM     17  C   UNL     1      38.308 -23.793 -15.516  0.00  0.00    -0.016 C 
ATOM     18  C   UNL     1      38.480 -24.784 -14.556  0.00  0.00    +0.023 C 
ATOM     19  C   UNL     1      37.497 -26.483 -13.033  0.00  0.00    +0.066 C 
ENDBRANCH   7  14
BRANCH   1  21
ATOM     20  N   UNL     1      35.608 -20.371 -21.041  0.00  0.00    -0.242 NA
ATOM     21  C   UNL     1      33.811 -21.830 -19.427  0.00  0.00    +0.053 C 
ATOM     22  C   UNL     1      33.356 -20.812 -20.281  0.00  0.00    +0.035 C 
ATOM     23  C   UNL     1      35.188 -22.097 -19.402  0.00  0.00    +0.035 C 
ATOM     24  C   UNL     1      34.278 -20.125 -21.054  0.00  0.00    +0.100 C 
ATOM     25  C   UNL     1      36.029 -21.353 -20.214  0.00  0.00    +0.100 C 
ENDBRANCH   1  21
TORSDOF 2
ENDMDL
MODEL 2
REMARK VINA RESULT:     -11.6      1.489      6.745
REMARK  Name = 10267580
REMARK  2 active torsions:
REMARK  status: ('A' for Active; 'I' for Inactive)
REMARK    1  A    between atoms: N_1  and  C_21
REMARK    2  A    between atoms: C_7  and  C_14
REMARK                            x       y       z     vdW  Elec       q    Type
REMARK                         _______ _______ _______ _____ _____    ______ ____
ROOT
ATOM      1  N   UNL     1      36.014 -23.541 -16.755  0.00  0.00    -0.290 N 
ATOM      2  N   UNL     1      33.662 -23.510 -16.720  0.00  0.00    -0.327 NA
ATOM      3  N   UNL     1      32.423 -22.299 -18.394  0.00  0.00    -0.342 NA
ATOM      4  C   UNL     1      34.820 -22.304 -18.465  0.00  0.00    +0.143 C 
ATOM      5  C   UNL     1      34.793 -23.107 -17.329  0.00  0.00    +0.184 C 
ATOM      6  C   UNL     1      33.571 -21.914 -18.977  0.00  0.00    +0.133 C 
ATOM      7  C   UNL     1      32.530 -23.076 -17.298  0.00  0.00    +0.165 C 
ATOM      8  C   UNL     1      36.015 -21.895 -19.083  0.00  0.00    -0.011 C 
ATOM      9  C   UNL     1      33.558 -21.110 -20.114  0.00  0.00    +0.029 C 
ATOM     10  C   UNL     1      35.971 -21.091 -20.218  0.00  0.00    -0.004 C 
ATOM     11  C   UNL     1      34.741 -20.699 -20.734  0.00  0.00    +0.002 C 
ATOM     12  H   UNL     1      36.792 -23.556 -17.359  0.00  0.00    +0.154 HD
ENDROOT
BRANCH   7  14
ATOM     13  N   UNL     1      30.188 -22.853 -17.135  0.00  0.00    -0.398 NA
ATOM     14  C   UNL     1      31.296 -23.484 -16.679  0.00  0.00    +0.197 C 
ATOM     15  C   UNL     1      31.277 -24.458 -15.689  0.00  0.00    +0.098 C 
ATOM     16  C   UNL     1      29.013 -23.214 -16.571  0.00  0.00    +0.110 C 
ATOM     17  C   UNL     1      30.049 -24.802 -15.135  0.00  0.00    -0.016 C 
ATOM     18  C   UNL     1      28.891 -24.173 -15.579  0.00  0.00    +0.023 C 
ATOM     19  C   UNL     1      27.791 -22.519 -17.073  0.00  0.00    +0.066 C 
ENDBRANCH   7  14
BRANCH   1  21
ATOM     20  N   UNL     1      36.738 -24.764 -12.798  0.00  0.00    -0.242 NA
ATOM     21  C   UNL     1      36.252 -23.943 -15.455  0.00  0.00    +0.053 C 
ATOM     22  C   UNL     1      36.312 -23.010 -14.407  0.00  0.00    +0.035 C 
ATOM     23  C   UNL     1      36.442 -25.297 -15.137  0.00  0.00    +0.035 C 
ATOM     24  C   UNL     1      36.553 -23.463 -13.120  0.00  0.00    +0.100 C 
ATOM     25  C   UNL     1      36.678 -25.649 -13.818  0.00  0.00    +0.100 C 
ENDBRANCH   1  21
TORSDOF 2
ENDMDL
MODEL 3
REMARK VINA RESULT:     -10.9      0.758      1.735
REMARK  Name = 10267580
REMARK  2 active torsions:
REMARK  status: ('A' for Active; 'I' for Inactive)
REMARK    1  A    between atoms: N_1  and  C_21
REMARK    2  A    between atoms: C_7  and  C_14
REMARK                            x       y       z     vdW  Elec       q    Type
REMARK                         _______ _______ _______ _____ _____    ______ ____
ROOT
ATOM      1  N   UNL     1      32.726 -22.470 -18.710  0.00  0.00    -0.290 N 
ATOM      2  N   UNL     1      34.055 -23.247 -16.930  0.00  0.00    -0.327 NA
ATOM      3  N   UNL     1      33.047 -23.946 -14.857  0.00  0.00    -0.342 NA
ATOM      4  C   UNL     1      31.656 -23.162 -16.646  0.00  0.00    +0.143 C 
ATOM      5  C   UNL     1      32.818 -22.975 -17.389  0.00  0.00    +0.184 C 
ATOM      6  C   UNL     1      31.826 -23.665 -15.346  0.00  0.00    +0.133 C 
ATOM      7  C   UNL     1      34.094 -23.722 -15.675  0.00  0.00    +0.165 C 
ATOM      8  C   UNL     1      30.375 -22.869 -17.147  0.00  0.00    -0.011 C 
ATOM      9  C   UNL     1      30.685 -23.864 -14.573  0.00  0.00    +0.029 C 
ATOM     10  C   UNL     1      29.253 -23.079 -16.351  0.00  0.00    -0.004 C 
ATOM     11  C   UNL     1      29.409 -23.576 -15.063  0.00  0.00    +0.002 C 
ATOM     12  H   UNL     1      31.860 -22.602 -19.161  0.00  0.00    +0.154 HD
ENDROOT
BRANCH   7  14
ATOM     13  N   UNL     1      36.438 -23.598 -15.897  0.00  0.00    -0.398 NA
ATOM     14  C   UNL     1      35.398 -24.027 -15.144  0.00  0.00    +0.197 C 
ATOM     15  C   UNL     1      35.542 -24.711 -13.945  0.00  0.00    +0.098 C 
ATOM     16  C   UNL     1      37.676 -23.870 -15.426  0.00  0.00    +0.110 C 
ATOM     17  C   UNL     1      36.832 -24.972 -13.494  0.00  0.00    -0.016 C 
ATOM     18  C   UNL     1      37.923 -24.547 -14.242  0.00  0.00    +0.023 C 
ATOM     19  C   UNL     1      38.824 -23.399 -16.254  0.00  0.00    +0.066 C 
ENDBRANCH   7  14
BRANCH   1  21
ATOM     20  N   UNL     1      35.679 -20.478 -20.942  0.00  0.00    -0.242 NA
ATOM     21  C   UNL     1      33.696 -21.815 -19.444  0.00  0.00    +0.053 C 
ATOM     22  C   UNL     1      35.048 -22.186 -19.352  0.00  0.00    +0.035 C 
ATOM     23  C   UNL     1      33.364 -20.758 -20.306  0.00  0.00    +0.035 C 
ATOM     24  C   UNL     1      35.983 -21.498 -20.108  0.00  0.00    +0.100 C 
ATOM     25  C   UNL     1      34.375 -20.133 -21.020  0.00  0.00    +0.100 C 
ENDBRANCH   1  21
TORSDOF 2
ENDMDL
MODEL 4
REMARK VINA RESULT:     -10.7      1.491      4.970
REMARK  Name = 10267580
REMARK  2 active torsions:
REMARK  status: ('A' for Active; 'I' for Inactive)
REMARK    1  A    between atoms: N_1  and  C_21
REMARK    2  A    between atoms: C_7  and  C_14
REMARK                            x       y       z     vdW  Elec       q    Type
REMARK                         _______ _______ _______ _____ _____    ______ ____
ROOT
ATOM      1  N   UNL     1      31.740 -22.650 -17.286  0.00  0.00    -0.290 N 
ATOM      2  N   UNL     1      33.716 -23.399 -16.251  0.00  0.00    -0.327 NA
ATOM      3  N   UNL     1      35.862 -23.012 -17.274  0.00  0.00    -0.342 NA
ATOM      4  C   UNL     1      33.872 -22.232 -18.361  0.00  0.00    +0.143 C 
ATOM      5  C   UNL     1      33.152 -22.766 -17.297  0.00  0.00    +0.184 C 
ATOM      6  C   UNL     1      35.267 -22.384 -18.304  0.00  0.00    +0.133 C 
ATOM      7  C   UNL     1      35.055 -23.484 -16.304  0.00  0.00    +0.165 C 
ATOM      8  C   UNL     1      33.260 -21.576 -19.444  0.00  0.00    -0.011 C 
ATOM      9  C   UNL     1      36.021 -21.864 -19.352  0.00  0.00    +0.029 C 
ATOM     10  C   UNL     1      34.039 -21.065 -20.478  0.00  0.00    -0.004 C 
ATOM     11  C   UNL     1      35.421 -21.210 -20.432  0.00  0.00    +0.002 C 
ATOM     12  H   UNL     1      31.363 -21.918 -17.826  0.00  0.00    +0.154 HD
ENDROOT
BRANCH   7  14
ATOM     13  N   UNL     1      36.852 -24.792 -15.516  0.00  0.00    -0.398 NA
ATOM     14  C   UNL     1      35.699 -24.154 -15.204  0.00  0.00    +0.197 C 
ATOM     15  C   UNL     1      35.152 -24.129 -13.928  0.00  0.00    +0.098 C 
ATOM     16  C   UNL     1      37.480 -25.432 -14.504  0.00  0.00    +0.110 C 
ATOM     17  C   UNL     1      35.828 -24.799 -12.914  0.00  0.00    -0.016 C 
ATOM     18  C   UNL     1      37.015 -25.465 -13.200  0.00  0.00    +0.023 C 
ATOM     19  C   UNL     1      38.751 -26.135 -14.846  0.00  0.00    +0.066 C 
ENDBRANCH   7  14
BRANCH   1  21
ATOM     20  N   UNL     1      28.951 -25.041 -15.240  0.00  0.00    -0.242 NA
ATOM     21  C   UNL     1      30.823 -23.437 -16.613  0.00  0.00    +0.053 C 
ATOM     22  C   UNL     1      29.446 -23.168 -16.686  0.00  0.00    +0.035 C 
ATOM     23  C   UNL     1      31.237 -24.529 -15.834  0.00  0.00    +0.035 C 
ATOM     24  C   UNL     1      28.568 -23.986 -15.994  0.00  0.00    +0.100 C 
ATOM     25  C   UNL     1      30.278 -25.286 -15.180  0.00  0.00    +0.100 C 
ENDBRANCH   1  21
TORSDOF 2
ENDMDL
MODEL 5
REMARK VINA RESULT:     -10.2      1.775      5.504
REMARK  Name = 10267580
REMARK  2 active torsions:
REMARK  status: ('A' for Active; 'I' for Inactive)
REMARK    1  A    between atoms: N_1  and  C_21
REMARK    2  A    between atoms: C_7  and  C_14
REMARK                            x       y       z     vdW  Elec       q    Type
REMARK                         _______ _______ _______ _____ _____    ______ ____
ROOT
ATOM      1  N   UNL     1      36.090 -22.455 -16.094  0.00  0.00    -0.290 N 
ATOM      2  N   UNL     1      34.028 -23.382 -15.441  0.00  0.00    -0.327 NA
ATOM      3  N   UNL     1      33.811 -24.541 -13.341  0.00  0.00    -0.342 NA
ATOM      4  C   UNL     1      35.931 -23.611 -13.968  0.00  0.00    +0.143 C 
ATOM      5  C   UNL     1      35.324 -23.171 -15.141  0.00  0.00    +0.184 C 
ATOM      6  C   UNL     1      35.109 -24.313 -13.071  0.00  0.00    +0.133 C 
ATOM      7  C   UNL     1      33.342 -24.064 -14.510  0.00  0.00    +0.165 C 
ATOM      8  C   UNL     1      37.287 -23.379 -13.677  0.00  0.00    -0.011 C 
ATOM      9  C   UNL     1      35.682 -24.770 -11.887  0.00  0.00    +0.029 C 
ATOM     10  C   UNL     1      37.832 -23.848 -12.486  0.00  0.00    -0.004 C 
ATOM     11  C   UNL     1      37.029 -24.544 -11.590  0.00  0.00    +0.002 C 
ATOM     12  H   UNL     1      36.895 -22.004 -15.748  0.00  0.00    +0.154 HD
ENDROOT
BRANCH   7  14
ATOM     13  N   UNL     1      31.361 -23.407 -15.607  0.00  0.00    -0.398 NA
ATOM     14  C   UNL     1      31.951 -24.311 -14.791  0.00  0.00    +0.197 C 
ATOM     15  C   UNL     1      31.294 -25.407 -14.248  0.00  0.00    +0.098 C 
ATOM     16  C   UNL     1      30.054 -23.612 -15.889  0.00  0.00    +0.110 C 
ATOM     17  C   UNL     1      29.950 -25.583 -14.561  0.00  0.00    -0.016 C 
ATOM     18  C   UNL     1      29.312 -24.674 -15.397  0.00  0.00    +0.023 C 
ATOM     19  C   UNL     1      29.401 -22.617 -16.788  0.00  0.00    +0.066 C 
ENDBRANCH   7  14
BRANCH   1  21
ATOM     20  N   UNL     1      35.367 -22.015 -20.212  0.00  0.00    -0.242 NA
ATOM     21  C   UNL     1      35.852 -22.311 -17.448  0.00  0.00    +0.053 C 
ATOM     22  C   UNL     1      36.817 -21.743 -18.296  0.00  0.00    +0.035 C 
ATOM     23  C   UNL     1      34.639 -22.726 -18.020  0.00  0.00    +0.035 C 
ATOM     24  C   UNL     1      36.530 -21.620 -19.646  0.00  0.00    +0.100 C 
ATOM     25  C   UNL     1      34.450 -22.559 -19.382  0.00  0.00    +0.100 C 
ENDBRANCH   1  21
TORSDOF 2
ENDMDL
MODEL 6
REMARK VINA RESULT:     -10.1      1.281      5.367
REMARK  Name = 10267580
REMARK  2 active torsions:
REMARK  status: ('A' for Active; 'I' for Inactive)
REMARK    1  A    between atoms: N_1  and  C_21
REMARK    2  A    between atoms: C_7  and  C_14
REMARK                            x       y       z     vdW  Elec       q    Type
REMARK                         _______ _______ _______ _____ _____    ______ ____
ROOT
ATOM      1  N   UNL     1      36.675 -22.573 -17.037  0.00  0.00    -0.290 N 
ATOM      2  N   UNL     1      34.773 -23.416 -15.938  0.00  0.00    -0.327 NA
ATOM      3  N   UNL     1      34.994 -25.014 -14.150  0.00  0.00    -0.342 NA
ATOM      4  C   UNL     1      36.958 -24.180 -15.243  0.00  0.00    +0.143 C 
ATOM      5  C   UNL     1      36.115 -23.414 -16.044  0.00  0.00    +0.184 C 
ATOM      6  C   UNL     1      36.332 -24.989 -14.280  0.00  0.00    +0.133 C 
ATOM      7  C   UNL     1      34.288 -24.227 -14.985  0.00  0.00    +0.165 C 
ATOM      8  C   UNL     1      38.358 -24.161 -15.372  0.00  0.00    -0.011 C 
ATOM      9  C   UNL     1      37.143 -25.769 -13.461  0.00  0.00    +0.029 C 
ATOM     10  C   UNL     1      39.144 -24.952 -14.539  0.00  0.00    -0.004 C 
ATOM     11  C   UNL     1      38.535 -25.757 -13.583  0.00  0.00    +0.002 C 
ATOM     12  H   UNL     1      37.611 -22.301 -16.894  0.00  0.00    +0.154 HD
ENDROOT
BRANCH   7  14
ATOM     13  N   UNL     1      32.165 -23.587 -15.789  0.00  0.00    -0.398 NA
ATOM     14  C   UNL     1      32.856 -24.260 -14.838  0.00  0.00    +0.197 C 
ATOM     15  C   UNL     1      32.257 -24.940 -13.786  0.00  0.00    +0.098 C 
ATOM     16  C   UNL     1      30.818 -23.599 -15.678  0.00  0.00    +0.110 C 
ATOM     17  C   UNL     1      30.869 -24.929 -13.706  0.00  0.00    -0.016 C 
ATOM     18  C   UNL     1      30.129 -24.248 -14.666  0.00  0.00    +0.023 C 
ATOM     19  C   UNL     1      30.055 -22.858 -16.725  0.00  0.00    +0.066 C 
ENDBRANCH   7  14
BRANCH   1  21
ATOM     20  N   UNL     1      34.847 -21.098 -20.524  0.00  0.00    -0.242 NA
ATOM     21  C   UNL     1      36.075 -22.087 -18.183  0.00  0.00    +0.053 C 
ATOM     22  C   UNL     1      34.739 -22.397 -18.488  0.00  0.00    +0.035 C 
ATOM     23  C   UNL     1      36.778 -21.269 -19.081  0.00  0.00    +0.035 C 
ATOM     24  C   UNL     1      34.182 -21.887 -19.650  0.00  0.00    +0.100 C 
ATOM     25  C   UNL     1      36.131 -20.809 -20.216  0.00  0.00    +0.100 C 
ENDBRANCH   1  21
TORSDOF 2
ENDMDL
MODEL 7
REMARK VINA RESULT:      -9.6     11.683     15.306
REMARK  Name = 10267580
REMARK  2 active torsions:
REMARK  status: ('A' for Active; 'I' for Inactive)
REMARK    1  A    between atoms: N_1  and  C_21
REMARK    2  A    between atoms: C_7  and  C_14
REMARK                            x       y       z     vdW  Elec       q    Type
REMARK                         _______ _______ _______ _____ _____    ______ ____
ROOT
ATOM      1  N   UNL     1      33.543 -12.786 -23.294  0.00  0.00    -0.290 N 
ATOM      2  N   UNL     1      32.974 -10.503 -23.334  0.00  0.00    -0.327 NA
ATOM      3  N   UNL     1      31.970  -9.453 -21.413  0.00  0.00    -0.342 NA
ATOM      4  C   UNL     1      32.535 -11.782 -21.331  0.00  0.00    +0.143 C 
ATOM      5  C   UNL     1      33.001 -11.654 -22.636  0.00  0.00    +0.184 C 
ATOM      6  C   UNL     1      32.012 -10.618 -20.743  0.00  0.00    +0.133 C 
ATOM      7  C   UNL     1      32.453  -9.458 -22.671  0.00  0.00    +0.165 C 
ATOM      8  C   UNL     1      32.573 -12.996 -20.622  0.00  0.00    -0.011 C 
ATOM      9  C   UNL     1      31.535 -10.708 -19.438  0.00  0.00    +0.029 C 
ATOM     10  C   UNL     1      32.088 -13.056 -19.319  0.00  0.00    -0.004 C 
ATOM     11  C   UNL     1      31.569 -11.911 -18.727  0.00  0.00    +0.002 C 
ATOM     12  H   UNL     1      33.883 -13.502 -22.710  0.00  0.00    +0.154 HD
ENDROOT
BRANCH   7  14
ATOM     13  N   UNL     1      33.611  -7.689 -23.715  0.00  0.00    -0.398 NA
ATOM     14  C   UNL     1      32.405  -8.207 -23.381  0.00  0.00    +0.197 C 
ATOM     15  C   UNL     1      31.194  -7.601 -23.685  0.00  0.00    +0.098 C 
ATOM     16  C   UNL     1      33.599  -6.513 -24.382  0.00  0.00    +0.110 C 
ATOM     17  C   UNL     1      31.223  -6.392 -24.372  0.00  0.00    -0.016 C 
ATOM     18  C   UNL     1      32.444  -5.831 -24.731  0.00  0.00    +0.023 C 
ATOM     19  C   UNL     1      34.926  -5.941 -24.751  0.00  0.00    +0.066 C 
ENDBRANCH   7  14
BRANCH   1  21
ATOM     20  N   UNL     1      33.876 -13.478 -27.428  0.00  0.00    -0.242 NA
ATOM     21  C   UNL     1      33.653 -13.013 -24.654  0.00  0.00    +0.053 C 
ATOM     22  C   UNL     1      33.317 -14.259 -25.209  0.00  0.00    +0.035 C 
ATOM     23  C   UNL     1      34.103 -12.008 -25.524  0.00  0.00    +0.035 C 
ATOM     24  C   UNL     1      33.444 -14.436 -26.577  0.00  0.00    +0.100 C 
ATOM     25  C   UNL     1      34.195 -12.286 -26.878  0.00  0.00    +0.100 C 
ENDBRANCH   1  21
TORSDOF 2
ENDMDL
MODEL 8
REMARK VINA RESULT:      -9.4     11.526     14.536
REMARK  Name = 10267580
REMARK  2 active torsions:
REMARK  status: ('A' for Active; 'I' for Inactive)
REMARK    1  A    between atoms: N_1  and  C_21
REMARK    2  A    between atoms: C_7  and  C_14
REMARK                            x       y       z     vdW  Elec       q    Type
REMARK                         _______ _______ _______ _____ _____    ______ ____
ROOT
ATOM      1  N   UNL     1      32.087  -8.812 -22.112  0.00  0.00    -0.290 N 
ATOM      2  N   UNL     1      32.713 -10.739 -23.308  0.00  0.00    -0.327 NA
ATOM      3  N   UNL     1      32.799 -12.887 -22.221  0.00  0.00    -0.342 NA
ATOM      4  C   UNL     1      32.156 -10.948 -20.966  0.00  0.00    +0.143 C 
ATOM      5  C   UNL     1      32.327 -10.209 -22.133  0.00  0.00    +0.184 C 
ATOM      6  C   UNL     1      32.412 -12.326 -21.062  0.00  0.00    +0.133 C 
ATOM      7  C   UNL     1      32.929 -12.065 -23.280  0.00  0.00    +0.165 C 
ATOM      8  C   UNL     1      31.753 -10.370 -19.749  0.00  0.00    -0.011 C 
ATOM      9  C   UNL     1      32.252 -13.098 -19.914  0.00  0.00    +0.029 C 
ATOM     10  C   UNL     1      31.602 -11.167 -18.617  0.00  0.00    -0.004 C 
ATOM     11  C   UNL     1      31.851 -12.531 -18.701  0.00  0.00    +0.002 C 
ATOM     12  H   UNL     1      31.491  -8.488 -21.399  0.00  0.00    +0.154 HD
ENDROOT
BRANCH   7  14
ATOM     13  N   UNL     1      33.357 -14.028 -24.514  0.00  0.00    -0.398 NA
ATOM     14  C   UNL     1      33.343 -12.674 -24.517  0.00  0.00    +0.197 C 
ATOM     15  C   UNL     1      33.697 -11.901 -25.615  0.00  0.00    +0.098 C 
ATOM     16  C   UNL     1      33.744 -14.629 -25.662  0.00  0.00    +0.110 C 
ATOM     17  C   UNL     1      34.088 -12.557 -26.777  0.00  0.00    -0.016 C 
ATOM     18  C   UNL     1      34.115 -13.946 -26.809  0.00  0.00    +0.023 C 
ATOM     19  C   UNL     1      33.760 -16.121 -25.660  0.00  0.00    +0.066 C 
ENDBRANCH   7  14
BRANCH   1  21
ATOM     20  N   UNL     1      33.607  -5.876 -24.710  0.00  0.00    -0.242 NA
ATOM     21  C   UNL     1      32.586  -7.847 -22.967  0.00  0.00    +0.053 C 
ATOM     22  C   UNL     1      33.940  -7.472 -22.925  0.00  0.00    +0.035 C 
ATOM     23  C   UNL     1      31.759  -7.209 -23.904  0.00  0.00    +0.035 C 
ATOM     24  C   UNL     1      34.391  -6.500 -23.802  0.00  0.00    +0.100 C 
ATOM     25  C   UNL     1      32.308  -6.248 -24.738  0.00  0.00    +0.100 C 
ENDBRANCH   1  21
TORSDOF 2
ENDMDL
