MODEL 1
REMARK VINA RESULT:     -11.8      0.000      0.000
REMARK  Name = 5496659
REMARK  9 active torsions:
REMARK  status: ('A' for Active; 'I' for Inactive)
REMARK    1  A    between atoms: C_1  and  N_4
REMARK    2  A    between atoms: C_1  and  C_20
REMARK    3  A    between atoms: C_5  and  C_7
REMARK    4  A    between atoms: C_10  and  C_15
REMARK    5  A    between atoms: C_20  and  C_22
REMARK    6  A    between atoms: C_20  and  C_25
REMARK    7  A    between atoms: C_22  and  O_23
REMARK    8  A    between atoms: C_25  and  C_26
REMARK    9  A    between atoms: C_29  and  C_34
REMARK                            x       y       z     vdW  Elec       q    Type
REMARK                         _______ _______ _______ _____ _____    ______ ____
ROOT
ATOM      1  C   UNL     1      33.636 -23.769 -16.153  0.00  0.00    +0.083 C 
ATOM      2  C   UNL     1      32.389 -23.386 -15.359  0.00  0.00    +0.022 C 
ENDROOT
BRANCH   1   4
ATOM      3  O   UNL     1      33.860 -24.367 -18.952  0.00  0.00    -0.270 OA
ATOM      4  N   UNL     1      33.857 -22.824 -17.222  0.00  0.00    -0.302 N 
ATOM      5  C   UNL     1      33.951 -23.210 -18.550  0.00  0.00    +0.246 C 
ATOM      6  H   UNL     1      33.944 -21.868 -16.999  0.00  0.00    +0.150 HD
BRANCH   5   7
ATOM      7  C   UNL     1      34.204 -22.120 -19.526  0.00  0.00    +0.053 C 
ATOM      8  C   UNL     1      33.135 -21.410 -20.071  0.00  0.00    +0.005 C 
ATOM      9  C   UNL     1      35.511 -21.807 -19.898  0.00  0.00    +0.005 C 
ATOM     10  C   UNL     1      34.681 -20.073 -21.361  0.00  0.00    +0.000 C 
ATOM     11  C   UNL     1      33.373 -20.386 -20.989  0.00  0.00    +0.000 C 
ATOM     12  C   UNL     1      35.750 -20.785 -20.815  0.00  0.00    +0.000 C 
BRANCH  10  15
ATOM     13  O   UNL     1      35.624 -16.037 -24.989  0.00  0.00    -0.163 OA
ATOM     14  N   UNL     1      35.407 -16.971 -24.151  0.00  0.00    -0.127 N 
ATOM     15  C   UNL     1      34.929 -19.014 -22.314  0.00  0.00    +0.003 C 
ATOM     16  C   UNL     1      34.688 -19.224 -23.667  0.00  0.00    +0.022 C 
ATOM     17  C   UNL     1      35.409 -17.783 -21.878  0.00  0.00    +0.022 C 
ATOM     18  C   UNL     1      34.930 -18.197 -24.573  0.00  0.00    +0.121 C 
ATOM     19  C   UNL     1      35.643 -16.772 -22.804  0.00  0.00    +0.121 C 
ENDBRANCH  10  15
ENDBRANCH   5   7
ENDBRANCH   1   4
BRANCH   1  20
ATOM     20  C   UNL     1      34.878 -23.942 -15.247  0.00  0.00    +0.121 C 
BRANCH  20  22
ATOM     21  O   UNL     1      36.122 -21.892 -14.809  0.00  0.00    -0.250 OA
ATOM     22  C   UNL     1      35.921 -22.865 -15.526  0.00  0.00    +0.319 C 
BRANCH  22  23
ATOM     23  O   UNL     1      36.583 -23.154 -16.684  0.00  0.00    -0.444 OA
ATOM     24  C   UNL     1      37.750 -22.366 -16.939  0.00  0.00    +0.256 C 
ENDBRANCH  22  23
ENDBRANCH  20  22
BRANCH  20  25
ATOM     25  C   UNL     1      35.513 -25.340 -15.397  0.00  0.00    +0.039 C 
BRANCH  25  26
ATOM     26  C   UNL     1      36.728 -25.528 -14.517  0.00  0.00    -0.021 C 
ATOM     27  C   UNL     1      37.967 -25.815 -15.090  0.00  0.00    -0.002 C 
ATOM     28  C   UNL     1      36.608 -25.418 -13.131  0.00  0.00    -0.004 C 
ATOM     29  C   UNL     1      39.086 -25.991 -14.277  0.00  0.00    +0.030 C 
ATOM     30  C   UNL     1      37.728 -25.594 -12.319  0.00  0.00    -0.000 C 
ATOM     31  C   UNL     1      38.967 -25.881 -12.892  0.00  0.00    +0.003 C 
BRANCH  29  34
ATOM     32  N   UNL     1      41.359 -26.986 -14.167  0.00  0.00    -0.343 N 
ATOM     33  N   UNL     1      40.639 -25.902 -16.109  0.00  0.00    -0.285 NA
ATOM     34  C   UNL     1      40.378 -26.292 -14.874  0.00  0.00    +0.117 C 
ATOM     35  H   UNL     1      42.227 -27.178 -14.591  0.00  0.00    +0.144 HD
ATOM     36  H   UNL     1      41.184 -27.282 -13.245  0.00  0.00    +0.144 HD
ATOM     37  H   UNL     1      41.514 -26.105 -16.515  0.00  0.00    +0.188 HD
ENDBRANCH  29  34
ENDBRANCH  25  26
ENDBRANCH  20  25
ENDBRANCH   1  20
TORSDOF 9
ENDMDL
MODEL 2
REMARK VINA RESULT:     -11.1      1.744      3.005
REMARK  Name = 5496659
REMARK  9 active torsions:
REMARK  status: ('A' for Active; 'I' for Inactive)
REMARK    1  A    between atoms: C_1  and  N_4
REMARK    2  A    between atoms: C_1  and  C_20
REMARK    3  A    between atoms: C_5  and  C_7
REMARK    4  A    between atoms: C_10  and  C_15
REMARK    5  A    between atoms: C_20  and  C_22
REMARK    6  A    between atoms: C_20  and  C_25
REMARK    7  A    between atoms: C_22  and  O_23
REMARK    8  A    between atoms: C_25  and  C_26
REMARK    9  A    between atoms: C_29  and  C_34
REMARK                            x       y       z     vdW  Elec       q    Type
REMARK                         _______ _______ _______ _____ _____    ______ ____
ROOT
ATOM      1  C   UNL     1      32.227 -23.735 -16.521  0.00  0.00    +0.083 C 
ATOM      2  C   UNL     1      30.879 -23.317 -15.937  0.00  0.00    +0.022 C 
ENDROOT
BRANCH   1   4
ATOM      3  O   UNL     1      33.977 -24.237 -18.741  0.00  0.00    -0.270 OA
ATOM      4  N   UNL     1      32.658 -22.778 -17.514  0.00  0.00    -0.302 N 
ATOM      5  C   UNL     1      33.509 -23.117 -18.554  0.00  0.00    +0.246 C 
ATOM      6  H   UNL     1      32.336 -21.850 -17.448  0.00  0.00    +0.150 HD
BRANCH   5   7
ATOM      7  C   UNL     1      33.878 -22.013 -19.476  0.00  0.00    +0.053 C 
ATOM      8  C   UNL     1      35.221 -21.752 -19.749  0.00  0.00    +0.005 C 
ATOM      9  C   UNL     1      32.883 -21.237 -20.069  0.00  0.00    +0.005 C 
ATOM     10  C   UNL     1      34.572 -19.938 -21.208  0.00  0.00    +0.000 C 
ATOM     11  C   UNL     1      35.568 -20.714 -20.614  0.00  0.00    +0.000 C 
ATOM     12  C   UNL     1      33.229 -20.200 -20.934  0.00  0.00    +0.000 C 
BRANCH  10  15
ATOM     13  O   UNL     1      35.938 -15.836 -24.620  0.00  0.00    -0.163 OA
ATOM     14  N   UNL     1      35.622 -16.784 -23.831  0.00  0.00    -0.127 N 
ATOM     15  C   UNL     1      34.930 -18.861 -22.104  0.00  0.00    +0.003 C 
ATOM     16  C   UNL     1      35.310 -17.625 -21.590  0.00  0.00    +0.022 C 
ATOM     17  C   UNL     1      34.895 -19.059 -23.480  0.00  0.00    +0.022 C 
ATOM     18  C   UNL     1      35.653 -16.598 -22.462  0.00  0.00    +0.121 C 
ATOM     19  C   UNL     1      35.243 -18.015 -24.331  0.00  0.00    +0.121 C 
ENDBRANCH  10  15
ENDBRANCH   5   7
ENDBRANCH   1   4
BRANCH   1  20
ATOM     20  C   UNL     1      33.292 -23.976 -15.426  0.00  0.00    +0.121 C 
BRANCH  20  22
ATOM     21  O   UNL     1      32.764 -23.443 -13.107  0.00  0.00    -0.250 OA
ATOM     22  C   UNL     1      32.645 -24.199 -14.063  0.00  0.00    +0.319 C 
BRANCH  22  23
ATOM     23  O   UNL     1      31.925 -25.359 -14.080  0.00  0.00    -0.444 OA
ATOM     24  C   UNL     1      30.702 -25.335 -13.337  0.00  0.00    +0.256 C 
ENDBRANCH  22  23
ENDBRANCH  20  22
BRANCH  20  25
ATOM     25  C   UNL     1      34.307 -22.817 -15.342  0.00  0.00    +0.039 C 
BRANCH  25  26
ATOM     26  C   UNL     1      35.740 -23.285 -15.450  0.00  0.00    -0.021 C 
ATOM     27  C   UNL     1      36.110 -24.525 -14.928  0.00  0.00    -0.002 C 
ATOM     28  C   UNL     1      36.694 -22.476 -16.068  0.00  0.00    -0.004 C 
ATOM     29  C   UNL     1      37.433 -24.955 -15.026  0.00  0.00    +0.030 C 
ATOM     30  C   UNL     1      38.016 -22.908 -16.166  0.00  0.00    -0.000 C 
ATOM     31  C   UNL     1      38.386 -24.147 -15.644  0.00  0.00    +0.003 C 
BRANCH  29  34
ATOM     32  N   UNL     1      37.111 -26.832 -13.431  0.00  0.00    -0.343 N 
ATOM     33  N   UNL     1      38.862 -26.887 -14.979  0.00  0.00    -0.285 NA
ATOM     34  C   UNL     1      37.819 -26.248 -14.480  0.00  0.00    +0.117 C 
ATOM     35  H   UNL     1      37.390 -27.707 -13.077  0.00  0.00    +0.144 HD
ATOM     36  H   UNL     1      36.333 -26.370 -13.045  0.00  0.00    +0.144 HD
ATOM     37  H   UNL     1      39.125 -27.762 -14.610  0.00  0.00    +0.188 HD
ENDBRANCH  29  34
ENDBRANCH  25  26
ENDBRANCH  20  25
ENDBRANCH   1  20
TORSDOF 9
ENDMDL
MODEL 3
REMARK VINA RESULT:     -11.0      1.932      2.508
REMARK  Name = 5496659
REMARK  9 active torsions:
REMARK  status: ('A' for Active; 'I' for Inactive)
REMARK    1  A    between atoms: C_1  and  N_4
REMARK    2  A    between atoms: C_1  and  C_20
REMARK    3  A    between atoms: C_5  and  C_7
REMARK    4  A    between atoms: C_10  and  C_15
REMARK    5  A    between atoms: C_20  and  C_22
REMARK    6  A    between atoms: C_20  and  C_25
REMARK    7  A    between atoms: C_22  and  O_23
REMARK    8  A    between atoms: C_25  and  C_26
REMARK    9  A    between atoms: C_29  and  C_34
REMARK                            x       y       z     vdW  Elec       q    Type
REMARK                         _______ _______ _______ _____ _____    ______ ____
ROOT
ATOM      1  C   UNL     1      33.647 -23.925 -16.825  0.00  0.00    +0.083 C 
ATOM      2  C   UNL     1      32.217 -23.874 -16.288  0.00  0.00    +0.022 C 
ENDROOT
BRANCH   1   4
ATOM      3  O   UNL     1      34.111 -24.170 -19.647  0.00  0.00    -0.270 OA
ATOM      4  N   UNL     1      33.867 -22.846 -17.759  0.00  0.00    -0.302 N 
ATOM      5  C   UNL     1      34.084 -23.065 -19.111  0.00  0.00    +0.246 C 
ATOM      6  H   UNL     1      33.864 -21.920 -17.424  0.00  0.00    +0.150 HD
BRANCH   5   7
ATOM      7  C   UNL     1      34.319 -21.852 -19.935  0.00  0.00    +0.053 C 
ATOM      8  C   UNL     1      33.238 -21.116 -20.418  0.00  0.00    +0.005 C 
ATOM      9  C   UNL     1      35.622 -21.449 -20.226  0.00  0.00    +0.005 C 
ATOM     10  C   UNL     1      34.762 -19.574 -21.483  0.00  0.00    +0.000 C 
ATOM     11  C   UNL     1      33.459 -19.977 -21.192  0.00  0.00    +0.000 C 
ATOM     12  C   UNL     1      35.844 -20.311 -21.000  0.00  0.00    +0.000 C 
BRANCH  10  15
ATOM     13  O   UNL     1      35.646 -15.081 -24.545  0.00  0.00    -0.163 OA
ATOM     14  N   UNL     1      35.441 -16.119 -23.837  0.00  0.00    -0.127 N 
ATOM     15  C   UNL     1      34.993 -18.394 -22.287  0.00  0.00    +0.003 C 
ATOM     16  C   UNL     1      35.143 -17.153 -21.677  0.00  0.00    +0.022 C 
ATOM     17  C   UNL     1      35.068 -18.498 -23.672  0.00  0.00    +0.022 C 
ATOM     18  C   UNL     1      35.366 -16.027 -22.461  0.00  0.00    +0.121 C 
ATOM     19  C   UNL     1      35.291 -17.356 -24.434  0.00  0.00    +0.121 C 
ENDBRANCH  10  15
ENDBRANCH   5   7
ENDBRANCH   1   4
BRANCH   1  20
ATOM     20  C   UNL     1      34.698 -23.953 -15.691  0.00  0.00    +0.121 C 
BRANCH  20  22
ATOM     21  O   UNL     1      35.722 -21.800 -15.183  0.00  0.00    -0.250 OA
ATOM     22  C   UNL     1      35.715 -22.827 -15.850  0.00  0.00    +0.319 C 
BRANCH  22  23
ATOM     23  O   UNL     1      36.599 -23.142 -16.841  0.00  0.00    -0.444 OA
ATOM     24  C   UNL     1      37.859 -22.465 -16.779  0.00  0.00    +0.256 C 
ENDBRANCH  22  23
ENDBRANCH  20  22
BRANCH  20  25
ATOM     25  C   UNL     1      35.427 -25.311 -15.612  0.00  0.00    +0.039 C 
BRANCH  25  26
ATOM     26  C   UNL     1      36.340 -25.416 -14.412  0.00  0.00    -0.021 C 
ATOM     27  C   UNL     1      35.945 -24.879 -13.186  0.00  0.00    -0.002 C 
ATOM     28  C   UNL     1      37.578 -26.047 -14.530  0.00  0.00    -0.004 C 
ATOM     29  C   UNL     1      36.788 -24.973 -12.080  0.00  0.00    +0.030 C 
ATOM     30  C   UNL     1      38.420 -26.142 -13.423  0.00  0.00    -0.000 C 
ATOM     31  C   UNL     1      38.026 -25.604 -12.198  0.00  0.00    +0.003 C 
BRANCH  29  34
ATOM     32  N   UNL     1      36.913 -23.214 -10.331  0.00  0.00    -0.343 N 
ATOM     33  N   UNL     1      35.481 -25.042 -10.064  0.00  0.00    -0.285 NA
ATOM     34  C   UNL     1      36.377 -24.412 -10.802  0.00  0.00    +0.117 C 
ATOM     35  H   UNL     1      36.620 -22.852  -9.463  0.00  0.00    +0.144 HD
ATOM     36  H   UNL     1      37.583 -22.731 -10.866  0.00  0.00    +0.144 HD
ATOM     37  H   UNL     1      35.202 -24.663  -9.198  0.00  0.00    +0.188 HD
ENDBRANCH  29  34
ENDBRANCH  25  26
ENDBRANCH  20  25
ENDBRANCH   1  20
TORSDOF 9
ENDMDL
MODEL 4
REMARK VINA RESULT:     -10.5      2.408      5.430
REMARK  Name = 5496659
REMARK  9 active torsions:
REMARK  status: ('A' for Active; 'I' for Inactive)
REMARK    1  A    between atoms: C_1  and  N_4
REMARK    2  A    between atoms: C_1  and  C_20
REMARK    3  A    between atoms: C_5  and  C_7
REMARK    4  A    between atoms: C_10  and  C_15
REMARK    5  A    between atoms: C_20  and  C_22
REMARK    6  A    between atoms: C_20  and  C_25
REMARK    7  A    between atoms: C_22  and  O_23
REMARK    8  A    between atoms: C_25  and  C_26
REMARK    9  A    between atoms: C_29  and  C_34
REMARK                            x       y       z     vdW  Elec       q    Type
REMARK                         _______ _______ _______ _____ _____    ______ ____
ROOT
ATOM      1  C   UNL     1      36.708 -22.941 -15.913  0.00  0.00    +0.083 C 
ATOM      2  C   UNL     1      38.020 -23.719 -16.008  0.00  0.00    +0.022 C 
ENDROOT
BRANCH   1   4
ATOM      3  O   UNL     1      38.329 -20.957 -17.207  0.00  0.00    -0.270 OA
ATOM      4  N   UNL     1      36.427 -22.282 -17.166  0.00  0.00    -0.302 N 
ATOM      5  C   UNL     1      37.275 -21.332 -17.714  0.00  0.00    +0.246 C 
ATOM      6  H   UNL     1      35.601 -22.515 -17.650  0.00  0.00    +0.150 HD
BRANCH   5   7
ATOM      7  C   UNL     1      36.831 -20.728 -18.996  0.00  0.00    +0.053 C 
ATOM      8  C   UNL     1      37.570 -19.695 -19.573  0.00  0.00    +0.005 C 
ATOM      9  C   UNL     1      35.676 -21.192 -19.622  0.00  0.00    +0.005 C 
ATOM     10  C   UNL     1      35.997 -19.593 -21.404  0.00  0.00    +0.000 C 
ATOM     11  C   UNL     1      37.153 -19.127 -20.777  0.00  0.00    +0.000 C 
ATOM     12  C   UNL     1      35.258 -20.625 -20.826  0.00  0.00    +0.000 C 
BRANCH  10  15
ATOM     13  O   UNL     1      34.336 -17.351 -26.153  0.00  0.00    -0.163 OA
ATOM     14  N   UNL     1      34.721 -17.869 -25.056  0.00  0.00    -0.127 N 
ATOM     15  C   UNL     1      35.562 -19.004 -22.651  0.00  0.00    +0.003 C 
ATOM     16  C   UNL     1      34.959 -19.797 -23.623  0.00  0.00    +0.022 C 
ATOM     17  C   UNL     1      35.744 -17.645 -22.881  0.00  0.00    +0.022 C 
ATOM     18  C   UNL     1      34.544 -19.219 -24.817  0.00  0.00    +0.121 C 
ATOM     19  C   UNL     1      35.320 -17.091 -24.085  0.00  0.00    +0.121 C 
ENDBRANCH  10  15
ENDBRANCH   5   7
ENDBRANCH   1   4
BRANCH   1  20
ATOM     20  C   UNL     1      35.535 -23.827 -15.431  0.00  0.00    +0.121 C 
BRANCH  20  22
ATOM     21  O   UNL     1      35.954 -26.152 -16.033  0.00  0.00    -0.250 OA
ATOM     22  C   UNL     1      35.987 -25.264 -15.191  0.00  0.00    +0.319 C 
BRANCH  22  23
ATOM     23  O   UNL     1      36.426 -25.398 -13.905  0.00  0.00    -0.444 OA
ATOM     24  C   UNL     1      37.337 -26.479 -13.676  0.00  0.00    +0.256 C 
ENDBRANCH  22  23
ENDBRANCH  20  22
BRANCH  20  25
ATOM     25  C   UNL     1      34.352 -23.808 -16.422  0.00  0.00    +0.039 C 
BRANCH  25  26
ATOM     26  C   UNL     1      33.011 -23.727 -15.729  0.00  0.00    -0.021 C 
ATOM     27  C   UNL     1      31.843 -23.605 -16.483  0.00  0.00    -0.002 C 
ATOM     28  C   UNL     1      32.941 -23.771 -14.337  0.00  0.00    -0.004 C 
ATOM     29  C   UNL     1      30.606 -23.528 -15.843  0.00  0.00    +0.030 C 
ATOM     30  C   UNL     1      31.704 -23.694 -13.698  0.00  0.00    -0.000 C 
ATOM     31  C   UNL     1      30.536 -23.572 -14.451  0.00  0.00    +0.003 C 
BRANCH  29  34
ATOM     32  N   UNL     1      28.559 -24.495 -16.865  0.00  0.00    -0.343 N 
ATOM     33  N   UNL     1      29.054 -22.227 -17.136  0.00  0.00    -0.285 NA
ATOM     34  C   UNL     1      29.388 -23.399 -16.629  0.00  0.00    +0.117 C 
ATOM     35  H   UNL     1      27.740 -24.385 -17.400  0.00  0.00    +0.144 HD
ATOM     36  H   UNL     1      28.793 -25.377 -16.497  0.00  0.00    +0.144 HD
ATOM     37  H   UNL     1      28.230 -22.138 -17.669  0.00  0.00    +0.188 HD
ENDBRANCH  29  34
ENDBRANCH  25  26
ENDBRANCH  20  25
ENDBRANCH   1  20
TORSDOF 9
ENDMDL
MODEL 5
REMARK VINA RESULT:     -10.4      7.255     14.954
REMARK  Name = 5496659
REMARK  9 active torsions:
REMARK  status: ('A' for Active; 'I' for Inactive)
REMARK    1  A    between atoms: C_1  and  N_4
REMARK    2  A    between atoms: C_1  and  C_20
REMARK    3  A    between atoms: C_5  and  C_7
REMARK    4  A    between atoms: C_10  and  C_15
REMARK    5  A    between atoms: C_20  and  C_22
REMARK    6  A    between atoms: C_20  and  C_25
REMARK    7  A    between atoms: C_22  and  O_23
REMARK    8  A    between atoms: C_25  and  C_26
REMARK    9  A    between atoms: C_29  and  C_34
REMARK                            x       y       z     vdW  Elec       q    Type
REMARK                         _______ _______ _______ _____ _____    ______ ____
ROOT
ATOM      1  C   UNL     1      33.752 -11.195 -24.093  0.00  0.00    +0.083 C 
ATOM      2  C   UNL     1      34.969 -10.475 -24.672  0.00  0.00    +0.022 C 
ENDROOT
BRANCH   1   4
ATOM      3  O   UNL     1      33.929 -13.661 -25.552  0.00  0.00    -0.270 OA
ATOM      4  N   UNL     1      34.138 -12.483 -23.567  0.00  0.00    -0.302 N 
ATOM      5  C   UNL     1      34.195 -13.623 -24.354  0.00  0.00    +0.246 C 
ATOM      6  H   UNL     1      34.370 -12.554 -22.612  0.00  0.00    +0.150 HD
BRANCH   5   7
ATOM      7  C   UNL     1      34.585 -14.874 -23.656  0.00  0.00    +0.053 C 
ATOM      8  C   UNL     1      34.937 -16.004 -24.395  0.00  0.00    +0.005 C 
ATOM      9  C   UNL     1      34.600 -14.920 -22.263  0.00  0.00    +0.005 C 
ATOM     10  C   UNL     1      35.319 -17.225 -22.346  0.00  0.00    +0.000 C 
ATOM     11  C   UNL     1      35.304 -17.179 -23.740  0.00  0.00    +0.000 C 
ATOM     12  C   UNL     1      34.966 -16.095 -21.607  0.00  0.00    +0.000 C 
BRANCH  10  15
ATOM     13  O   UNL     1      36.758 -21.869 -19.755  0.00  0.00    -0.163 OA
ATOM     14  N   UNL     1      36.425 -20.795 -20.353  0.00  0.00    -0.127 N 
ATOM     15  C   UNL     1      35.697 -18.444 -21.665  0.00  0.00    +0.003 C 
ATOM     16  C   UNL     1      34.734 -19.404 -21.370  0.00  0.00    +0.022 C 
ATOM     17  C   UNL     1      37.022 -18.659 -21.305  0.00  0.00    +0.022 C 
ATOM     18  C   UNL     1      35.110 -20.572 -20.716  0.00  0.00    +0.121 C 
ATOM     19  C   UNL     1      37.373 -19.836 -20.651  0.00  0.00    +0.121 C 
ENDBRANCH  10  15
ENDBRANCH   5   7
ENDBRANCH   1   4
BRANCH   1  20
ATOM     20  C   UNL     1      32.998 -10.331 -23.056  0.00  0.00    +0.121 C 
BRANCH  20  22
ATOM     21  O   UNL     1      30.803 -11.191 -22.434  0.00  0.00    -0.250 OA
ATOM     22  C   UNL     1      32.013 -11.170 -22.247  0.00  0.00    +0.319 C 
BRANCH  22  23
ATOM     23  O   UNL     1      32.687 -11.879 -21.295  0.00  0.00    -0.444 OA
ATOM     24  C   UNL     1      31.992 -12.065 -20.058  0.00  0.00    +0.256 C 
ENDBRANCH  22  23
ENDBRANCH  20  22
BRANCH  20  25
ATOM     25  C   UNL     1      32.260  -9.147 -23.716  0.00  0.00    +0.039 C 
BRANCH  25  26
ATOM     26  C   UNL     1      32.307  -7.889 -22.880  0.00  0.00    -0.021 C 
ATOM     27  C   UNL     1      31.794  -6.695 -23.387  0.00  0.00    -0.002 C 
ATOM     28  C   UNL     1      32.866  -7.921 -21.603  0.00  0.00    -0.004 C 
ATOM     29  C   UNL     1      31.840  -5.534 -22.616  0.00  0.00    +0.030 C 
ATOM     30  C   UNL     1      32.911  -6.760 -20.832  0.00  0.00    -0.000 C 
ATOM     31  C   UNL     1      32.399  -5.566 -21.339  0.00  0.00    +0.003 C 
BRANCH  29  34
ATOM     32  N   UNL     1      31.714  -3.794 -24.385  0.00  0.00    -0.343 N 
ATOM     33  N   UNL     1      30.423  -3.601 -22.446  0.00  0.00    -0.285 NA
ATOM     34  C   UNL     1      31.307  -4.288 -23.146  0.00  0.00    +0.117 C 
ATOM     35  H   UNL     1      31.340  -2.949 -24.723  0.00  0.00    +0.144 HD
ATOM     36  H   UNL     1      32.374  -4.291 -24.920  0.00  0.00    +0.144 HD
ATOM     37  H   UNL     1      30.060  -2.757 -22.803  0.00  0.00    +0.188 HD
ENDBRANCH  29  34
ENDBRANCH  25  26
ENDBRANCH  20  25
ENDBRANCH   1  20
TORSDOF 9
ENDMDL
MODEL 6
REMARK VINA RESULT:     -10.3      3.069     11.024
REMARK  Name = 5496659
REMARK  9 active torsions:
REMARK  status: ('A' for Active; 'I' for Inactive)
REMARK    1  A    between atoms: C_1  and  N_4
REMARK    2  A    between atoms: C_1  and  C_20
REMARK    3  A    between atoms: C_5  and  C_7
REMARK    4  A    between atoms: C_10  and  C_15
REMARK    5  A    between atoms: C_20  and  C_22
REMARK    6  A    between atoms: C_20  and  C_25
REMARK    7  A    between atoms: C_22  and  O_23
REMARK    8  A    between atoms: C_25  and  C_26
REMARK    9  A    between atoms: C_29  and  C_34
REMARK                            x       y       z     vdW  Elec       q    Type
REMARK                         _______ _______ _______ _____ _____    ______ ____
ROOT
ATOM      1  C   UNL     1      36.777 -19.542 -21.191  0.00  0.00    +0.083 C 
ATOM      2  C   UNL     1      38.089 -18.768 -21.306  0.00  0.00    +0.022 C 
ENDROOT
BRANCH   1   4
ATOM      3  O   UNL     1      36.210 -22.305 -20.661  0.00  0.00    -0.270 OA
ATOM      4  N   UNL     1      36.681 -20.169 -19.894  0.00  0.00    -0.302 N 
ATOM      5  C   UNL     1      36.402 -21.518 -19.738  0.00  0.00    +0.246 C 
ATOM      6  H   UNL     1      36.819 -19.618 -19.089  0.00  0.00    +0.150 HD
BRANCH   5   7
ATOM      7  C   UNL     1      36.312 -22.004 -18.338  0.00  0.00    +0.053 C 
ATOM      8  C   UNL     1      35.119 -22.551 -17.865  0.00  0.00    +0.005 C 
ATOM      9  C   UNL     1      37.419 -21.914 -17.496  0.00  0.00    +0.005 C 
ATOM     10  C   UNL     1      36.143 -22.917 -15.707  0.00  0.00    +0.000 C 
ATOM     11  C   UNL     1      35.034 -23.007 -16.549  0.00  0.00    +0.000 C 
ATOM     12  C   UNL     1      37.336 -22.370 -16.181  0.00  0.00    +0.000 C 
BRANCH  10  15
ATOM     13  O   UNL     1      35.812 -24.708 -10.508  0.00  0.00    -0.163 OA
ATOM     14  N   UNL     1      35.889 -24.295 -11.710  0.00  0.00    -0.127 N 
ATOM     15  C   UNL     1      36.056 -23.389 -14.342  0.00  0.00    +0.003 C 
ATOM     16  C   UNL     1      37.100 -23.147 -13.455  0.00  0.00    +0.022 C 
ATOM     17  C   UNL     1      34.930 -24.083 -13.915  0.00  0.00    +0.022 C 
ATOM     18  C   UNL     1      37.004 -23.604 -12.145  0.00  0.00    +0.121 C 
ATOM     19  C   UNL     1      34.858 -24.529 -12.599  0.00  0.00    +0.121 C 
ENDBRANCH  10  15
ENDBRANCH   5   7
ENDBRANCH   1   4
BRANCH   1  20
ATOM     20  C   UNL     1      35.547 -18.663 -21.519  0.00  0.00    +0.121 C 
BRANCH  20  22
ATOM     21  O   UNL     1      34.003 -19.888 -22.953  0.00  0.00    -0.250 OA
ATOM     22  C   UNL     1      34.323 -19.518 -21.830  0.00  0.00    +0.319 C 
BRANCH  22  23
ATOM     23  O   UNL     1      33.651 -19.798 -20.675  0.00  0.00    -0.444 OA
ATOM     24  C   UNL     1      32.935 -21.038 -20.665  0.00  0.00    +0.256 C 
ENDBRANCH  22  23
ENDBRANCH  20  22
BRANCH  20  25
ATOM     25  C   UNL     1      35.823 -17.695 -22.688  0.00  0.00    +0.039 C 
BRANCH  25  26
ATOM     26  C   UNL     1      35.232 -16.322 -22.462  0.00  0.00    -0.021 C 
ATOM     27  C   UNL     1      34.993 -15.479 -23.548  0.00  0.00    -0.002 C 
ATOM     28  C   UNL     1      34.928 -15.898 -21.169  0.00  0.00    -0.004 C 
ATOM     29  C   UNL     1      34.451 -14.211 -23.339  0.00  0.00    +0.030 C 
ATOM     30  C   UNL     1      34.385 -14.630 -20.961  0.00  0.00    -0.000 C 
ATOM     31  C   UNL     1      34.147 -13.787 -22.045  0.00  0.00    +0.003 C 
BRANCH  29  34
ATOM     32  N   UNL     1      33.597 -13.800 -25.635  0.00  0.00    -0.343 N 
ATOM     33  N   UNL     1      34.560 -12.060 -24.405  0.00  0.00    -0.285 NA
ATOM     34  C   UNL     1      34.204 -13.331 -24.470  0.00  0.00    +0.117 C 
ATOM     35  H   UNL     1      33.440 -13.186 -26.388  0.00  0.00    +0.144 HD
ATOM     36  H   UNL     1      33.327 -14.744 -25.703  0.00  0.00    +0.144 HD
ATOM     37  H   UNL     1      34.393 -11.463 -25.170  0.00  0.00    +0.188 HD
ENDBRANCH  29  34
ENDBRANCH  25  26
ENDBRANCH  20  25
ENDBRANCH   1  20
TORSDOF 9
ENDMDL
MODEL 7
REMARK VINA RESULT:     -10.3      4.017     10.998
REMARK  Name = 5496659
REMARK  9 active torsions:
REMARK  status: ('A' for Active; 'I' for Inactive)
REMARK    1  A    between atoms: C_1  and  N_4
REMARK    2  A    between atoms: C_1  and  C_20
REMARK    3  A    between atoms: C_5  and  C_7
REMARK    4  A    between atoms: C_10  and  C_15
REMARK    5  A    between atoms: C_20  and  C_22
REMARK    6  A    between atoms: C_20  and  C_25
REMARK    7  A    between atoms: C_22  and  O_23
REMARK    8  A    between atoms: C_25  and  C_26
REMARK    9  A    between atoms: C_29  and  C_34
REMARK                            x       y       z     vdW  Elec       q    Type
REMARK                         _______ _______ _______ _____ _____    ______ ____
ROOT
ATOM      1  C   UNL     1      36.272 -19.508 -21.921  0.00  0.00    +0.083 C 
ATOM      2  C   UNL     1      37.502 -18.752 -21.422  0.00  0.00    +0.022 C 
ENDROOT
BRANCH   1   4
ATOM      3  O   UNL     1      36.972 -22.019 -20.718  0.00  0.00    -0.270 OA
ATOM      4  N   UNL     1      35.600 -20.153 -20.817  0.00  0.00    -0.302 N 
ATOM      5  C   UNL     1      36.015 -21.371 -20.303  0.00  0.00    +0.246 C 
ATOM      6  H   UNL     1      34.818 -19.709 -20.415  0.00  0.00    +0.150 HD
BRANCH   5   7
ATOM      7  C   UNL     1      35.202 -21.913 -19.184  0.00  0.00    +0.053 C 
ATOM      8  C   UNL     1      33.820 -22.036 -19.321  0.00  0.00    +0.005 C 
ATOM      9  C   UNL     1      35.821 -22.297 -17.995  0.00  0.00    +0.005 C 
ATOM     10  C   UNL     1      33.676 -22.929 -17.081  0.00  0.00    +0.000 C 
ATOM     11  C   UNL     1      33.057 -22.544 -18.270  0.00  0.00    +0.000 C 
ATOM     12  C   UNL     1      35.059 -22.805 -16.944  0.00  0.00    +0.000 C 
BRANCH  10  15
ATOM     13  O   UNL     1      30.669 -24.927 -12.921  0.00  0.00    -0.163 OA
ATOM     14  N   UNL     1      31.364 -24.466 -13.883  0.00  0.00    -0.127 N 
ATOM     15  C   UNL     1      32.886 -23.455 -15.989  0.00  0.00    +0.003 C 
ATOM     16  C   UNL     1      33.503 -24.155 -14.957  0.00  0.00    +0.022 C 
ATOM     17  C   UNL     1      31.510 -23.260 -15.969  0.00  0.00    +0.022 C 
ATOM     18  C   UNL     1      32.733 -24.654 -13.913  0.00  0.00    +0.121 C 
ATOM     19  C   UNL     1      30.761 -23.770 -14.912  0.00  0.00    +0.121 C 
ENDBRANCH  10  15
ENDBRANCH   5   7
ENDBRANCH   1   4
BRANCH   1  20
ATOM     20  C   UNL     1      35.326 -18.607 -22.748  0.00  0.00    +0.121 C 
BRANCH  20  22
ATOM     21  O   UNL     1      35.392 -20.306 -24.496  0.00  0.00    -0.250 OA
ATOM     22  C   UNL     1      34.860 -19.311 -24.019  0.00  0.00    +0.319 C 
BRANCH  22  23
ATOM     23  O   UNL     1      33.773 -18.664 -24.531  0.00  0.00    -0.444 OA
ATOM     24  C   UNL     1      34.017 -17.888 -25.709  0.00  0.00    +0.256 C 
ENDBRANCH  22  23
ENDBRANCH  20  22
BRANCH  20  25
ATOM     25  C   UNL     1      35.980 -17.256 -23.107  0.00  0.00    +0.039 C 
BRANCH  25  26
ATOM     26  C   UNL     1      35.226 -16.073 -22.546  0.00  0.00    -0.021 C 
ATOM     27  C   UNL     1      34.856 -15.021 -23.383  0.00  0.00    -0.002 C 
ATOM     28  C   UNL     1      34.902 -16.033 -21.189  0.00  0.00    -0.004 C 
ATOM     29  C   UNL     1      34.161 -13.928 -22.864  0.00  0.00    +0.030 C 
ATOM     30  C   UNL     1      34.207 -14.940 -20.671  0.00  0.00    -0.000 C 
ATOM     31  C   UNL     1      33.837 -13.888 -21.508  0.00  0.00    +0.003 C 
BRANCH  29  34
ATOM     32  N   UNL     1      33.110 -11.710 -23.242  0.00  0.00    -0.343 N 
ATOM     33  N   UNL     1      34.057 -12.886 -25.027  0.00  0.00    -0.285 NA
ATOM     34  C   UNL     1      33.777 -12.830 -23.737  0.00  0.00    +0.117 C 
ATOM     35  H   UNL     1      32.859 -10.979 -23.851  0.00  0.00    +0.144 HD
ATOM     36  H   UNL     1      32.891 -11.652 -22.284  0.00  0.00    +0.144 HD
ATOM     37  H   UNL     1      33.797 -12.142 -25.619  0.00  0.00    +0.188 HD
ENDBRANCH  29  34
ENDBRANCH  25  26
ENDBRANCH  20  25
ENDBRANCH   1  20
TORSDOF 9
ENDMDL
MODEL 8
REMARK VINA RESULT:     -10.2      2.454      5.527
REMARK  Name = 5496659
REMARK  9 active torsions:
REMARK  status: ('A' for Active; 'I' for Inactive)
REMARK    1  A    between atoms: C_1  and  N_4
REMARK    2  A    between atoms: C_1  and  C_20
REMARK    3  A    between atoms: C_5  and  C_7
REMARK    4  A    between atoms: C_10  and  C_15
REMARK    5  A    between atoms: C_20  and  C_22
REMARK    6  A    between atoms: C_20  and  C_25
REMARK    7  A    between atoms: C_22  and  O_23
REMARK    8  A    between atoms: C_25  and  C_26
REMARK    9  A    between atoms: C_29  and  C_34
REMARK                            x       y       z     vdW  Elec       q    Type
REMARK                         _______ _______ _______ _____ _____    ______ ____
ROOT
ATOM      1  C   UNL     1      36.292 -24.612 -14.761  0.00  0.00    +0.083 C 
ATOM      2  C   UNL     1      36.159 -26.094 -15.104  0.00  0.00    +0.022 C 
ENDROOT
BRANCH   1   4
ATOM      3  O   UNL     1      38.009 -22.438 -15.514  0.00  0.00    -0.270 OA
ATOM      4  N   UNL     1      36.196 -23.812 -15.960  0.00  0.00    -0.302 N 
ATOM      5  C   UNL     1      37.076 -22.778 -16.237  0.00  0.00    +0.246 C 
ATOM      6  H   UNL     1      35.477 -24.009 -16.604  0.00  0.00    +0.150 HD
BRANCH   5   7
ATOM      7  C   UNL     1      36.827 -22.035 -17.499  0.00  0.00    +0.053 C 
ATOM      8  C   UNL     1      37.659 -20.975 -17.860  0.00  0.00    +0.005 C 
ATOM      9  C   UNL     1      35.762 -22.398 -18.323  0.00  0.00    +0.005 C 
ATOM     10  C   UNL     1      36.359 -20.640 -19.869  0.00  0.00    +0.000 C 
ATOM     11  C   UNL     1      37.424 -20.277 -19.045  0.00  0.00    +0.000 C 
ATOM     12  C   UNL     1      35.527 -21.700 -19.507  0.00  0.00    +0.000 C 
BRANCH  10  15
ATOM     13  O   UNL     1      35.426 -17.886 -24.547  0.00  0.00    -0.163 OA
ATOM     14  N   UNL     1      35.641 -18.522 -23.465  0.00  0.00    -0.127 N 
ATOM     15  C   UNL     1      36.113 -19.916 -21.097  0.00  0.00    +0.003 C 
ATOM     16  C   UNL     1      37.080 -19.052 -21.601  0.00  0.00    +0.022 C 
ATOM     17  C   UNL     1      34.911 -20.083 -21.776  0.00  0.00    +0.022 C 
ATOM     18  C   UNL     1      36.832 -18.363 -22.783  0.00  0.00    +0.121 C 
ATOM     19  C   UNL     1      34.688 -19.382 -22.956  0.00  0.00    +0.121 C 
ENDBRANCH  10  15
ENDBRANCH   5   7
ENDBRANCH   1   4
BRANCH   1  20
ATOM     20  C   UNL     1      35.290 -24.170 -13.670  0.00  0.00    +0.121 C 
BRANCH  20  22
ATOM     21  O   UNL     1      35.510 -25.008 -11.391  0.00  0.00    -0.250 OA
ATOM     22  C   UNL     1      35.908 -24.263 -12.278  0.00  0.00    +0.319 C 
BRANCH  22  23
ATOM     23  O   UNL     1      36.957 -23.395 -12.181  0.00  0.00    -0.444 OA
ATOM     24  C   UNL     1      38.235 -23.998 -11.958  0.00  0.00    +0.256 C 
ENDBRANCH  22  23
ENDBRANCH  20  22
BRANCH  20  25
ATOM     25  C   UNL     1      33.982 -24.988 -13.719  0.00  0.00    +0.039 C 
BRANCH  25  26
ATOM     26  C   UNL     1      32.945 -24.377 -14.633  0.00  0.00    -0.021 C 
ATOM     27  C   UNL     1      31.629 -24.840 -14.601  0.00  0.00    -0.002 C 
ATOM     28  C   UNL     1      33.303 -23.354 -15.511  0.00  0.00    -0.004 C 
ATOM     29  C   UNL     1      30.672 -24.278 -15.446  0.00  0.00    +0.030 C 
ATOM     30  C   UNL     1      32.346 -22.793 -16.355  0.00  0.00    -0.000 C 
ATOM     31  C   UNL     1      31.031 -23.255 -16.324  0.00  0.00    +0.003 C 
BRANCH  29  34
ATOM     32  N   UNL     1      28.922 -25.813 -14.582  0.00  0.00    -0.343 N 
ATOM     33  N   UNL     1      28.388 -24.202 -16.188  0.00  0.00    -0.285 NA
ATOM     34  C   UNL     1      29.300 -24.761 -15.414  0.00  0.00    +0.117 C 
ATOM     35  H   UNL     1      27.988 -26.124 -14.577  0.00  0.00    +0.144 HD
ATOM     36  H   UNL     1      29.588 -26.245 -14.000  0.00  0.00    +0.144 HD
ATOM     37  H   UNL     1      27.458 -24.528 -16.168  0.00  0.00    +0.188 HD
ENDBRANCH  29  34
ENDBRANCH  25  26
ENDBRANCH  20  25
ENDBRANCH   1  20
TORSDOF 9
ENDMDL
MODEL 9
REMARK VINA RESULT:     -10.1      6.267     10.947
REMARK  Name = 5496659
REMARK  9 active torsions:
REMARK  status: ('A' for Active; 'I' for Inactive)
REMARK    1  A    between atoms: C_1  and  N_4
REMARK    2  A    between atoms: C_1  and  C_20
REMARK    3  A    between atoms: C_5  and  C_7
REMARK    4  A    between atoms: C_10  and  C_15
REMARK    5  A    between atoms: C_20  and  C_22
REMARK    6  A    between atoms: C_20  and  C_25
REMARK    7  A    between atoms: C_22  and  O_23
REMARK    8  A    between atoms: C_25  and  C_26
REMARK    9  A    between atoms: C_29  and  C_34
REMARK                            x       y       z     vdW  Elec       q    Type
REMARK                         _______ _______ _______ _____ _____    ______ ____
ROOT
ATOM      1  C   UNL     1      34.386 -15.586 -22.009  0.00  0.00    +0.083 C 
ATOM      2  C   UNL     1      35.040 -15.836 -20.651  0.00  0.00    +0.022 C 
ENDROOT
BRANCH   1   4
ATOM      3  O   UNL     1      32.086 -14.321 -20.846  0.00  0.00    -0.270 OA
ATOM      4  N   UNL     1      34.010 -14.197 -22.132  0.00  0.00    -0.302 N 
ATOM      5  C   UNL     1      32.875 -13.676 -21.531  0.00  0.00    +0.246 C 
ATOM      6  H   UNL     1      34.582 -13.597 -22.665  0.00  0.00    +0.150 HD
BRANCH   5   7
ATOM      7  C   UNL     1      32.615 -12.235 -21.775  0.00  0.00    +0.053 C 
ATOM      8  C   UNL     1      31.991 -11.463 -20.795  0.00  0.00    +0.005 C 
ATOM      9  C   UNL     1      32.993 -11.653 -22.984  0.00  0.00    +0.005 C 
ATOM     10  C   UNL     1      32.125  -9.527 -22.234  0.00  0.00    +0.000 C 
ATOM     11  C   UNL     1      31.745 -10.109 -21.024  0.00  0.00    +0.000 C 
ATOM     12  C   UNL     1      32.748 -10.300 -23.214  0.00  0.00    +0.000 C 
BRANCH  10  15
ATOM     13  O   UNL     1      31.149  -4.184 -23.150  0.00  0.00    -0.163 OA
ATOM     14  N   UNL     1      31.375  -5.419 -22.939  0.00  0.00    -0.127 N 
ATOM     15  C   UNL     1      31.869  -8.124 -22.475  0.00  0.00    +0.003 C 
ATOM     16  C   UNL     1      31.491  -7.692 -23.742  0.00  0.00    +0.022 C 
ATOM     17  C   UNL     1      32.001  -7.204 -21.440  0.00  0.00    +0.022 C 
ATOM     18  C   UNL     1      31.247  -6.341 -23.960  0.00  0.00    +0.121 C 
ATOM     19  C   UNL     1      31.752  -5.858 -21.684  0.00  0.00    +0.121 C 
ENDBRANCH  10  15
ENDBRANCH   5   7
ENDBRANCH   1   4
BRANCH   1  20
ATOM     20  C   UNL     1      35.268 -16.070 -23.183  0.00  0.00    +0.121 C 
BRANCH  20  22
ATOM     21  O   UNL     1      35.225 -13.986 -24.447  0.00  0.00    -0.250 OA
ATOM     22  C   UNL     1      35.069 -15.200 -24.420  0.00  0.00    +0.319 C 
BRANCH  22  23
ATOM     23  O   UNL     1      34.694 -15.981 -25.475  0.00  0.00    -0.444 OA
ATOM     24  C   UNL     1      33.725 -15.402 -26.355  0.00  0.00    +0.256 C 
ENDBRANCH  22  23
ENDBRANCH  20  22
BRANCH  20  25
ATOM     25  C   UNL     1      35.005 -17.549 -23.533  0.00  0.00    +0.039 C 
BRANCH  25  26
ATOM     26  C   UNL     1      35.540 -18.502 -22.488  0.00  0.00    -0.021 C 
ATOM     27  C   UNL     1      34.673 -19.379 -21.836  0.00  0.00    -0.002 C 
ATOM     28  C   UNL     1      36.899 -18.502 -22.174  0.00  0.00    -0.004 C 
ATOM     29  C   UNL     1      35.166 -20.256 -20.870  0.00  0.00    +0.030 C 
ATOM     30  C   UNL     1      37.391 -19.379 -21.209  0.00  0.00    -0.000 C 
ATOM     31  C   UNL     1      36.525 -20.256 -20.556  0.00  0.00    +0.003 C 
BRANCH  29  34
ATOM     32  N   UNL     1      32.885 -20.951 -20.175  0.00  0.00    -0.343 N 
ATOM     33  N   UNL     1      34.745 -22.227 -19.562  0.00  0.00    -0.285 NA
ATOM     34  C   UNL     1      34.262 -21.169 -20.188  0.00  0.00    +0.117 C 
ATOM     35  H   UNL     1      32.292 -21.582 -19.707  0.00  0.00    +0.144 HD
ATOM     36  H   UNL     1      32.507 -20.166 -20.633  0.00  0.00    +0.144 HD
ATOM     37  H   UNL     1      34.134 -22.846 -19.099  0.00  0.00    +0.188 HD
ENDBRANCH  29  34
ENDBRANCH  25  26
ENDBRANCH  20  25
ENDBRANCH   1  20
TORSDOF 9
ENDMDL
