MODEL 1
REMARK VINA RESULT:     -11.5      0.000      0.000
REMARK  Name = 447359
REMARK  5 active torsions:
REMARK  status: ('A' for Active; 'I' for Inactive)
REMARK    1  A    between atoms: N_2  and  S_8
REMARK    2  A    between atoms: N_3  and  C_21
REMARK    3  A    between atoms: S_8  and  C_13
REMARK    4  A    between atoms: C_21  and  C_22
REMARK    5  A    between atoms: C_25  and  C_30
REMARK                            x       y       z     vdW  Elec       q    Type
REMARK                         _______ _______ _______ _____ _____    ______ ____
ROOT
ATOM      1  O   UNL     1      37.612 -20.523 -20.270  0.00  0.00    -0.273 OA
ATOM      2  N   UNL     1      34.297 -21.667 -19.373  0.00  0.00    -0.144 NA
ATOM      3  N   UNL     1      35.547 -19.739 -20.974  0.00  0.00    -0.273 N 
ATOM      4  C   UNL     1      33.570 -21.166 -20.561  0.00  0.00    +0.118 C 
ATOM      5  C   UNL     1      34.093 -19.775 -20.846  0.00  0.00    +0.113 C 
ATOM      6  C   UNL     1      35.737 -21.825 -19.649  0.00  0.00    +0.181 C 
ATOM      7  C   UNL     1      36.382 -20.628 -20.301  0.00  0.00    +0.244 C 
ENDROOT
BRANCH   2   8
ATOM      8  S   UNL     1      33.555 -22.962 -18.535  0.00  0.00    +0.069 S 
ATOM      9  O   UNL     1      33.820 -24.189 -19.258  0.00  0.00    -0.152 OA
ATOM     10  O   UNL     1      32.216 -22.574 -18.149  0.00  0.00    -0.152 OA
BRANCH   8  13
ATOM     11 CL   UNL     1      35.937 -24.498 -10.875  0.00  0.00    -0.082 Cl
ATOM     12  S   UNL     1      33.463 -23.824 -15.750  0.00  0.00    -0.067 S 
ATOM     13  C   UNL     1      34.414 -23.156 -16.977  0.00  0.00    +0.152 C 
ATOM     14  C   UNL     1      35.680 -22.867 -16.598  0.00  0.00    +0.027 C 
ATOM     15  C   UNL     1      35.917 -23.203 -15.223  0.00  0.00    +0.008 C 
ATOM     16  C   UNL     1      34.772 -23.744 -14.630  0.00  0.00    +0.032 C 
ATOM     17  C   UNL     1      37.082 -23.071 -14.431  0.00  0.00    +0.001 C 
ATOM     18  C   UNL     1      34.763 -24.150 -13.281  0.00  0.00    +0.018 C 
ATOM     19  C   UNL     1      37.078 -23.474 -13.092  0.00  0.00    +0.011 C 
ATOM     20  C   UNL     1      35.928 -24.006 -12.526  0.00  0.00    +0.058 C 
ENDBRANCH   8  13
ENDBRANCH   2   8
BRANCH   3  21
ATOM     21  C   UNL     1      36.106 -18.578 -21.653  0.00  0.00    +0.120 C 
BRANCH  21  22
ATOM     22  C   UNL     1      35.484 -18.443 -23.009  0.00  0.00    -0.002 C 
ATOM     23  C   UNL     1      35.209 -17.178 -23.519  0.00  0.00    +0.000 C 
ATOM     24  C   UNL     1      35.185 -19.583 -23.749  0.00  0.00    -0.003 C 
ATOM     25  C   UNL     1      34.629 -17.052 -24.782  0.00  0.00    +0.030 C 
ATOM     26  C   UNL     1      34.605 -19.456 -25.011  0.00  0.00    -0.000 C 
ATOM     27  C   UNL     1      34.327 -18.191 -25.528  0.00  0.00    +0.003 C 
BRANCH  25  30
ATOM     28  N   UNL     1      34.344 -14.600 -24.508  0.00  0.00    -0.343 N 
ATOM     29  N   UNL     1      34.059 -15.594 -26.605  0.00  0.00    -0.285 NA
ATOM     30  C   UNL     1      34.339 -15.732 -25.321  0.00  0.00    +0.117 C 
ATOM     31  H   UNL     1      34.145 -13.717 -24.894  0.00  0.00    +0.144 HD
ATOM     32  H   UNL     1      34.547 -14.683 -23.549  0.00  0.00    +0.144 HD
ATOM     33  H   UNL     1      33.863 -14.701 -26.972  0.00  0.00    +0.188 HD
ENDBRANCH  25  30
ENDBRANCH  21  22
ENDBRANCH   3  21
TORSDOF 5
ENDMDL
MODEL 2
REMARK VINA RESULT:     -11.4      4.513     10.179
REMARK  Name = 447359
REMARK  5 active torsions:
REMARK  status: ('A' for Active; 'I' for Inactive)
REMARK    1  A    between atoms: N_2  and  S_8
REMARK    2  A    between atoms: N_3  and  C_21
REMARK    3  A    between atoms: S_8  and  C_13
REMARK    4  A    between atoms: C_21  and  C_22
REMARK    5  A    between atoms: C_25  and  C_30
REMARK                            x       y       z     vdW  Elec       q    Type
REMARK                         _______ _______ _______ _____ _____    ______ ____
ROOT
ATOM      1  O   UNL     1      34.136 -24.180 -14.091  0.00  0.00    -0.273 OA
ATOM      2  N   UNL     1      34.628 -22.791 -17.397  0.00  0.00    -0.144 NA
ATOM      3  N   UNL     1      35.980 -23.079 -14.963  0.00  0.00    -0.273 N 
ATOM      4  C   UNL     1      36.107 -22.806 -17.417  0.00  0.00    +0.118 C 
ATOM      5  C   UNL     1      36.573 -22.322 -16.061  0.00  0.00    +0.113 C 
ATOM      6  C   UNL     1      34.091 -23.755 -16.417  0.00  0.00    +0.181 C 
ATOM      7  C   UNL     1      34.723 -23.669 -15.050  0.00  0.00    +0.244 C 
ENDROOT
BRANCH   2   8
ATOM      8  S   UNL     1      33.860 -22.785 -18.927  0.00  0.00    +0.069 S 
ATOM      9  O   UNL     1      32.495 -22.331 -18.755  0.00  0.00    -0.152 OA
ATOM     10  O   UNL     1      34.178 -24.014 -19.622  0.00  0.00    -0.152 OA
BRANCH   8  13
ATOM     11 CL   UNL     1      35.782 -16.579 -23.877  0.00  0.00    -0.082 Cl
ATOM     12  S   UNL     1      33.555 -20.547 -20.774  0.00  0.00    -0.067 S 
ATOM     13  C   UNL     1      34.643 -21.515 -19.916  0.00  0.00    +0.152 C 
ATOM     14  C   UNL     1      35.942 -21.186 -20.104  0.00  0.00    +0.027 C 
ATOM     15  C   UNL     1      36.086 -20.075 -21.002  0.00  0.00    +0.008 C 
ATOM     16  C   UNL     1      34.842 -19.621 -21.451  0.00  0.00    +0.032 C 
ATOM     17  C   UNL     1      37.248 -19.414 -21.469  0.00  0.00    +0.001 C 
ATOM     18  C   UNL     1      34.732 -18.537 -22.344  0.00  0.00    +0.018 C 
ATOM     19  C   UNL     1      37.143 -18.338 -22.354  0.00  0.00    +0.011 C 
ATOM     20  C   UNL     1      35.896 -17.907 -22.786  0.00  0.00    +0.058 C 
ENDBRANCH   8  13
ENDBRANCH   2   8
BRANCH   3  21
ATOM     21  C   UNL     1      36.662 -22.991 -13.678  0.00  0.00    +0.120 C 
BRANCH  21  22
ATOM     22  C   UNL     1      37.397 -24.269 -13.412  0.00  0.00    -0.002 C 
ATOM     23  C   UNL     1      38.503 -24.604 -14.187  0.00  0.00    +0.000 C 
ATOM     24  C   UNL     1      36.968 -25.114 -12.392  0.00  0.00    -0.003 C 
ATOM     25  C   UNL     1      39.186 -25.795 -13.940  0.00  0.00    +0.030 C 
ATOM     26  C   UNL     1      37.651 -26.304 -12.146  0.00  0.00    -0.000 C 
ATOM     27  C   UNL     1      38.760 -26.646 -12.920  0.00  0.00    +0.003 C 
BRANCH  25  30
ATOM     28  N   UNL     1      41.371 -26.939 -14.232  0.00  0.00    -0.343 N 
ATOM     29  N   UNL     1      40.433 -25.722 -15.993  0.00  0.00    -0.285 NA
ATOM     30  C   UNL     1      40.343 -26.152 -14.747  0.00  0.00    +0.117 C 
ATOM     31  H   UNL     1      42.145 -27.168 -14.796  0.00  0.00    +0.144 HD
ATOM     32  H   UNL     1      41.323 -27.266 -13.305  0.00  0.00    +0.144 HD
ATOM     33  H   UNL     1      41.215 -25.962 -16.541  0.00  0.00    +0.188 HD
ENDBRANCH  25  30
ENDBRANCH  21  22
ENDBRANCH   3  21
TORSDOF 5
ENDMDL
MODEL 3
REMARK VINA RESULT:     -10.6     10.477     14.697
REMARK  Name = 447359
REMARK  5 active torsions:
REMARK  status: ('A' for Active; 'I' for Inactive)
REMARK    1  A    between atoms: N_2  and  S_8
REMARK    2  A    between atoms: N_3  and  C_21
REMARK    3  A    between atoms: S_8  and  C_13
REMARK    4  A    between atoms: C_21  and  C_22
REMARK    5  A    between atoms: C_25  and  C_30
REMARK                            x       y       z     vdW  Elec       q    Type
REMARK                         _______ _______ _______ _____ _____    ______ ____
ROOT
ATOM      1  O   UNL     1      31.736 -11.587 -18.644  0.00  0.00    -0.273 OA
ATOM      2  N   UNL     1      32.451  -8.844 -20.895  0.00  0.00    -0.144 NA
ATOM      3  N   UNL     1      31.854 -11.578 -20.959  0.00  0.00    -0.273 N 
ATOM      4  C   UNL     1      31.803  -9.389 -22.109  0.00  0.00    +0.118 C 
ATOM      5  C   UNL     1      32.173 -10.855 -22.186  0.00  0.00    +0.113 C 
ATOM      6  C   UNL     1      31.910  -9.463 -19.670  0.00  0.00    +0.181 C 
ATOM      7  C   UNL     1      31.851 -10.969 -19.707  0.00  0.00    +0.244 C 
ENDROOT
BRANCH   2   8
ATOM      8  S   UNL     1      32.634  -7.142 -20.848  0.00  0.00    +0.069 S 
ATOM      9  O   UNL     1      33.706  -6.820 -19.928  0.00  0.00    -0.152 OA
ATOM     10  O   UNL     1      31.328  -6.527 -20.749  0.00  0.00    -0.152 OA
BRANCH   8  13
ATOM     11 CL   UNL     1      33.904  -3.812 -28.197  0.00  0.00    -0.082 Cl
ATOM     12  S   UNL     1      32.216  -5.532 -23.244  0.00  0.00    -0.067 S 
ATOM     13  C   UNL     1      33.235  -6.622 -22.451  0.00  0.00    +0.152 C 
ATOM     14  C   UNL     1      34.353  -6.937 -23.145  0.00  0.00    +0.027 C 
ATOM     15  C   UNL     1      34.406  -6.259 -24.409  0.00  0.00    +0.008 C 
ATOM     16  C   UNL     1      33.284  -5.447 -24.595  0.00  0.00    +0.032 C 
ATOM     17  C   UNL     1      35.381  -6.297 -25.434  0.00  0.00    +0.001 C 
ATOM     18  C   UNL     1      33.114  -4.681 -25.766  0.00  0.00    +0.018 C 
ATOM     19  C   UNL     1      35.217  -5.540 -26.597  0.00  0.00    +0.011 C 
ATOM     20  C   UNL     1      34.094  -4.741 -26.759  0.00  0.00    +0.058 C 
ENDBRANCH   8  13
ENDBRANCH   2   8
BRANCH   3  21
ATOM     21  C   UNL     1      31.767 -13.028 -21.070  0.00  0.00    +0.120 C 
BRANCH  21  22
ATOM     22  C   UNL     1      32.858 -13.528 -21.967  0.00  0.00    -0.002 C 
ATOM     23  C   UNL     1      32.681 -13.507 -23.347  0.00  0.00    +0.000 C 
ATOM     24  C   UNL     1      34.040 -14.012 -21.414  0.00  0.00    -0.003 C 
ATOM     25  C   UNL     1      33.697 -13.974 -24.182  0.00  0.00    +0.030 C 
ATOM     26  C   UNL     1      35.054 -14.479 -22.249  0.00  0.00    -0.000 C 
ATOM     27  C   UNL     1      34.883 -14.461 -23.633  0.00  0.00    +0.003 C 
BRANCH  25  30
ATOM     28  N   UNL     1      33.788 -12.811 -26.374  0.00  0.00    -0.343 N 
ATOM     29  N   UNL     1      33.089 -15.038 -26.250  0.00  0.00    -0.285 NA
ATOM     30  C   UNL     1      33.518 -13.955 -25.626  0.00  0.00    +0.117 C 
ATOM     31  H   UNL     1      33.660 -12.820 -27.350  0.00  0.00    +0.144 HD
ATOM     32  H   UNL     1      34.105 -11.994 -25.927  0.00  0.00    +0.144 HD
ATOM     33  H   UNL     1      32.968 -15.027 -27.227  0.00  0.00    +0.188 HD
ENDBRANCH  25  30
ENDBRANCH  21  22
ENDBRANCH   3  21
TORSDOF 5
ENDMDL
MODEL 4
REMARK VINA RESULT:     -10.4      4.443      6.816
REMARK  Name = 447359
REMARK  5 active torsions:
REMARK  status: ('A' for Active; 'I' for Inactive)
REMARK    1  A    between atoms: N_2  and  S_8
REMARK    2  A    between atoms: N_3  and  C_21
REMARK    3  A    between atoms: S_8  and  C_13
REMARK    4  A    between atoms: C_21  and  C_22
REMARK    5  A    between atoms: C_25  and  C_30
REMARK                            x       y       z     vdW  Elec       q    Type
REMARK                         _______ _______ _______ _____ _____    ______ ____
ROOT
ATOM      1  O   UNL     1      33.756 -15.692 -25.633  0.00  0.00    -0.273 OA
ATOM      2  N   UNL     1      35.930 -17.131 -23.122  0.00  0.00    -0.144 NA
ATOM      3  N   UNL     1      34.209 -14.953 -23.483  0.00  0.00    -0.273 N 
ATOM      4  C   UNL     1      35.298 -16.534 -21.925  0.00  0.00    +0.118 C 
ATOM      5  C   UNL     1      34.993 -15.090 -22.260  0.00  0.00    +0.113 C 
ATOM      6  C   UNL     1      34.996 -17.169 -24.264  0.00  0.00    +0.181 C 
ATOM      7  C   UNL     1      34.288 -15.866 -24.532  0.00  0.00    +0.244 C 
ENDROOT
BRANCH   2   8
ATOM      8  S   UNL     1      36.833 -18.561 -22.855  0.00  0.00    +0.069 S 
ATOM      9  O   UNL     1      38.041 -18.215 -22.133  0.00  0.00    -0.152 OA
ATOM     10  O   UNL     1      36.865 -19.337 -24.076  0.00  0.00    -0.152 OA
BRANCH   8  13
ATOM     11 CL   UNL     1      34.157 -23.646 -17.051  0.00  0.00    -0.082 Cl
ATOM     12  S   UNL     1      36.858 -20.446 -20.628  0.00  0.00    -0.067 S 
ATOM     13  C   UNL     1      35.899 -19.582 -21.720  0.00  0.00    +0.152 C 
ATOM     14  C   UNL     1      34.570 -19.792 -21.573  0.00  0.00    +0.027 C 
ATOM     15  C   UNL     1      34.289 -20.711 -20.508  0.00  0.00    +0.008 C 
ATOM     16  C   UNL     1      35.466 -21.154 -19.897  0.00  0.00    +0.032 C 
ATOM     17  C   UNL     1      33.055 -21.203 -20.019  0.00  0.00    +0.001 C 
ATOM     18  C   UNL     1      35.441 -22.065 -18.823  0.00  0.00    +0.018 C 
ATOM     19  C   UNL     1      33.026 -22.107 -18.953  0.00  0.00    +0.011 C 
ATOM     20  C   UNL     1      34.208 -22.532 -18.364  0.00  0.00    +0.058 C 
ENDBRANCH   8  13
ENDBRANCH   2   8
BRANCH   3  21
ATOM     21  C   UNL     1      33.512 -13.686 -23.663  0.00  0.00    +0.120 C 
BRANCH  21  22
ATOM     22  C   UNL     1      32.989 -13.210 -22.343  0.00  0.00    -0.002 C 
ATOM     23  C   UNL     1      32.750 -11.853 -22.144  0.00  0.00    +0.000 C 
ATOM     24  C   UNL     1      32.747 -14.126 -21.323  0.00  0.00    -0.003 C 
ATOM     25  C   UNL     1      32.264 -11.409 -20.914  0.00  0.00    +0.030 C 
ATOM     26  C   UNL     1      32.262 -13.681 -20.094  0.00  0.00    -0.000 C 
ATOM     27  C   UNL     1      32.020 -12.323 -19.889  0.00  0.00    +0.003 C 
BRANCH  25  30
ATOM     28  N   UNL     1      31.882  -9.109 -21.770  0.00  0.00    -0.343 N 
ATOM     29  N   UNL     1      31.906  -9.522 -19.469  0.00  0.00    -0.285 NA
ATOM     30  C   UNL     1      32.012  -9.992 -20.700  0.00  0.00    +0.117 C 
ATOM     31  H   UNL     1      31.711  -8.155 -21.602  0.00  0.00    +0.144 HD
ATOM     32  H   UNL     1      31.960  -9.440 -22.693  0.00  0.00    +0.144 HD
ATOM     33  H   UNL     1      31.736  -8.564 -19.322  0.00  0.00    +0.188 HD
ENDBRANCH  25  30
ENDBRANCH  21  22
ENDBRANCH   3  21
TORSDOF 5
ENDMDL
MODEL 5
REMARK VINA RESULT:     -10.2      5.973     10.783
REMARK  Name = 447359
REMARK  5 active torsions:
REMARK  status: ('A' for Active; 'I' for Inactive)
REMARK    1  A    between atoms: N_2  and  S_8
REMARK    2  A    between atoms: N_3  and  C_21
REMARK    3  A    between atoms: S_8  and  C_13
REMARK    4  A    between atoms: C_21  and  C_22
REMARK    5  A    between atoms: C_25  and  C_30
REMARK                            x       y       z     vdW  Elec       q    Type
REMARK                         _______ _______ _______ _____ _____    ______ ____
ROOT
ATOM      1  O   UNL     1      35.701 -16.861 -20.915  0.00  0.00    -0.273 OA
ATOM      2  N   UNL     1      34.976 -16.665 -24.456  0.00  0.00    -0.144 NA
ATOM      3  N   UNL     1      35.842 -18.511 -22.537  0.00  0.00    -0.273 N 
ATOM      4  C   UNL     1      34.715 -18.101 -24.700  0.00  0.00    +0.118 C 
ATOM      5  C   UNL     1      35.776 -18.877 -23.949  0.00  0.00    +0.113 C 
ATOM      6  C   UNL     1      34.799 -16.318 -23.033  0.00  0.00    +0.181 C 
ATOM      7  C   UNL     1      35.509 -17.241 -22.075  0.00  0.00    +0.244 C 
ENDROOT
BRANCH   2   8
ATOM      8  S   UNL     1      34.275 -15.578 -25.577  0.00  0.00    +0.069 S 
ATOM      9  O   UNL     1      33.043 -16.158 -26.072  0.00  0.00    -0.152 OA
ATOM     10  O   UNL     1      35.303 -15.086 -26.469  0.00  0.00    -0.152 OA
BRANCH   8  13
ATOM     11 CL   UNL     1      32.832  -8.083 -22.667  0.00  0.00    -0.082 Cl
ATOM     12  S   UNL     1      34.312 -12.671 -25.332  0.00  0.00    -0.067 S 
ATOM     13  C   UNL     1      33.763 -14.124 -24.667  0.00  0.00    +0.152 C 
ATOM     14  C   UNL     1      33.018 -13.972 -23.547  0.00  0.00    +0.027 C 
ATOM     15  C   UNL     1      32.871 -12.590 -23.188  0.00  0.00    +0.008 C 
ATOM     16  C   UNL     1      33.538 -11.758 -24.091  0.00  0.00    +0.032 C 
ATOM     17  C   UNL     1      32.183 -11.989 -22.107  0.00  0.00    +0.001 C 
ATOM     18  C   UNL     1      33.535 -10.357 -23.942  0.00  0.00    +0.018 C 
ATOM     19  C   UNL     1      32.177 -10.600 -21.956  0.00  0.00    +0.011 C 
ATOM     20  C   UNL     1      32.848  -9.795 -22.865  0.00  0.00    +0.058 C 
ENDBRANCH   8  13
ENDBRANCH   2   8
BRANCH   3  21
ATOM     21  C   UNL     1      36.501 -19.464 -21.655  0.00  0.00    +0.120 C 
BRANCH  21  22
ATOM     22  C   UNL     1      35.470 -20.243 -20.898  0.00  0.00    -0.002 C 
ATOM     23  C   UNL     1      35.858 -21.046 -19.830  0.00  0.00    +0.000 C 
ATOM     24  C   UNL     1      34.131 -20.160 -21.268  0.00  0.00    -0.003 C 
ATOM     25  C   UNL     1      34.898 -21.773 -19.125  0.00  0.00    +0.030 C 
ATOM     26  C   UNL     1      33.172 -20.887 -20.563  0.00  0.00    -0.000 C 
ATOM     27  C   UNL     1      33.554 -21.694 -19.492  0.00  0.00    +0.003 C 
BRANCH  25  30
ATOM     28  N   UNL     1      36.509 -22.417 -17.348  0.00  0.00    -0.343 N 
ATOM     29  N   UNL     1      34.504 -23.591 -17.603  0.00  0.00    -0.285 NA
ATOM     30  C   UNL     1      35.297 -22.614 -18.008  0.00  0.00    +0.117 C 
ATOM     31  H   UNL     1      36.759 -22.998 -16.594  0.00  0.00    +0.144 HD
ATOM     32  H   UNL     1      37.115 -21.697 -17.636  0.00  0.00    +0.144 HD
ATOM     33  H   UNL     1      34.772 -24.161 -16.847  0.00  0.00    +0.188 HD
ENDBRANCH  25  30
ENDBRANCH  21  22
ENDBRANCH   3  21
TORSDOF 5
ENDMDL
MODEL 6
REMARK VINA RESULT:     -10.2     10.419     15.260
REMARK  Name = 447359
REMARK  5 active torsions:
REMARK  status: ('A' for Active; 'I' for Inactive)
REMARK    1  A    between atoms: N_2  and  S_8
REMARK    2  A    between atoms: N_3  and  C_21
REMARK    3  A    between atoms: S_8  and  C_13
REMARK    4  A    between atoms: C_21  and  C_22
REMARK    5  A    between atoms: C_25  and  C_30
REMARK                            x       y       z     vdW  Elec       q    Type
REMARK                         _______ _______ _______ _____ _____    ______ ____
ROOT
ATOM      1  O   UNL     1      33.845 -11.241 -24.582  0.00  0.00    -0.273 OA
ATOM      2  N   UNL     1      32.549  -8.738 -22.311  0.00  0.00    -0.144 NA
ATOM      3  N   UNL     1      32.372 -11.487 -22.809  0.00  0.00    -0.273 N 
ATOM      4  C   UNL     1      32.203  -9.631 -21.183  0.00  0.00    +0.118 C 
ATOM      5  C   UNL     1      31.550 -10.861 -21.778  0.00  0.00    +0.113 C 
ATOM      6  C   UNL     1      33.563  -9.348 -23.192  0.00  0.00    +0.181 C 
ATOM      7  C   UNL     1      33.256 -10.765 -23.606  0.00  0.00    +0.244 C 
ENDROOT
BRANCH   2   8
ATOM      8  S   UNL     1      32.810  -7.094 -21.908  0.00  0.00    +0.069 S 
ATOM      9  O   UNL     1      33.942  -7.015 -21.008  0.00  0.00    -0.152 OA
ATOM     10  O   UNL     1      31.539  -6.474 -21.600  0.00  0.00    -0.152 OA
BRANCH   8  13
ATOM     11 CL   UNL     1      33.677  -2.530 -28.626  0.00  0.00    -0.082 Cl
ATOM     12  S   UNL     1      32.196  -5.205 -24.045  0.00  0.00    -0.067 S 
ATOM     13  C   UNL     1      33.349  -6.256 -23.395  0.00  0.00    +0.152 C 
ATOM     14  C   UNL     1      34.506  -6.307 -24.095  0.00  0.00    +0.027 C 
ATOM     15  C   UNL     1      34.477  -5.441 -25.239  0.00  0.00    +0.008 C 
ATOM     16  C   UNL     1      33.254  -4.769 -25.334  0.00  0.00    +0.032 C 
ATOM     17  C   UNL     1      35.457  -5.189 -26.228  0.00  0.00    +0.001 C 
ATOM     18  C   UNL     1      32.991  -3.862 -26.381  0.00  0.00    +0.018 C 
ATOM     19  C   UNL     1      35.201  -4.290 -27.267  0.00  0.00    +0.011 C 
ATOM     20  C   UNL     1      33.979  -3.636 -27.340  0.00  0.00    +0.058 C 
ENDBRANCH   8  13
ENDBRANCH   2   8
BRANCH   3  21
ATOM     21  C   UNL     1      32.054 -12.871 -23.133  0.00  0.00    +0.120 C 
BRANCH  21  22
ATOM     22  C   UNL     1      33.102 -13.774 -22.559  0.00  0.00    -0.002 C 
ATOM     23  C   UNL     1      33.822 -14.618 -23.400  0.00  0.00    +0.000 C 
ATOM     24  C   UNL     1      33.349 -13.765 -21.189  0.00  0.00    -0.003 C 
ATOM     25  C   UNL     1      34.798 -15.460 -22.866  0.00  0.00    +0.030 C 
ATOM     26  C   UNL     1      34.324 -14.607 -20.656  0.00  0.00    -0.000 C 
ATOM     27  C   UNL     1      35.049 -15.455 -21.493  0.00  0.00    +0.003 C 
BRANCH  25  30
ATOM     28  N   UNL     1      36.283 -17.416 -23.229  0.00  0.00    -0.343 N 
ATOM     29  N   UNL     1      35.559 -16.132 -25.044  0.00  0.00    -0.285 NA
ATOM     30  C   UNL     1      35.554 -16.344 -23.739  0.00  0.00    +0.117 C 
ATOM     31  H   UNL     1      36.788 -18.002 -23.839  0.00  0.00    +0.144 HD
ATOM     32  H   UNL     1      36.294 -17.588 -22.261  0.00  0.00    +0.144 HD
ATOM     33  H   UNL     1      36.071 -16.730 -25.637  0.00  0.00    +0.188 HD
ENDBRANCH  25  30
ENDBRANCH  21  22
ENDBRANCH   3  21
TORSDOF 5
ENDMDL
MODEL 7
REMARK VINA RESULT:     -10.1      4.641     10.104
REMARK  Name = 447359
REMARK  5 active torsions:
REMARK  status: ('A' for Active; 'I' for Inactive)
REMARK    1  A    between atoms: N_2  and  S_8
REMARK    2  A    between atoms: N_3  and  C_21
REMARK    3  A    between atoms: S_8  and  C_13
REMARK    4  A    between atoms: C_21  and  C_22
REMARK    5  A    between atoms: C_25  and  C_30
REMARK                            x       y       z     vdW  Elec       q    Type
REMARK                         _______ _______ _______ _____ _____    ______ ____
ROOT
ATOM      1  O   UNL     1      32.341 -20.602 -19.944  0.00  0.00    -0.273 OA
ATOM      2  N   UNL     1      35.746 -19.955 -20.987  0.00  0.00    -0.144 NA
ATOM      3  N   UNL     1      34.254 -21.858 -19.575  0.00  0.00    -0.273 N 
ATOM      4  C   UNL     1      36.251 -21.345 -20.941  0.00  0.00    +0.118 C 
ATOM      5  C   UNL     1      35.706 -21.972 -19.675  0.00  0.00    +0.113 C 
ATOM      6  C   UNL     1      34.277 -19.919 -21.118  0.00  0.00    +0.181 C 
ATOM      7  C   UNL     1      33.543 -20.804 -20.143  0.00  0.00    +0.244 C 
ENDROOT
BRANCH   2   8
ATOM      8  S   UNL     1      36.608 -18.881 -22.004  0.00  0.00    +0.069 S 
ATOM      9  O   UNL     1      36.495 -19.350 -23.370  0.00  0.00    -0.152 OA
ATOM     10  O   UNL     1      37.888 -18.580 -21.400  0.00  0.00    -0.152 OA
BRANCH   8  13
ATOM     11 CL   UNL     1      33.033 -11.722 -23.638  0.00  0.00    -0.082 Cl
ATOM     12  S   UNL     1      35.660 -16.561 -23.496  0.00  0.00    -0.067 S 
ATOM     13  C   UNL     1      35.744 -17.314 -21.985  0.00  0.00    +0.152 C 
ATOM     14  C   UNL     1      35.146 -16.621 -20.989  0.00  0.00    +0.027 C 
ATOM     15  C   UNL     1      34.574 -15.392 -21.462  0.00  0.00    +0.008 C 
ATOM     16  C   UNL     1      34.785 -15.230 -22.834  0.00  0.00    +0.032 C 
ATOM     17  C   UNL     1      33.867 -14.380 -20.770  0.00  0.00    +0.001 C 
ATOM     18  C   UNL     1      34.313 -14.096 -23.524  0.00  0.00    +0.018 C 
ATOM     19  C   UNL     1      33.396 -13.254 -21.450  0.00  0.00    +0.011 C 
ATOM     20  C   UNL     1      33.619 -13.115 -22.813  0.00  0.00    +0.058 C 
ENDBRANCH   8  13
ENDBRANCH   2   8
BRANCH   3  21
ATOM     21  C   UNL     1      33.599 -22.771 -18.649  0.00  0.00    +0.120 C 
BRANCH  21  22
ATOM     22  C   UNL     1      34.415 -22.888 -17.398  0.00  0.00    -0.002 C 
ATOM     23  C   UNL     1      33.869 -23.497 -16.272  0.00  0.00    +0.000 C 
ATOM     24  C   UNL     1      35.713 -22.386 -17.369  0.00  0.00    -0.003 C 
ATOM     25  C   UNL     1      34.628 -23.606 -15.107  0.00  0.00    +0.030 C 
ATOM     26  C   UNL     1      36.471 -22.494 -16.204  0.00  0.00    -0.000 C 
ATOM     27  C   UNL     1      35.929 -23.103 -15.072  0.00  0.00    +0.003 C 
BRANCH  25  30
ATOM     28  N   UNL     1      33.075 -25.218 -14.032  0.00  0.00    -0.343 N 
ATOM     29  N   UNL     1      34.487 -23.891 -12.725  0.00  0.00    -0.285 NA
ATOM     30  C   UNL     1      34.064 -24.241 -13.927  0.00  0.00    +0.117 C 
ATOM     31  H   UNL     1      32.707 -25.635 -13.220  0.00  0.00    +0.144 HD
ATOM     32  H   UNL     1      32.745 -25.490 -14.918  0.00  0.00    +0.144 HD
ATOM     33  H   UNL     1      34.106 -24.320 -11.925  0.00  0.00    +0.188 HD
ENDBRANCH  25  30
ENDBRANCH  21  22
ENDBRANCH   3  21
TORSDOF 5
ENDMDL
MODEL 8
REMARK VINA RESULT:     -10.1      8.055     12.139
REMARK  Name = 447359
REMARK  5 active torsions:
REMARK  status: ('A' for Active; 'I' for Inactive)
REMARK    1  A    between atoms: N_2  and  S_8
REMARK    2  A    between atoms: N_3  and  C_21
REMARK    3  A    between atoms: S_8  and  C_13
REMARK    4  A    between atoms: C_21  and  C_22
REMARK    5  A    between atoms: C_25  and  C_30
REMARK                            x       y       z     vdW  Elec       q    Type
REMARK                         _______ _______ _______ _____ _____    ______ ____
ROOT
ATOM      1  O   UNL     1      35.189 -15.463 -20.806  0.00  0.00    -0.273 OA
ATOM      2  N   UNL     1      32.859 -12.796 -21.556  0.00  0.00    -0.144 NA
ATOM      3  N   UNL     1      34.580 -14.578 -22.860  0.00  0.00    -0.273 N 
ATOM      4  C   UNL     1      32.549 -13.170 -22.953  0.00  0.00    +0.118 C 
ATOM      5  C   UNL     1      33.859 -13.554 -23.609  0.00  0.00    +0.113 C 
ATOM      6  C   UNL     1      33.372 -13.948 -20.790  0.00  0.00    +0.181 C 
ATOM      7  C   UNL     1      34.476 -14.711 -21.478  0.00  0.00    +0.244 C 
ENDROOT
BRANCH   2   8
ATOM      8  S   UNL     1      31.681 -11.843 -20.760  0.00  0.00    +0.069 S 
ATOM      9  O   UNL     1      31.937 -11.890 -19.335  0.00  0.00    -0.152 OA
ATOM     10  O   UNL     1      30.377 -12.137 -21.315  0.00  0.00    -0.152 OA
BRANCH   8  13
ATOM     11 CL   UNL     1      32.688  -4.645 -24.487  0.00  0.00    -0.082 Cl
ATOM     12  S   UNL     1      31.834  -9.843 -22.879  0.00  0.00    -0.067 S 
ATOM     13  C   UNL     1      31.970 -10.138 -21.220  0.00  0.00    +0.152 C 
ATOM     14  C   UNL     1      32.277  -9.041 -20.488  0.00  0.00    +0.027 C 
ATOM     15  C   UNL     1      32.414  -7.872 -21.310  0.00  0.00    +0.008 C 
ATOM     16  C   UNL     1      32.196  -8.172 -22.658  0.00  0.00    +0.032 C 
ATOM     17  C   UNL     1      32.723  -6.535 -20.963  0.00  0.00    +0.001 C 
ATOM     18  C   UNL     1      32.278  -7.180 -23.655  0.00  0.00    +0.018 C 
ATOM     19  C   UNL     1      32.805  -5.549 -21.949  0.00  0.00    +0.011 C 
ATOM     20  C   UNL     1      32.585  -5.871 -23.281  0.00  0.00    +0.058 C 
ENDBRANCH   8  13
ENDBRANCH   2   8
BRANCH   3  21
ATOM     21  C   UNL     1      35.604 -15.311 -23.593  0.00  0.00    +0.120 C 
BRANCH  21  22
ATOM     22  C   UNL     1      35.245 -16.765 -23.638  0.00  0.00    -0.002 C 
ATOM     23  C   UNL     1      35.439 -17.558 -22.512  0.00  0.00    +0.000 C 
ATOM     24  C   UNL     1      34.722 -17.312 -24.806  0.00  0.00    -0.003 C 
ATOM     25  C   UNL     1      35.106 -18.913 -22.553  0.00  0.00    +0.030 C 
ATOM     26  C   UNL     1      34.390 -18.666 -24.847  0.00  0.00    -0.000 C 
ATOM     27  C   UNL     1      34.582 -19.467 -23.722  0.00  0.00    +0.003 C 
BRANCH  25  30
ATOM     28  N   UNL     1      34.243 -20.421 -20.779  0.00  0.00    -0.343 N 
ATOM     29  N   UNL     1      36.514 -19.876 -20.862  0.00  0.00    -0.285 NA
ATOM     30  C   UNL     1      35.305 -19.748 -21.380  0.00  0.00    +0.117 C 
ATOM     31  H   UNL     1      34.400 -20.981 -19.986  0.00  0.00    +0.144 HD
ATOM     32  H   UNL     1      33.335 -20.335 -21.149  0.00  0.00    +0.144 HD
ATOM     33  H   UNL     1      36.652 -20.442 -20.067  0.00  0.00    +0.188 HD
ENDBRANCH  25  30
ENDBRANCH  21  22
ENDBRANCH   3  21
TORSDOF 5
ENDMDL
MODEL 9
REMARK VINA RESULT:     -10.0      8.899     12.566
REMARK  Name = 447359
REMARK  5 active torsions:
REMARK  status: ('A' for Active; 'I' for Inactive)
REMARK    1  A    between atoms: N_2  and  S_8
REMARK    2  A    between atoms: N_3  and  C_21
REMARK    3  A    between atoms: S_8  and  C_13
REMARK    4  A    between atoms: C_21  and  C_22
REMARK    5  A    between atoms: C_25  and  C_30
REMARK                            x       y       z     vdW  Elec       q    Type
REMARK                         _______ _______ _______ _____ _____    ______ ____
ROOT
ATOM      1  O   UNL     1      35.422  -9.197 -24.787  0.00  0.00    -0.273 OA
ATOM      2  N   UNL     1      33.001 -10.247 -22.310  0.00  0.00    -0.144 NA
ATOM      3  N   UNL     1      34.243  -7.922 -23.252  0.00  0.00    -0.273 N 
ATOM      4  C   UNL     1      32.289  -8.961 -22.148  0.00  0.00    +0.118 C 
ATOM      5  C   UNL     1      33.343  -7.875 -22.104  0.00  0.00    +0.113 C 
ATOM      6  C   UNL     1      33.706 -10.315 -23.604  0.00  0.00    +0.181 C 
ATOM      7  C   UNL     1      34.550  -9.106 -23.917  0.00  0.00    +0.244 C 
ENDROOT
BRANCH   2   8
ATOM      8  S   UNL     1      32.119 -11.648 -21.872  0.00  0.00    +0.069 S 
ATOM      9  O   UNL     1      30.872 -11.656 -22.608  0.00  0.00    -0.152 OA
ATOM     10  O   UNL     1      32.162 -11.806 -20.434  0.00  0.00    -0.152 OA
BRANCH   8  13
ATOM     11 CL   UNL     1      36.604 -18.384 -22.984  0.00  0.00    -0.082 Cl
ATOM     12  S   UNL     1      33.775 -13.976 -21.279  0.00  0.00    -0.067 S 
ATOM     13  C   UNL     1      33.022 -13.065 -22.488  0.00  0.00    +0.152 C 
ATOM     14  C   UNL     1      33.214 -13.544 -23.739  0.00  0.00    +0.027 C 
ATOM     15  C   UNL     1      34.024 -14.729 -23.740  0.00  0.00    +0.008 C 
ATOM     16  C   UNL     1      34.406 -15.082 -22.442  0.00  0.00    +0.032 C 
ATOM     17  C   UNL     1      34.463 -15.543 -24.811  0.00  0.00    +0.001 C 
ATOM     18  C   UNL     1      35.207 -16.213 -22.192  0.00  0.00    +0.018 C 
ATOM     19  C   UNL     1      35.258 -16.666 -24.567  0.00  0.00    +0.011 C 
ATOM     20  C   UNL     1      35.625 -16.996 -23.270  0.00  0.00    +0.058 C 
ENDBRANCH   8  13
ENDBRANCH   2   8
BRANCH   3  21
ATOM     21  C   UNL     1      34.998  -6.707 -23.528  0.00  0.00    +0.120 C 
BRANCH  21  22
ATOM     22  C   UNL     1      34.170  -5.782 -24.367  0.00  0.00    -0.002 C 
ATOM     23  C   UNL     1      33.076  -5.133 -23.804  0.00  0.00    +0.000 C 
ATOM     24  C   UNL     1      34.500  -5.580 -25.704  0.00  0.00    -0.003 C 
ATOM     25  C   UNL     1      32.305  -4.272 -24.585  0.00  0.00    +0.030 C 
ATOM     26  C   UNL     1      33.728  -4.720 -26.485  0.00  0.00    -0.000 C 
ATOM     27  C   UNL     1      32.630  -4.066 -25.926  0.00  0.00    +0.003 C 
BRANCH  25  30
ATOM     28  N   UNL     1      30.723  -3.879 -22.711  0.00  0.00    -0.343 N 
ATOM     29  N   UNL     1      30.511  -2.677 -24.704  0.00  0.00    -0.285 NA
ATOM     30  C   UNL     1      31.160  -3.589 -24.002  0.00  0.00    +0.117 C 
ATOM     31  H   UNL     1      29.946  -3.405 -22.337  0.00  0.00    +0.144 HD
ATOM     32  H   UNL     1      31.191  -4.558 -22.174  0.00  0.00    +0.144 HD
ATOM     33  H   UNL     1      29.736  -2.213 -24.312  0.00  0.00    +0.188 HD
ENDBRANCH  25  30
ENDBRANCH  21  22
ENDBRANCH   3  21
TORSDOF 5
ENDMDL
