MODEL 1
REMARK VINA RESULT:     -11.9      0.000      0.000
REMARK  Name = 11961293
REMARK  7 active torsions:
REMARK  status: ('A' for Active; 'I' for Inactive)
REMARK    1  A    between atoms: C_1  and  C_3
REMARK    2  A    between atoms: C_1  and  N_21
REMARK    3  A    between atoms: N_2  and  C_9
REMARK    4  A    between atoms: C_9  and  C_12
REMARK    5  A    between atoms: C_17  and  O_18
REMARK    6  A    between atoms: C_22  and  C_26
REMARK    7  A    between atoms: C_30  and  C_35
REMARK                            x       y       z     vdW  Elec       q    Type
REMARK                         _______ _______ _______ _____ _____    ______ ____
ROOT
ATOM      1  C   UNL     1      34.282 -14.986 -24.725  0.00  0.00    +0.089 C 
ENDROOT
BRANCH   1   3
ATOM      2  N   UNL     1      35.475 -18.260 -22.174  0.00  0.00    +0.387 N 
ATOM      3  C   UNL     1      35.179 -15.953 -23.958  0.00  0.00    +0.015 C 
ATOM      4  C   UNL     1      35.790 -18.382 -23.603  0.00  0.00    -0.077 C 
ATOM      5  C   UNL     1      35.747 -16.902 -21.685  0.00  0.00    -0.077 C 
ATOM      6  C   UNL     1      34.968 -17.395 -24.435  0.00  0.00    -0.021 C 
ATOM      7  C   UNL     1      34.923 -15.865 -22.450  0.00  0.00    -0.021 C 
ATOM      8  H   UNL     1      34.479 -18.444 -22.053  0.00  0.00    -0.080 HD
BRANCH   2   9
ATOM      9  C   UNL     1      36.230 -19.245 -21.397  0.00  0.00    -0.077 C 
BRANCH   9  12
ATOM     10  O   UNL     1      32.120 -22.400 -17.935  0.00  0.00    -0.226 OA
ATOM     11  N   UNL     1      33.882 -22.274 -19.446  0.00  0.00    -0.246 N 
ATOM     12  C   UNL     1      35.401 -20.505 -21.165  0.00  0.00    -0.017 C 
ATOM     13  C   UNL     1      33.986 -20.149 -20.685  0.00  0.00    +0.020 C 
ATOM     14  C   UNL     1      36.089 -21.430 -20.147  0.00  0.00    +0.020 C 
ATOM     15  C   UNL     1      33.172 -21.404 -20.382  0.00  0.00    +0.097 C 
ATOM     16  C   UNL     1      35.236 -22.663 -19.854  0.00  0.00    +0.097 C 
ATOM     17  C   UNL     1      33.256 -22.722 -18.280  0.00  0.00    +0.405 C 
BRANCH  17  18
ATOM     18  O   UNL     1      34.045 -23.571 -17.550  0.00  0.00    -0.430 OA
ATOM     19  C   UNL     1      34.357 -23.152 -16.215  0.00  0.00    +0.257 C 
ENDBRANCH  17  18
ENDBRANCH   9  12
ENDBRANCH   2   9
ENDBRANCH   1   3
BRANCH   1  21
ATOM     20  O   UNL     1      34.479 -12.134 -24.458  0.00  0.00    -0.270 OA
ATOM     21  N   UNL     1      33.524 -14.144 -23.811  0.00  0.00    -0.301 N 
ATOM     22  C   UNL     1      33.696 -12.775 -23.762  0.00  0.00    +0.247 C 
ATOM     23  H   UNL     1      32.868 -14.564 -23.209  0.00  0.00    +0.150 HD
BRANCH  22  26
ATOM     24  N   UNL     1      31.841  -8.643 -22.221  0.00  0.00    -0.318 N 
ATOM     25  N   UNL     1      33.083  -9.727 -23.712  0.00  0.00    -0.318 N 
ATOM     26  C   UNL     1      32.866 -12.061 -22.758  0.00  0.00    +0.068 C 
ATOM     27  C   UNL     1      32.653 -10.683 -22.829  0.00  0.00    +0.063 C 
ATOM     28  C   UNL     1      32.258 -12.738 -21.696  0.00  0.00    +0.006 C 
ATOM     29  C   UNL     1      31.878  -9.982 -21.908  0.00  0.00    +0.059 C 
ATOM     30  C   UNL     1      32.573  -8.525 -23.307  0.00  0.00    +0.144 C 
ATOM     31  C   UNL     1      31.476 -12.061 -20.757  0.00  0.00    +0.001 C 
ATOM     32  C   UNL     1      31.276 -10.678 -20.848  0.00  0.00    +0.016 C 
ATOM     33  H   UNL     1      31.369  -7.927 -21.738  0.00  0.00    +0.148 HD
ATOM     34  H   UNL     1      33.658  -9.879 -24.497  0.00  0.00    +0.148 HD
BRANCH  30  35
ATOM     35  C   UNL     1      32.789  -7.229 -23.976  0.00  0.00    +0.037 C 
ATOM     36  C   UNL     1      31.682  -6.191 -23.668  0.00  0.00    +0.003 C 
ATOM     37  C   UNL     1      34.172  -6.605 -23.667  0.00  0.00    +0.003 C 
ENDBRANCH  30  35
ENDBRANCH  22  26
ENDBRANCH   1  21
TORSDOF 7
ENDMDL
MODEL 2
REMARK VINA RESULT:     -11.2      2.762      4.813
REMARK  Name = 11961293
REMARK  7 active torsions:
REMARK  status: ('A' for Active; 'I' for Inactive)
REMARK    1  A    between atoms: C_1  and  C_3
REMARK    2  A    between atoms: C_1  and  N_21
REMARK    3  A    between atoms: N_2  and  C_9
REMARK    4  A    between atoms: C_9  and  C_12
REMARK    5  A    between atoms: C_17  and  O_18
REMARK    6  A    between atoms: C_22  and  C_26
REMARK    7  A    between atoms: C_30  and  C_35
REMARK                            x       y       z     vdW  Elec       q    Type
REMARK                         _______ _______ _______ _____ _____    ______ ____
ROOT
ATOM      1  C   UNL     1      36.372 -18.623 -21.860  0.00  0.00    +0.089 C 
ENDROOT
BRANCH   1   3
ATOM      2  N   UNL     1      34.488 -21.635 -19.402  0.00  0.00    +0.387 N 
ATOM      3  C   UNL     1      35.743 -19.951 -21.449  0.00  0.00    +0.015 C 
ATOM      4  C   UNL     1      33.684 -21.067 -20.493  0.00  0.00    -0.077 C 
ATOM      5  C   UNL     1      35.865 -21.899 -19.841  0.00  0.00    -0.077 C 
ATOM      6  C   UNL     1      34.290 -19.757 -21.001  0.00  0.00    -0.021 C 
ATOM      7  C   UNL     1      36.546 -20.616 -20.326  0.00  0.00    -0.021 C 
ATOM      8  H   UNL     1      34.525 -20.949 -18.648  0.00  0.00    -0.080 HD
BRANCH   2   9
ATOM      9  C   UNL     1      33.869 -22.859 -18.893  0.00  0.00    -0.077 C 
BRANCH   9  12
ATOM     10  O   UNL     1      32.477 -25.382 -13.368  0.00  0.00    -0.226 OA
ATOM     11  N   UNL     1      32.311 -23.712 -14.976  0.00  0.00    -0.246 N 
ATOM     12  C   UNL     1      33.432 -22.683 -17.441  0.00  0.00    -0.017 C 
ATOM     13  C   UNL     1      34.232 -23.611 -16.513  0.00  0.00    +0.020 C 
ATOM     14  C   UNL     1      31.926 -22.952 -17.288  0.00  0.00    +0.020 C 
ATOM     15  C   UNL     1      33.754 -23.494 -15.068  0.00  0.00    +0.097 C 
ATOM     16  C   UNL     1      31.489 -22.847 -15.829  0.00  0.00    +0.097 C 
ATOM     17  C   UNL     1      31.792 -24.656 -14.085  0.00  0.00    +0.405 C 
BRANCH  17  18
ATOM     18  O   UNL     1      30.422 -24.689 -14.090  0.00  0.00    -0.430 OA
ATOM     19  C   UNL     1      29.817 -25.674 -14.937  0.00  0.00    +0.257 C 
ENDBRANCH  17  18
ENDBRANCH   9  12
ENDBRANCH   2   9
ENDBRANCH   1   3
BRANCH   1  21
ATOM     20  O   UNL     1      35.971 -16.243 -23.414  0.00  0.00    -0.270 OA
ATOM     21  N   UNL     1      35.496 -17.509 -21.532  0.00  0.00    -0.301 N 
ATOM     22  C   UNL     1      35.375 -16.405 -22.353  0.00  0.00    +0.247 C 
ATOM     23  H   UNL     1      34.972 -17.543 -20.699  0.00  0.00    +0.150 HD
BRANCH  22  26
ATOM     24  N   UNL     1      33.076 -12.303 -23.235  0.00  0.00    -0.318 N 
ATOM     25  N   UNL     1      34.448 -13.901 -23.945  0.00  0.00    -0.318 N 
ATOM     26  C   UNL     1      34.459 -15.342 -21.865  0.00  0.00    +0.068 C 
ATOM     27  C   UNL     1      34.105 -14.255 -22.666  0.00  0.00    +0.063 C 
ATOM     28  C   UNL     1      33.908 -15.384 -20.581  0.00  0.00    +0.006 C 
ATOM     29  C   UNL     1      33.247 -13.243 -22.244  0.00  0.00    +0.059 C 
ATOM     30  C   UNL     1      33.810 -12.729 -24.239  0.00  0.00    +0.144 C 
ATOM     31  C   UNL     1      33.044 -14.382 -20.129  0.00  0.00    +0.001 C 
ATOM     32  C   UNL     1      32.703 -13.300 -20.951  0.00  0.00    +0.016 C 
ATOM     33  H   UNL     1      32.524 -11.489 -23.200  0.00  0.00    +0.148 HD
ATOM     34  H   UNL     1      35.048 -14.402 -24.545  0.00  0.00    +0.148 HD
BRANCH  30  35
ATOM     35  C   UNL     1      33.900 -11.995 -25.515  0.00  0.00    +0.037 C 
ATOM     36  C   UNL     1      35.102 -11.021 -25.575  0.00  0.00    +0.003 C 
ATOM     37  C   UNL     1      33.936 -12.924 -26.753  0.00  0.00    +0.003 C 
ENDBRANCH  30  35
ENDBRANCH  22  26
ENDBRANCH   1  21
TORSDOF 7
ENDMDL
MODEL 3
REMARK VINA RESULT:     -11.2      2.713      5.391
REMARK  Name = 11961293
REMARK  7 active torsions:
REMARK  status: ('A' for Active; 'I' for Inactive)
REMARK    1  A    between atoms: C_1  and  C_3
REMARK    2  A    between atoms: C_1  and  N_21
REMARK    3  A    between atoms: N_2  and  C_9
REMARK    4  A    between atoms: C_9  and  C_12
REMARK    5  A    between atoms: C_17  and  O_18
REMARK    6  A    between atoms: C_22  and  C_26
REMARK    7  A    between atoms: C_30  and  C_35
REMARK                            x       y       z     vdW  Elec       q    Type
REMARK                         _______ _______ _______ _____ _____    ______ ____
ROOT
ATOM      1  C   UNL     1      36.991 -18.920 -21.499  0.00  0.00    +0.089 C 
ENDROOT
BRANCH   1   3
ATOM      2  N   UNL     1      34.360 -21.620 -19.392  0.00  0.00    +0.387 N 
ATOM      3  C   UNL     1      36.149 -20.155 -21.195  0.00  0.00    +0.015 C 
ATOM      4  C   UNL     1      33.836 -21.003 -20.618  0.00  0.00    -0.077 C 
ATOM      5  C   UNL     1      35.753 -22.051 -19.569  0.00  0.00    -0.077 C 
ATOM      6  C   UNL     1      34.671 -19.786 -21.022  0.00  0.00    -0.021 C 
ATOM      7  C   UNL     1      36.653 -20.869 -19.936  0.00  0.00    -0.021 C 
ATOM      8  H   UNL     1      34.339 -20.919 -18.652  0.00  0.00    -0.080 HD
BRANCH   2   9
ATOM      9  C   UNL     1      33.522 -22.750 -18.990  0.00  0.00    -0.077 C 
BRANCH   9  12
ATOM     10  O   UNL     1      32.256 -25.697 -13.647  0.00  0.00    -0.226 OA
ATOM     11  N   UNL     1      32.153 -23.859 -15.066  0.00  0.00    -0.246 N 
ATOM     12  C   UNL     1      33.204 -22.688 -17.498  0.00  0.00    -0.017 C 
ATOM     13  C   UNL     1      33.966 -23.780 -16.731  0.00  0.00    +0.020 C 
ATOM     14  C   UNL     1      31.693 -22.827 -17.256  0.00  0.00    +0.020 C 
ATOM     15  C   UNL     1      33.601 -23.771 -15.249  0.00  0.00    +0.097 C 
ATOM     16  C   UNL     1      31.368 -22.835 -15.763  0.00  0.00    +0.097 C 
ATOM     17  C   UNL     1      31.602 -24.838 -14.235  0.00  0.00    +0.405 C 
BRANCH  17  18
ATOM     18  O   UNL     1      30.239 -24.740 -14.136  0.00  0.00    -0.430 OA
ATOM     19  C   UNL     1      29.480 -25.649 -14.942  0.00  0.00    +0.257 C 
ENDBRANCH  17  18
ENDBRANCH   9  12
ENDBRANCH   2   9
ENDBRANCH   1   3
BRANCH   1  21
ATOM     20  O   UNL     1      35.449 -16.544 -21.032  0.00  0.00    -0.270 OA
ATOM     21  N   UNL     1      36.350 -18.089 -22.506  0.00  0.00    -0.301 N 
ATOM     22  C   UNL     1      35.627 -16.960 -22.174  0.00  0.00    +0.247 C 
ATOM     23  H   UNL     1      36.434 -18.338 -23.455  0.00  0.00    +0.150 HD
BRANCH  22  26
ATOM     24  N   UNL     1      33.034 -13.241 -23.700  0.00  0.00    -0.318 N 
ATOM     25  N   UNL     1      33.956 -14.343 -22.005  0.00  0.00    -0.318 N 
ATOM     26  C   UNL     1      35.013 -16.234 -23.315  0.00  0.00    +0.068 C 
ATOM     27  C   UNL     1      34.279 -15.061 -23.128  0.00  0.00    +0.063 C 
ATOM     28  C   UNL     1      35.144 -16.691 -24.630  0.00  0.00    +0.006 C 
ATOM     29  C   UNL     1      33.693 -14.352 -24.173  0.00  0.00    +0.059 C 
ATOM     30  C   UNL     1      33.212 -13.266 -22.398  0.00  0.00    +0.144 C 
ATOM     31  C   UNL     1      34.566 -16.002 -25.699  0.00  0.00    +0.001 C 
ATOM     32  C   UNL     1      33.834 -14.827 -25.488  0.00  0.00    +0.016 C 
ATOM     33  H   UNL     1      32.537 -12.571 -24.223  0.00  0.00    +0.148 HD
ATOM     34  H   UNL     1      34.215 -14.565 -21.081  0.00  0.00    +0.148 HD
BRANCH  30  35
ATOM     35  C   UNL     1      32.657 -12.232 -21.506  0.00  0.00    +0.037 C 
ATOM     36  C   UNL     1      31.453 -11.478 -22.120  0.00  0.00    +0.003 C 
ATOM     37  C   UNL     1      32.261 -12.775 -20.112  0.00  0.00    +0.003 C 
ENDBRANCH  30  35
ENDBRANCH  22  26
ENDBRANCH   1  21
TORSDOF 7
ENDMDL
MODEL 4
REMARK VINA RESULT:     -11.0      3.315     12.244
REMARK  Name = 11961293
REMARK  7 active torsions:
REMARK  status: ('A' for Active; 'I' for Inactive)
REMARK    1  A    between atoms: C_1  and  C_3
REMARK    2  A    between atoms: C_1  and  N_21
REMARK    3  A    between atoms: N_2  and  C_9
REMARK    4  A    between atoms: C_9  and  C_12
REMARK    5  A    between atoms: C_17  and  O_18
REMARK    6  A    between atoms: C_22  and  C_26
REMARK    7  A    between atoms: C_30  and  C_35
REMARK                            x       y       z     vdW  Elec       q    Type
REMARK                         _______ _______ _______ _____ _____    ______ ____
ROOT
ATOM      1  C   UNL     1      35.338 -22.113 -19.884  0.00  0.00    +0.089 C 
ENDROOT
BRANCH   1   3
ATOM      2  N   UNL     1      36.169 -18.626 -22.294  0.00  0.00    +0.387 N 
ATOM      3  C   UNL     1      35.562 -20.652 -20.264  0.00  0.00    +0.015 C 
ATOM      4  C   UNL     1      34.808 -18.754 -21.757  0.00  0.00    -0.077 C 
ATOM      5  C   UNL     1      37.173 -18.995 -21.288  0.00  0.00    -0.077 C 
ATOM      6  C   UNL     1      34.529 -20.187 -21.297  0.00  0.00    -0.021 C 
ATOM      7  C   UNL     1      36.975 -20.436 -20.813  0.00  0.00    -0.021 C 
ATOM      8  H   UNL     1      36.259 -19.271 -23.079  0.00  0.00    -0.080 HD
BRANCH   2   9
ATOM      9  C   UNL     1      36.403 -17.265 -22.777  0.00  0.00    -0.077 C 
BRANCH   9  12
ATOM     10  O   UNL     1      33.824 -14.158 -27.523  0.00  0.00    -0.226 OA
ATOM     11  N   UNL     1      33.863 -14.905 -25.323  0.00  0.00    -0.246 N 
ATOM     12  C   UNL     1      35.157 -16.708 -23.461  0.00  0.00    -0.017 C 
ATOM     13  C   UNL     1      35.221 -16.931 -24.979  0.00  0.00    +0.020 C 
ATOM     14  C   UNL     1      34.987 -15.212 -23.151  0.00  0.00    +0.020 C 
ATOM     15  C   UNL     1      34.013 -16.315 -25.680  0.00  0.00    +0.097 C 
ATOM     16  C   UNL     1      33.782 -14.627 -23.885  0.00  0.00    +0.097 C 
ATOM     17  C   UNL     1      33.758 -13.929 -26.317  0.00  0.00    +0.405 C 
BRANCH  17  18
ATOM     18  O   UNL     1      33.568 -12.672 -25.805  0.00  0.00    -0.430 OA
ATOM     19  C   UNL     1      34.690 -11.784 -25.879  0.00  0.00    +0.257 C 
ENDBRANCH  17  18
ENDBRANCH   9  12
ENDBRANCH   2   9
ENDBRANCH   1   3
BRANCH   1  21
ATOM     20  O   UNL     1      33.826 -24.395 -19.018  0.00  0.00    -0.270 OA
ATOM     21  N   UNL     1      34.546 -22.219 -18.669  0.00  0.00    -0.301 N 
ATOM     22  C   UNL     1      33.852 -23.368 -18.343  0.00  0.00    +0.247 C 
ATOM     23  H   UNL     1      34.503 -21.448 -18.058  0.00  0.00    +0.150 HD
BRANCH  22  26
ATOM     24  N   UNL     1      33.767 -23.883 -13.587  0.00  0.00    -0.318 N 
ATOM     25  N   UNL     1      34.920 -23.971 -15.485  0.00  0.00    -0.318 N 
ATOM     26  C   UNL     1      33.071 -23.309 -17.081  0.00  0.00    +0.068 C 
ATOM     27  C   UNL     1      33.650 -23.599 -15.845  0.00  0.00    +0.063 C 
ATOM     28  C   UNL     1      31.717 -22.956 -17.075  0.00  0.00    +0.006 C 
ATOM     29  C   UNL     1      32.950 -23.550 -14.643  0.00  0.00    +0.059 C 
ATOM     30  C   UNL     1      34.940 -24.129 -14.128  0.00  0.00    +0.144 C 
ATOM     31  C   UNL     1      30.989 -22.898 -15.884  0.00  0.00    +0.001 C 
ATOM     32  C   UNL     1      31.591 -23.194 -14.655  0.00  0.00    +0.016 C 
ATOM     33  H   UNL     1      33.527 -23.927 -12.634  0.00  0.00    +0.148 HD
ATOM     34  H   UNL     1      35.681 -24.102 -16.097  0.00  0.00    +0.148 HD
BRANCH  30  35
ATOM     35  C   UNL     1      36.111 -24.524 -13.324  0.00  0.00    +0.037 C 
ATOM     36  C   UNL     1      37.404 -23.770 -13.717  0.00  0.00    +0.003 C 
ATOM     37  C   UNL     1      35.882 -24.382 -11.799  0.00  0.00    +0.003 C 
ENDBRANCH  30  35
ENDBRANCH  22  26
ENDBRANCH   1  21
TORSDOF 7
ENDMDL
MODEL 5
REMARK VINA RESULT:     -10.6      2.644     12.254
REMARK  Name = 11961293
REMARK  7 active torsions:
REMARK  status: ('A' for Active; 'I' for Inactive)
REMARK    1  A    between atoms: C_1  and  C_3
REMARK    2  A    between atoms: C_1  and  N_21
REMARK    3  A    between atoms: N_2  and  C_9
REMARK    4  A    between atoms: C_9  and  C_12
REMARK    5  A    between atoms: C_17  and  O_18
REMARK    6  A    between atoms: C_22  and  C_26
REMARK    7  A    between atoms: C_30  and  C_35
REMARK                            x       y       z     vdW  Elec       q    Type
REMARK                         _______ _______ _______ _____ _____    ______ ____
ROOT
ATOM      1  C   UNL     1      37.065 -21.407 -19.518  0.00  0.00    +0.089 C 
ENDROOT
BRANCH   1   3
ATOM      2  N   UNL     1      35.629 -18.261 -22.105  0.00  0.00    +0.387 N 
ATOM      3  C   UNL     1      36.643 -20.677 -20.789  0.00  0.00    +0.015 C 
ATOM      4  C   UNL     1      37.038 -18.649 -22.249  0.00  0.00    -0.077 C 
ATOM      5  C   UNL     1      34.768 -19.440 -21.949  0.00  0.00    -0.077 C 
ATOM      6  C   UNL     1      37.519 -19.443 -21.032  0.00  0.00    -0.021 C 
ATOM      7  C   UNL     1      35.170 -20.260 -20.721  0.00  0.00    -0.021 C 
ATOM      8  H   UNL     1      35.543 -17.695 -21.261  0.00  0.00    -0.080 HD
BRANCH   2   9
ATOM      9  C   UNL     1      35.199 -17.460 -23.252  0.00  0.00    -0.077 C 
BRANCH   9  12
ATOM     10  O   UNL     1      32.459 -12.729 -20.261  0.00  0.00    -0.226 OA
ATOM     11  N   UNL     1      33.765 -13.613 -21.968  0.00  0.00    -0.246 N 
ATOM     12  C   UNL     1      35.161 -15.976 -22.895  0.00  0.00    -0.017 C 
ATOM     13  C   UNL     1      34.800 -15.778 -21.415  0.00  0.00    +0.020 C 
ATOM     14  C   UNL     1      34.161 -15.225 -23.789  0.00  0.00    +0.020 C 
ATOM     15  C   UNL     1      34.691 -14.296 -21.065  0.00  0.00    +0.097 C 
ATOM     16  C   UNL     1      34.064 -13.752 -23.397  0.00  0.00    +0.097 C 
ATOM     17  C   UNL     1      32.712 -12.849 -21.458  0.00  0.00    +0.405 C 
BRANCH  17  18
ATOM     18  O   UNL     1      31.980 -12.237 -22.441  0.00  0.00    -0.430 OA
ATOM     19  C   UNL     1      31.770 -10.827 -22.287  0.00  0.00    +0.257 C 
ENDBRANCH  17  18
ENDBRANCH   9  12
ENDBRANCH   2   9
ENDBRANCH   1   3
BRANCH   1  21
ATOM     20  O   UNL     1      37.051 -22.573 -16.895  0.00  0.00    -0.270 OA
ATOM     21  N   UNL     1      35.906 -21.910 -18.797  0.00  0.00    -0.301 N 
ATOM     22  C   UNL     1      36.008 -22.454 -17.532  0.00  0.00    +0.247 C 
ATOM     23  H   UNL     1      35.020 -21.859 -19.224  0.00  0.00    +0.150 HD
BRANCH  22  26
ATOM     24  N   UNL     1      33.794 -24.654 -13.906  0.00  0.00    -0.318 N 
ATOM     25  N   UNL     1      35.687 -23.917 -14.807  0.00  0.00    -0.318 N 
ATOM     26  C   UNL     1      34.736 -22.946 -16.942  0.00  0.00    +0.068 C 
ATOM     27  C   UNL     1      34.703 -23.592 -15.705  0.00  0.00    +0.063 C 
ATOM     28  C   UNL     1      33.512 -22.780 -17.598  0.00  0.00    +0.006 C 
ATOM     29  C   UNL     1      33.531 -24.062 -15.120  0.00  0.00    +0.059 C 
ATOM     30  C   UNL     1      35.095 -24.550 -13.750  0.00  0.00    +0.144 C 
ATOM     31  C   UNL     1      32.320 -23.241 -17.036  0.00  0.00    +0.001 C 
ATOM     32  C   UNL     1      32.311 -23.887 -15.793  0.00  0.00    +0.016 C 
ATOM     33  H   UNL     1      33.149 -25.067 -13.288  0.00  0.00    +0.148 HD
ATOM     34  H   UNL     1      36.649 -23.728 -14.907  0.00  0.00    +0.148 HD
BRANCH  30  35
ATOM     35  C   UNL     1      35.790 -25.068 -12.558  0.00  0.00    +0.037 C 
ATOM     36  C   UNL     1      37.276 -25.415 -12.819  0.00  0.00    +0.003 C 
ATOM     37  C   UNL     1      35.696 -24.122 -11.336  0.00  0.00    +0.003 C 
ENDBRANCH  30  35
ENDBRANCH  22  26
ENDBRANCH   1  21
TORSDOF 7
ENDMDL
MODEL 6
REMARK VINA RESULT:     -10.5      3.326      6.387
REMARK  Name = 11961293
REMARK  7 active torsions:
REMARK  status: ('A' for Active; 'I' for Inactive)
REMARK    1  A    between atoms: C_1  and  C_3
REMARK    2  A    between atoms: C_1  and  N_21
REMARK    3  A    between atoms: N_2  and  C_9
REMARK    4  A    between atoms: C_9  and  C_12
REMARK    5  A    between atoms: C_17  and  O_18
REMARK    6  A    between atoms: C_22  and  C_26
REMARK    7  A    between atoms: C_30  and  C_35
REMARK                            x       y       z     vdW  Elec       q    Type
REMARK                         _______ _______ _______ _____ _____    ______ ____
ROOT
ATOM      1  C   UNL     1      37.334 -19.501 -20.480  0.00  0.00    +0.089 C 
ENDROOT
BRANCH   1   3
ATOM      2  N   UNL     1      35.070 -22.285 -18.074  0.00  0.00    +0.387 N 
ATOM      3  C   UNL     1      36.817 -20.824 -19.922  0.00  0.00    +0.015 C 
ATOM      4  C   UNL     1      34.764 -22.244 -19.510  0.00  0.00    -0.077 C 
ATOM      5  C   UNL     1      36.520 -22.227 -17.840  0.00  0.00    -0.077 C 
ATOM      6  C   UNL     1      35.308 -20.967 -20.154  0.00  0.00    -0.021 C 
ATOM      7  C   UNL     1      37.123 -20.949 -18.426  0.00  0.00    -0.021 C 
ATOM      8  H   UNL     1      34.649 -21.464 -17.638  0.00  0.00    -0.080 HD
BRANCH   2   9
ATOM      9  C   UNL     1      34.500 -23.485 -17.462  0.00  0.00    -0.077 C 
BRANCH   9  12
ATOM     10  O   UNL     1      29.131 -25.216 -14.815  0.00  0.00    -0.226 OA
ATOM     11  N   UNL     1      30.571 -23.631 -15.719  0.00  0.00    -0.246 N 
ATOM     12  C   UNL     1      33.282 -23.136 -16.612  0.00  0.00    -0.017 C 
ATOM     13  C   UNL     1      32.945 -24.279 -15.643  0.00  0.00    +0.020 C 
ATOM     14  C   UNL     1      32.068 -22.820 -17.501  0.00  0.00    +0.020 C 
ATOM     15  C   UNL     1      31.687 -23.969 -14.837  0.00  0.00    +0.097 C 
ATOM     16  C   UNL     1      30.824 -22.535 -16.661  0.00  0.00    +0.097 C 
ATOM     17  C   UNL     1      29.348 -24.298 -15.604  0.00  0.00    +0.405 C 
BRANCH  17  18
ATOM     18  O   UNL     1      28.401 -23.817 -16.469  0.00  0.00    -0.430 OA
ATOM     19  C   UNL     1      27.586 -22.744 -15.980  0.00  0.00    +0.257 C 
ENDBRANCH  17  18
ENDBRANCH   9  12
ENDBRANCH   2   9
ENDBRANCH   1   3
BRANCH   1  21
ATOM     20  O   UNL     1      35.697 -17.202 -21.006  0.00  0.00    -0.270 OA
ATOM     21  N   UNL     1      36.676 -19.173 -21.735  0.00  0.00    -0.301 N 
ATOM     22  C   UNL     1      35.907 -18.036 -21.884  0.00  0.00    +0.247 C 
ATOM     23  H   UNL     1      36.783 -19.780 -22.503  0.00  0.00    +0.150 HD
BRANCH  22  26
ATOM     24  N   UNL     1      34.056 -15.055 -25.136  0.00  0.00    -0.318 N 
ATOM     25  N   UNL     1      34.988 -15.344 -23.140  0.00  0.00    -0.318 N 
ATOM     26  C   UNL     1      35.281 -17.856 -23.219  0.00  0.00    +0.068 C 
ATOM     27  C   UNL     1      34.906 -16.596 -23.690  0.00  0.00    +0.063 C 
ATOM     28  C   UNL     1      35.043 -18.942 -24.068  0.00  0.00    +0.006 C 
ATOM     29  C   UNL     1      34.321 -16.390 -24.936  0.00  0.00    +0.059 C 
ATOM     30  C   UNL     1      34.468 -14.457 -24.041  0.00  0.00    +0.144 C 
ATOM     31  C   UNL     1      34.458 -18.766 -25.324  0.00  0.00    +0.001 C 
ATOM     32  C   UNL     1      34.088 -17.493 -25.776  0.00  0.00    +0.016 C 
ATOM     33  H   UNL     1      33.646 -14.637 -25.928  0.00  0.00    +0.148 HD
ATOM     34  H   UNL     1      35.356 -15.122 -22.253  0.00  0.00    +0.148 HD
BRANCH  30  35
ATOM     35  C   UNL     1      34.363 -12.999 -23.851  0.00  0.00    +0.037 C 
ATOM     36  C   UNL     1      34.262 -12.216 -25.183  0.00  0.00    +0.003 C 
ATOM     37  C   UNL     1      33.191 -12.585 -22.928  0.00  0.00    +0.003 C 
ENDBRANCH  30  35
ENDBRANCH  22  26
ENDBRANCH   1  21
TORSDOF 7
ENDMDL
MODEL 7
REMARK VINA RESULT:     -10.5      3.245     11.727
REMARK  Name = 11961293
REMARK  7 active torsions:
REMARK  status: ('A' for Active; 'I' for Inactive)
REMARK    1  A    between atoms: C_1  and  C_3
REMARK    2  A    between atoms: C_1  and  N_21
REMARK    3  A    between atoms: N_2  and  C_9
REMARK    4  A    between atoms: C_9  and  C_12
REMARK    5  A    between atoms: C_17  and  O_18
REMARK    6  A    between atoms: C_22  and  C_26
REMARK    7  A    between atoms: C_30  and  C_35
REMARK                            x       y       z     vdW  Elec       q    Type
REMARK                         _______ _______ _______ _____ _____    ______ ____
ROOT
ATOM      1  C   UNL     1      35.291 -22.057 -20.063  0.00  0.00    +0.089 C 
ENDROOT
BRANCH   1   3
ATOM      2  N   UNL     1      36.016 -18.414 -22.269  0.00  0.00    +0.387 N 
ATOM      3  C   UNL     1      35.470 -20.570 -20.358  0.00  0.00    +0.015 C 
ATOM      4  C   UNL     1      34.660 -18.613 -21.741  0.00  0.00    -0.077 C 
ATOM      5  C   UNL     1      37.031 -18.810 -21.283  0.00  0.00    -0.077 C 
ATOM      6  C   UNL     1      34.424 -20.078 -21.364  0.00  0.00    -0.021 C 
ATOM      7  C   UNL     1      36.877 -20.281 -20.892  0.00  0.00    -0.021 C 
ATOM      8  H   UNL     1      36.125 -19.010 -23.089  0.00  0.00    -0.080 HD
BRANCH   2   9
ATOM      9  C   UNL     1      36.209 -17.021 -22.672  0.00  0.00    -0.077 C 
BRANCH   9  12
ATOM     10  O   UNL     1      34.001 -14.039 -27.678  0.00  0.00    -0.226 OA
ATOM     11  N   UNL     1      33.846 -14.778 -25.480  0.00  0.00    -0.246 N 
ATOM     12  C   UNL     1      35.017 -16.519 -23.483  0.00  0.00    -0.017 C 
ATOM     13  C   UNL     1      35.245 -16.743 -24.986  0.00  0.00    +0.020 C 
ATOM     14  C   UNL     1      34.754 -15.031 -23.203  0.00  0.00    +0.020 C 
ATOM     15  C   UNL     1      34.090 -16.181 -25.810  0.00  0.00    +0.097 C 
ATOM     16  C   UNL     1      33.607 -14.499 -24.060  0.00  0.00    +0.097 C 
ATOM     17  C   UNL     1      33.802 -13.810 -26.487  0.00  0.00    +0.405 C 
BRANCH  17  18
ATOM     18  O   UNL     1      33.509 -12.561 -26.006  0.00  0.00    -0.430 OA
ATOM     19  C   UNL     1      34.609 -11.816 -25.469  0.00  0.00    +0.257 C 
ENDBRANCH  17  18
ENDBRANCH   9  12
ENDBRANCH   2   9
ENDBRANCH   1   3
BRANCH   1  21
ATOM     20  O   UNL     1      33.758 -24.290 -19.112  0.00  0.00    -0.270 OA
ATOM     21  N   UNL     1      34.806 -22.263 -18.707  0.00  0.00    -0.301 N 
ATOM     22  C   UNL     1      34.073 -23.378 -18.352  0.00  0.00    +0.247 C 
ATOM     23  H   UNL     1      35.007 -21.586 -18.020  0.00  0.00    +0.150 HD
BRANCH  22  26
ATOM     24  N   UNL     1      30.481 -23.089 -15.205  0.00  0.00    -0.318 N 
ATOM     25  N   UNL     1      31.163 -23.011 -17.319  0.00  0.00    -0.318 N 
ATOM     26  C   UNL     1      33.630 -23.429 -16.935  0.00  0.00    +0.068 C 
ATOM     27  C   UNL     1      32.292 -23.251 -16.578  0.00  0.00    +0.063 C 
ATOM     28  C   UNL     1      34.534 -23.660 -15.893  0.00  0.00    +0.006 C 
ATOM     29  C   UNL     1      31.840 -23.296 -15.262  0.00  0.00    +0.059 C 
ATOM     30  C   UNL     1      30.108 -22.922 -16.455  0.00  0.00    +0.144 C 
ATOM     31  C   UNL     1      34.110 -23.710 -14.563  0.00  0.00    +0.001 C 
ATOM     32  C   UNL     1      32.762 -23.529 -14.228  0.00  0.00    +0.016 C 
ATOM     33  H   UNL     1      29.911 -23.070 -14.403  0.00  0.00    +0.148 HD
ATOM     34  H   UNL     1      31.121 -22.920 -18.299  0.00  0.00    +0.148 HD
BRANCH  30  35
ATOM     35  C   UNL     1      28.705 -22.672 -16.832  0.00  0.00    +0.037 C 
ATOM     36  C   UNL     1      28.088 -23.810 -17.679  0.00  0.00    +0.003 C 
ATOM     37  C   UNL     1      27.787 -22.385 -15.618  0.00  0.00    +0.003 C 
ENDBRANCH  30  35
ENDBRANCH  22  26
ENDBRANCH   1  21
TORSDOF 7
ENDMDL
MODEL 8
REMARK VINA RESULT:     -10.5      3.480     12.582
REMARK  Name = 11961293
REMARK  7 active torsions:
REMARK  status: ('A' for Active; 'I' for Inactive)
REMARK    1  A    between atoms: C_1  and  C_3
REMARK    2  A    between atoms: C_1  and  N_21
REMARK    3  A    between atoms: N_2  and  C_9
REMARK    4  A    between atoms: C_9  and  C_12
REMARK    5  A    between atoms: C_17  and  O_18
REMARK    6  A    between atoms: C_22  and  C_26
REMARK    7  A    between atoms: C_30  and  C_35
REMARK                            x       y       z     vdW  Elec       q    Type
REMARK                         _______ _______ _______ _____ _____    ______ ____
ROOT
ATOM      1  C   UNL     1      31.391 -12.299 -20.644  0.00  0.00    +0.089 C 
ENDROOT
BRANCH   1   3
ATOM      2  N   UNL     1      32.961  -8.311 -21.175  0.00  0.00    +0.387 N 
ATOM      3  C   UNL     1      31.428 -10.782 -20.798  0.00  0.00    +0.015 C 
ATOM      4  C   UNL     1      32.157  -8.861 -22.274  0.00  0.00    -0.077 C 
ATOM      5  C   UNL     1      32.360  -8.621 -19.872  0.00  0.00    -0.077 C 
ATOM      6  C   UNL     1      32.023 -10.381 -22.153  0.00  0.00    -0.021 C 
ATOM      7  C   UNL     1      32.234 -10.133 -19.668  0.00  0.00    -0.021 C 
ATOM      8  H   UNL     1      33.882  -8.748 -21.209  0.00  0.00    -0.080 HD
BRANCH   2   9
ATOM      9  C   UNL     1      33.124  -6.865 -21.333  0.00  0.00    -0.077 C 
BRANCH   9  12
ATOM     10  O   UNL     1      33.601  -3.093 -26.270  0.00  0.00    -0.226 OA
ATOM     11  N   UNL     1      32.395  -4.439 -24.809  0.00  0.00    -0.246 N 
ATOM     12  C   UNL     1      32.598  -6.403 -22.690  0.00  0.00    -0.017 C 
ATOM     13  C   UNL     1      33.756  -6.142 -23.665  0.00  0.00    +0.020 C 
ATOM     14  C   UNL     1      31.736  -5.140 -22.540  0.00  0.00    +0.020 C 
ATOM     15  C   UNL     1      33.245  -5.613 -25.002  0.00  0.00    +0.097 C 
ATOM     16  C   UNL     1      31.261  -4.628 -23.898  0.00  0.00    +0.097 C 
ATOM     17  C   UNL     1      32.653  -3.255 -25.504  0.00  0.00    +0.405 C 
BRANCH  17  18
ATOM     18  O   UNL     1      31.727  -2.278 -25.246  0.00  0.00    -0.430 OA
ATOM     19  C   UNL     1      30.958  -1.825 -26.366  0.00  0.00    +0.257 C 
ENDBRANCH  17  18
ENDBRANCH   9  12
ENDBRANCH   2   9
ENDBRANCH   1   3
BRANCH   1  21
ATOM     20  O   UNL     1      33.830 -13.814 -20.655  0.00  0.00    -0.270 OA
ATOM     21  N   UNL     1      32.001 -12.954 -21.791  0.00  0.00    -0.301 N 
ATOM     22  C   UNL     1      33.182 -13.662 -21.688  0.00  0.00    +0.247 C 
ATOM     23  H   UNL     1      31.558 -12.891 -22.668  0.00  0.00    +0.150 HD
BRANCH  22  26
ATOM     24  N   UNL     1      35.712 -17.102 -23.845  0.00  0.00    -0.318 N 
ATOM     25  N   UNL     1      34.950 -16.206 -21.960  0.00  0.00    -0.318 N 
ATOM     26  C   UNL     1      33.689 -14.249 -22.955  0.00  0.00    +0.068 C 
ATOM     27  C   UNL     1      34.478 -15.401 -22.965  0.00  0.00    +0.063 C 
ATOM     28  C   UNL     1      33.395 -13.677 -24.196  0.00  0.00    +0.006 C 
ATOM     29  C   UNL     1      34.967 -15.982 -24.132  0.00  0.00    +0.059 C 
ATOM     30  C   UNL     1      35.681 -17.207 -22.535  0.00  0.00    +0.144 C 
ATOM     31  C   UNL     1      33.872 -14.237 -25.384  0.00  0.00    +0.001 C 
ATOM     32  C   UNL     1      34.662 -15.392 -25.371  0.00  0.00    +0.016 C 
ATOM     33  H   UNL     1      36.170 -17.697 -24.482  0.00  0.00    +0.148 HD
ATOM     34  H   UNL     1      34.790 -16.083 -20.996  0.00  0.00    +0.148 HD
BRANCH  30  35
ATOM     35  C   UNL     1      36.367 -18.294 -21.815  0.00  0.00    +0.037 C 
ATOM     36  C   UNL     1      35.500 -19.567 -21.660  0.00  0.00    +0.003 C 
ATOM     37  C   UNL     1      37.729 -18.680 -22.444  0.00  0.00    +0.003 C 
ENDBRANCH  30  35
ENDBRANCH  22  26
ENDBRANCH   1  21
TORSDOF 7
ENDMDL
MODEL 9
REMARK VINA RESULT:     -10.4      3.198     12.054
REMARK  Name = 11961293
REMARK  7 active torsions:
REMARK  status: ('A' for Active; 'I' for Inactive)
REMARK    1  A    between atoms: C_1  and  C_3
REMARK    2  A    between atoms: C_1  and  N_21
REMARK    3  A    between atoms: N_2  and  C_9
REMARK    4  A    between atoms: C_9  and  C_12
REMARK    5  A    between atoms: C_17  and  O_18
REMARK    6  A    between atoms: C_22  and  C_26
REMARK    7  A    between atoms: C_30  and  C_35
REMARK                            x       y       z     vdW  Elec       q    Type
REMARK                         _______ _______ _______ _____ _____    ______ ____
ROOT
ATOM      1  C   UNL     1      35.486 -22.062 -20.451  0.00  0.00    +0.089 C 
ENDROOT
BRANCH   1   3
ATOM      2  N   UNL     1      35.989 -18.211 -22.342  0.00  0.00    +0.387 N 
ATOM      3  C   UNL     1      35.607 -20.550 -20.615  0.00  0.00    +0.015 C 
ATOM      4  C   UNL     1      34.669 -18.504 -21.770  0.00  0.00    -0.077 C 
ATOM      5  C   UNL     1      37.065 -18.660 -21.448  0.00  0.00    -0.077 C 
ATOM      6  C   UNL     1      34.496 -20.004 -21.520  0.00  0.00    -0.021 C 
ATOM      7  C   UNL     1      36.975 -20.165 -21.188  0.00  0.00    -0.021 C 
ATOM      8  H   UNL     1      36.074 -18.726 -23.219  0.00  0.00    -0.080 HD
BRANCH   2   9
ATOM      9  C   UNL     1      36.120 -16.782 -22.623  0.00  0.00    -0.077 C 
BRANCH   9  12
ATOM     10  O   UNL     1      34.034 -13.922 -27.752  0.00  0.00    -0.226 OA
ATOM     11  N   UNL     1      33.838 -14.585 -25.533  0.00  0.00    -0.246 N 
ATOM     12  C   UNL     1      34.949 -16.283 -23.466  0.00  0.00    -0.017 C 
ATOM     13  C   UNL     1      35.191 -16.560 -24.958  0.00  0.00    +0.020 C 
ATOM     14  C   UNL     1      34.712 -14.782 -23.237  0.00  0.00    +0.020 C 
ATOM     15  C   UNL     1      34.058 -16.003 -25.815  0.00  0.00    +0.097 C 
ATOM     16  C   UNL     1      33.587 -14.256 -24.126  0.00  0.00    +0.097 C 
ATOM     17  C   UNL     1      33.826 -13.650 -26.571  0.00  0.00    +0.405 C 
BRANCH  17  18
ATOM     18  O   UNL     1      33.551 -12.381 -26.135  0.00  0.00    -0.430 OA
ATOM     19  C   UNL     1      34.679 -11.593 -25.734  0.00  0.00    +0.257 C 
ENDBRANCH  17  18
ENDBRANCH   9  12
ENDBRANCH   2   9
ENDBRANCH   1   3
BRANCH   1  21
ATOM     20  O   UNL     1      33.098 -22.759 -19.019  0.00  0.00    -0.270 OA
ATOM     21  N   UNL     1      35.392 -22.427 -19.046  0.00  0.00    -0.301 N 
ATOM     22  C   UNL     1      34.187 -22.747 -18.451  0.00  0.00    +0.247 C 
ATOM     23  H   UNL     1      36.212 -22.447 -18.502  0.00  0.00    +0.150 HD
BRANCH  22  26
ATOM     24  N   UNL     1      31.867 -23.961 -14.447  0.00  0.00    -0.318 N 
ATOM     25  N   UNL     1      31.786 -23.467 -16.612  0.00  0.00    -0.318 N 
ATOM     26  C   UNL     1      34.255 -23.072 -17.003  0.00  0.00    +0.068 C 
ATOM     27  C   UNL     1      33.110 -23.384 -16.268  0.00  0.00    +0.063 C 
ATOM     28  C   UNL     1      35.470 -23.083 -16.311  0.00  0.00    +0.006 C 
ATOM     29  C   UNL     1      33.135 -23.698 -14.911  0.00  0.00    +0.059 C 
ATOM     30  C   UNL     1      31.084 -23.814 -15.492  0.00  0.00    +0.144 C 
ATOM     31  C   UNL     1      35.527 -23.393 -14.950  0.00  0.00    +0.001 C 
ATOM     32  C   UNL     1      34.365 -23.703 -14.232  0.00  0.00    +0.016 C 
ATOM     33  H   UNL     1      31.604 -24.207 -13.531  0.00  0.00    +0.148 HD
ATOM     34  H   UNL     1      31.408 -23.305 -17.508  0.00  0.00    +0.148 HD
BRANCH  30  35
ATOM     35  C   UNL     1      29.625 -24.012 -15.417  0.00  0.00    +0.037 C 
ATOM     36  C   UNL     1      28.898 -23.713 -16.751  0.00  0.00    +0.003 C 
ATOM     37  C   UNL     1      29.224 -25.425 -14.926  0.00  0.00    +0.003 C 
ENDBRANCH  30  35
ENDBRANCH  22  26
ENDBRANCH   1  21
TORSDOF 7
ENDMDL
