MODEL 1
REMARK VINA RESULT:     -11.4      0.000      0.000
REMARK  Name = 9865515
REMARK  6 active torsions:
REMARK  status: ('A' for Active; 'I' for Inactive)
REMARK    1  A    between atoms: C_1  and  C_20
REMARK    2  A    between atoms: C_2  and  C_9
REMARK    3  A    between atoms: N_8  and  C_11
REMARK    4  A    between atoms: C_12  and  N_17
REMARK    5  A    between atoms: C_20  and  N_21
REMARK    6  A    between atoms: C_25  and  C_30
REMARK                            x       y       z     vdW  Elec       q    Type
REMARK                         _______ _______ _______ _____ _____    ______ ____
ROOT
ATOM      1  C   UNL     1      34.882 -19.777 -21.011  0.00  0.00    -0.002 C 
ATOM      2  C   UNL     1      34.058 -21.935 -19.448  0.00  0.00    +0.054 C 
ATOM      3  C   UNL     1      35.830 -20.616 -20.425  0.00  0.00    -0.002 C 
ATOM      4  C   UNL     1      33.523 -20.018 -20.817  0.00  0.00    -0.002 C 
ATOM      5  C   UNL     1      35.418 -21.694 -19.642  0.00  0.00    +0.004 C 
ATOM      6  C   UNL     1      33.110 -21.097 -20.035  0.00  0.00    +0.004 C 
ENDROOT
BRANCH   2   9
ATOM      7  O   UNL     1      33.901 -24.213 -19.000  0.00  0.00    -0.270 OA
ATOM      8  N   UNL     1      32.946 -22.731 -17.451  0.00  0.00    -0.279 N 
ATOM      9  C   UNL     1      33.628 -23.059 -18.630  0.00  0.00    +0.250 C 
ATOM     10  H   UNL     1      32.803 -21.771 -17.292  0.00  0.00    +0.155 HD
BRANCH   8  11
ATOM     11  C   UNL     1      32.436 -23.603 -16.457  0.00  0.00    +0.064 C 
ATOM     12  C   UNL     1      33.258 -24.065 -15.443  0.00  0.00    +0.055 C 
ATOM     13  C   UNL     1      31.104 -23.976 -16.531  0.00  0.00    +0.016 C 
ATOM     14  C   UNL     1      32.734 -24.923 -14.475  0.00  0.00    +0.015 C 
ATOM     15  C   UNL     1      30.579 -24.833 -15.565  0.00  0.00    +0.001 C 
ATOM     16  C   UNL     1      31.394 -25.307 -14.536  0.00  0.00    +0.001 C 
BRANCH  12  17
ATOM     17  N   UNL     1      34.617 -23.687 -15.360  0.00  0.00    -0.356 N 
ATOM     18  H   UNL     1      35.120 -23.478 -16.180  0.00  0.00    +0.142 HD
ATOM     19  H   UNL     1      35.061 -23.633 -14.483  0.00  0.00    +0.142 HD
ENDBRANCH  12  17
ENDBRANCH   8  11
ENDBRANCH   2   9
BRANCH   1  20
ATOM     20  C   UNL     1      35.323 -18.624 -21.850  0.00  0.00    +0.124 C 
BRANCH  20  21
ATOM     21  N   UNL     1      35.374 -17.407 -21.068  0.00  0.00    -0.264 N 
ATOM     22  N   UNL     1      34.766 -16.074 -22.901  0.00  0.00    -0.338 NA
ATOM     23  N   UNL     1      35.184 -15.091 -20.741  0.00  0.00    -0.170 NA
ATOM     24  C   UNL     1      35.099 -16.153 -21.587  0.00  0.00    +0.145 C 
ATOM     25  C   UNL     1      34.505 -14.837 -23.373  0.00  0.00    +0.147 C 
ATOM     26  C   UNL     1      34.562 -13.695 -22.601  0.00  0.00    +0.055 C 
ATOM     27  C   UNL     1      34.910 -13.884 -21.279  0.00  0.00    +0.114 C 
ATOM     28  H   UNL     1      35.616 -17.475 -20.117  0.00  0.00    +0.160 HD
BRANCH  25  30
ATOM     29  N   UNL     1      33.824 -15.926 -26.871  0.00  0.00    -0.242 NA
ATOM     30  C   UNL     1      34.152 -14.775 -24.771  0.00  0.00    +0.050 C 
ATOM     31  C   UNL     1      33.812 -13.567 -25.372  0.00  0.00    +0.006 C 
ATOM     32  C   UNL     1      34.142 -15.915 -25.558  0.00  0.00    +0.101 C 
ATOM     33  C   UNL     1      33.478 -13.538 -26.721  0.00  0.00    +0.021 C 
ATOM     34  C   UNL     1      33.499 -14.734 -27.420  0.00  0.00    +0.099 C 
ENDBRANCH  25  30
ENDBRANCH  20  21
ENDBRANCH   1  20
TORSDOF 6
ENDMDL
MODEL 2
REMARK VINA RESULT:     -11.4      2.423     11.333
REMARK  Name = 9865515
REMARK  6 active torsions:
REMARK  status: ('A' for Active; 'I' for Inactive)
REMARK    1  A    between atoms: C_1  and  C_20
REMARK    2  A    between atoms: C_2  and  C_9
REMARK    3  A    between atoms: N_8  and  C_11
REMARK    4  A    between atoms: C_12  and  N_17
REMARK    5  A    between atoms: C_20  and  N_21
REMARK    6  A    between atoms: C_25  and  C_30
REMARK                            x       y       z     vdW  Elec       q    Type
REMARK                         _______ _______ _______ _____ _____    ______ ____
ROOT
ATOM      1  C   UNL     1      34.627 -22.317 -19.306  0.00  0.00    -0.002 C 
ATOM      2  C   UNL     1      35.440 -20.177 -20.899  0.00  0.00    +0.054 C 
ATOM      3  C   UNL     1      33.678 -21.552 -19.985  0.00  0.00    -0.002 C 
ATOM      4  C   UNL     1      35.982 -22.011 -19.424  0.00  0.00    -0.002 C 
ATOM      5  C   UNL     1      34.085 -20.482 -20.780  0.00  0.00    +0.004 C 
ATOM      6  C   UNL     1      36.389 -20.941 -20.220  0.00  0.00    +0.004 C 
ENDROOT
BRANCH   2   9
ATOM      7  O   UNL     1      37.075 -18.800 -21.817  0.00  0.00    -0.270 OA
ATOM      8  N   UNL     1      34.841 -18.365 -22.388  0.00  0.00    -0.279 N 
ATOM      9  C   UNL     1      35.864 -19.058 -21.727  0.00  0.00    +0.250 C 
ATOM     10  H   UNL     1      33.927 -18.686 -22.218  0.00  0.00    +0.155 HD
BRANCH   8  11
ATOM     11  C   UNL     1      34.953 -17.262 -23.271  0.00  0.00    +0.064 C 
ATOM     12  C   UNL     1      35.003 -15.970 -22.773  0.00  0.00    +0.055 C 
ATOM     13  C   UNL     1      35.007 -17.513 -24.633  0.00  0.00    +0.016 C 
ATOM     14  C   UNL     1      35.112 -14.900 -23.662  0.00  0.00    +0.015 C 
ATOM     15  C   UNL     1      35.116 -16.443 -25.521  0.00  0.00    +0.001 C 
ATOM     16  C   UNL     1      35.168 -15.136 -25.035  0.00  0.00    +0.001 C 
BRANCH  12  17
ATOM     17  N   UNL     1      34.949 -15.708 -21.387  0.00  0.00    -0.356 N 
ATOM     18  H   UNL     1      34.465 -16.322 -20.788  0.00  0.00    +0.142 HD
ATOM     19  H   UNL     1      35.396 -14.911 -21.018  0.00  0.00    +0.142 HD
ENDBRANCH  12  17
ENDBRANCH   8  11
ENDBRANCH   2   9
BRANCH   1  20
ATOM     20  C   UNL     1      34.193 -23.464 -18.456  0.00  0.00    +0.124 C 
BRANCH  20  21
ATOM     21  N   UNL     1      33.069 -23.093 -17.623  0.00  0.00    -0.264 N 
ATOM     22  N   UNL     1      34.098 -23.911 -15.679  0.00  0.00    -0.338 NA
ATOM     23  N   UNL     1      31.906 -22.915 -15.592  0.00  0.00    -0.170 NA
ATOM     24  C   UNL     1      33.024 -23.313 -16.257  0.00  0.00    +0.145 C 
ATOM     25  C   UNL     1      34.020 -24.111 -14.347  0.00  0.00    +0.147 C 
ATOM     26  C   UNL     1      32.933 -23.745 -13.580  0.00  0.00    +0.055 C 
ATOM     27  C   UNL     1      31.895 -23.145 -14.262  0.00  0.00    +0.114 C 
ATOM     28  H   UNL     1      32.296 -22.660 -18.051  0.00  0.00    +0.160 HD
BRANCH  25  30
ATOM     29  N   UNL     1      36.375 -25.389 -11.758  0.00  0.00    -0.242 NA
ATOM     30  C   UNL     1      35.172 -24.747 -13.753  0.00  0.00    +0.050 C 
ATOM     31  C   UNL     1      36.165 -25.315 -14.544  0.00  0.00    +0.006 C 
ATOM     32  C   UNL     1      35.323 -24.810 -12.377  0.00  0.00    +0.101 C 
ATOM     33  C   UNL     1      37.263 -25.920 -13.943  0.00  0.00    +0.021 C 
ATOM     34  C   UNL     1      37.321 -25.931 -12.558  0.00  0.00    +0.099 C 
ENDBRANCH  25  30
ENDBRANCH  20  21
ENDBRANCH   1  20
TORSDOF 6
ENDMDL
MODEL 3
REMARK VINA RESULT:     -11.3      4.814     11.693
REMARK  Name = 9865515
REMARK  6 active torsions:
REMARK  status: ('A' for Active; 'I' for Inactive)
REMARK    1  A    between atoms: C_1  and  C_20
REMARK    2  A    between atoms: C_2  and  C_9
REMARK    3  A    between atoms: N_8  and  C_11
REMARK    4  A    between atoms: C_12  and  N_17
REMARK    5  A    between atoms: C_20  and  N_21
REMARK    6  A    between atoms: C_25  and  C_30
REMARK                            x       y       z     vdW  Elec       q    Type
REMARK                         _______ _______ _______ _____ _____    ______ ____
ROOT
ATOM      1  C   UNL     1      34.094 -14.300 -21.605  0.00  0.00    -0.002 C 
ATOM      2  C   UNL     1      32.612 -11.967 -21.981  0.00  0.00    +0.054 C 
ATOM      3  C   UNL     1      33.189 -13.883 -20.629  0.00  0.00    -0.002 C 
ATOM      4  C   UNL     1      34.258 -13.550 -22.770  0.00  0.00    -0.002 C 
ATOM      5  C   UNL     1      32.449 -12.717 -20.817  0.00  0.00    +0.004 C 
ATOM      6  C   UNL     1      33.517 -12.383 -22.958  0.00  0.00    +0.004 C 
ENDROOT
BRANCH   2   9
ATOM      7  O   UNL     1      30.601 -10.812 -22.172  0.00  0.00    -0.270 OA
ATOM      8  N   UNL     1      32.587  -9.572 -22.330  0.00  0.00    -0.279 N 
ATOM      9  C   UNL     1      31.841 -10.748 -22.176  0.00  0.00    +0.250 C 
ATOM     10  H   UNL     1      33.565  -9.679 -22.313  0.00  0.00    +0.155 HD
BRANCH   8  11
ATOM     11  C   UNL     1      32.115  -8.247 -22.509  0.00  0.00    +0.064 C 
ATOM     12  C   UNL     1      32.115  -7.356 -21.449  0.00  0.00    +0.055 C 
ATOM     13  C   UNL     1      31.659  -7.876 -23.764  0.00  0.00    +0.016 C 
ATOM     14  C   UNL     1      31.645  -6.057 -21.649  0.00  0.00    +0.015 C 
ATOM     15  C   UNL     1      31.190  -6.578 -23.964  0.00  0.00    +0.001 C 
ATOM     16  C   UNL     1      31.182  -5.669 -22.906  0.00  0.00    +0.001 C 
BRANCH  12  17
ATOM     17  N   UNL     1      32.580  -7.728 -20.168  0.00  0.00    -0.356 N 
ATOM     18  H   UNL     1      32.484  -8.658 -19.861  0.00  0.00    +0.142 HD
ATOM     19  H   UNL     1      33.000  -7.056 -19.583  0.00  0.00    +0.142 HD
ENDBRANCH  12  17
ENDBRANCH   8  11
ENDBRANCH   2   9
BRANCH   1  20
ATOM     20  C   UNL     1      34.886 -15.549 -21.406  0.00  0.00    +0.124 C 
BRANCH  20  21
ATOM     21  N   UNL     1      35.256 -16.135 -22.676  0.00  0.00    -0.264 N 
ATOM     22  N   UNL     1      34.962 -18.322 -21.879  0.00  0.00    -0.338 NA
ATOM     23  N   UNL     1      35.657 -17.916 -24.149  0.00  0.00    -0.170 NA
ATOM     24  C   UNL     1      35.293 -17.499 -22.908  0.00  0.00    +0.145 C 
ATOM     25  C   UNL     1      35.009 -19.644 -22.139  0.00  0.00    +0.147 C 
ATOM     26  C   UNL     1      35.366 -20.173 -23.363  0.00  0.00    +0.055 C 
ATOM     27  C   UNL     1      35.683 -19.252 -24.341  0.00  0.00    +0.114 C 
ATOM     28  H   UNL     1      35.493 -15.530 -23.416  0.00  0.00    +0.160 HD
BRANCH  25  30
ATOM     29  N   UNL     1      32.936 -21.420 -19.601  0.00  0.00    -0.242 NA
ATOM     30  C   UNL     1      34.654 -20.501 -21.033  0.00  0.00    +0.050 C 
ATOM     31  C   UNL     1      35.624 -21.217 -20.339  0.00  0.00    +0.006 C 
ATOM     32  C   UNL     1      33.336 -20.637 -20.628  0.00  0.00    +0.101 C 
ATOM     33  C   UNL     1      35.252 -22.033 -19.277  0.00  0.00    +0.021 C 
ATOM     34  C   UNL     1      33.907 -22.100 -18.951  0.00  0.00    +0.099 C 
ENDBRANCH  25  30
ENDBRANCH  20  21
ENDBRANCH   1  20
TORSDOF 6
ENDMDL
MODEL 4
REMARK VINA RESULT:     -11.3      2.968     11.345
REMARK  Name = 9865515
REMARK  6 active torsions:
REMARK  status: ('A' for Active; 'I' for Inactive)
REMARK    1  A    between atoms: C_1  and  C_20
REMARK    2  A    between atoms: C_2  and  C_9
REMARK    3  A    between atoms: N_8  and  C_11
REMARK    4  A    between atoms: C_12  and  N_17
REMARK    5  A    between atoms: C_20  and  N_21
REMARK    6  A    between atoms: C_25  and  C_30
REMARK                            x       y       z     vdW  Elec       q    Type
REMARK                         _______ _______ _______ _____ _____    ______ ____
ROOT
ATOM      1  C   UNL     1      36.025 -21.005 -19.918  0.00  0.00    -0.002 C 
ATOM      2  C   UNL     1      35.722 -19.016 -21.849  0.00  0.00    +0.054 C 
ATOM      3  C   UNL     1      37.115 -20.214 -20.281  0.00  0.00    -0.002 C 
ATOM      4  C   UNL     1      34.784 -20.801 -20.520  0.00  0.00    -0.002 C 
ATOM      5  C   UNL     1      36.964 -19.220 -21.248  0.00  0.00    +0.004 C 
ATOM      6  C   UNL     1      34.632 -19.806 -21.485  0.00  0.00    +0.004 C 
ENDROOT
BRANCH   2   9
ATOM      7  O   UNL     1      35.865 -18.236 -24.036  0.00  0.00    -0.270 OA
ATOM      8  N   UNL     1      35.052 -16.757 -22.406  0.00  0.00    -0.279 N 
ATOM      9  C   UNL     1      35.565 -17.980 -22.859  0.00  0.00    +0.250 C 
ATOM     10  H   UNL     1      34.862 -16.704 -21.442  0.00  0.00    +0.155 HD
BRANCH   8  11
ATOM     11  C   UNL     1      34.771 -15.588 -23.155  0.00  0.00    +0.064 C 
ATOM     12  C   UNL     1      34.653 -14.362 -22.521  0.00  0.00    +0.055 C 
ATOM     13  C   UNL     1      34.617 -15.707 -24.527  0.00  0.00    +0.016 C 
ATOM     14  C   UNL     1      34.375 -13.225 -23.280  0.00  0.00    +0.015 C 
ATOM     15  C   UNL     1      34.340 -14.571 -25.285  0.00  0.00    +0.001 C 
ATOM     16  C   UNL     1      34.218 -13.329 -24.662  0.00  0.00    +0.001 C 
BRANCH  12  17
ATOM     17  N   UNL     1      34.809 -14.233 -21.123  0.00  0.00    -0.356 N 
ATOM     18  H   UNL     1      35.414 -14.839 -20.637  0.00  0.00    +0.142 HD
ATOM     19  H   UNL     1      34.313 -13.537 -20.634  0.00  0.00    +0.142 HD
ENDBRANCH  12  17
ENDBRANCH   8  11
ENDBRANCH   2   9
BRANCH   1  20
ATOM     20  C   UNL     1      36.186 -22.068 -18.883  0.00  0.00    +0.124 C 
BRANCH  20  21
ATOM     21  N   UNL     1      34.922 -22.358 -18.240  0.00  0.00    -0.264 N 
ATOM     22  N   UNL     1      35.958 -23.520 -16.483  0.00  0.00    -0.338 NA
ATOM     23  N   UNL     1      33.562 -23.274 -16.562  0.00  0.00    -0.170 NA
ATOM     24  C   UNL     1      34.811 -23.073 -17.059  0.00  0.00    +0.145 C 
ATOM     25  C   UNL     1      35.812 -24.211 -15.334  0.00  0.00    +0.147 C 
ATOM     26  C   UNL     1      34.591 -24.472 -14.745  0.00  0.00    +0.055 C 
ATOM     27  C   UNL     1      33.489 -23.974 -15.410  0.00  0.00    +0.114 C 
ATOM     28  H   UNL     1      34.098 -22.030 -18.665  0.00  0.00    +0.160 HD
BRANCH  25  30
ATOM     29  N   UNL     1      39.459 -24.704 -14.744  0.00  0.00    -0.242 NA
ATOM     30  C   UNL     1      37.042 -24.677 -14.738  0.00  0.00    +0.050 C 
ATOM     31  C   UNL     1      37.028 -25.517 -13.629  0.00  0.00    +0.006 C 
ATOM     32  C   UNL     1      38.273 -24.304 -15.253  0.00  0.00    +0.101 C 
ATOM     33  C   UNL     1      38.229 -25.950 -13.077  0.00  0.00    +0.021 C 
ATOM     34  C   UNL     1      39.406 -25.519 -13.667  0.00  0.00    +0.099 C 
ENDBRANCH  25  30
ENDBRANCH  20  21
ENDBRANCH   1  20
TORSDOF 6
ENDMDL
MODEL 5
REMARK VINA RESULT:     -11.2      2.127      3.407
REMARK  Name = 9865515
REMARK  6 active torsions:
REMARK  status: ('A' for Active; 'I' for Inactive)
REMARK    1  A    between atoms: C_1  and  C_20
REMARK    2  A    between atoms: C_2  and  C_9
REMARK    3  A    between atoms: N_8  and  C_11
REMARK    4  A    between atoms: C_12  and  N_17
REMARK    5  A    between atoms: C_20  and  N_21
REMARK    6  A    between atoms: C_25  and  C_30
REMARK                            x       y       z     vdW  Elec       q    Type
REMARK                         _______ _______ _______ _____ _____    ______ ____
ROOT
ATOM      1  C   UNL     1      36.056 -18.657 -21.745  0.00  0.00    -0.002 C 
ATOM      2  C   UNL     1      35.652 -20.894 -20.128  0.00  0.00    +0.054 C 
ATOM      3  C   UNL     1      37.123 -19.205 -21.032  0.00  0.00    -0.002 C 
ATOM      4  C   UNL     1      34.787 -19.228 -21.649  0.00  0.00    -0.002 C 
ATOM      5  C   UNL     1      36.921 -20.323 -20.223  0.00  0.00    +0.004 C 
ATOM      6  C   UNL     1      34.585 -20.346 -20.841  0.00  0.00    +0.004 C 
ENDROOT
BRANCH   2   9
ATOM      7  O   UNL     1      35.005 -23.103 -19.792  0.00  0.00    -0.270 OA
ATOM      8  N   UNL     1      35.780 -21.902 -17.931  0.00  0.00    -0.279 N 
ATOM      9  C   UNL     1      35.440 -22.058 -19.282  0.00  0.00    +0.250 C 
ATOM     10  H   UNL     1      36.112 -21.013 -17.674  0.00  0.00    +0.155 HD
BRANCH   8  11
ATOM     11  C   UNL     1      35.706 -22.859 -16.888  0.00  0.00    +0.064 C 
ATOM     12  C   UNL     1      36.857 -23.284 -16.246  0.00  0.00    +0.055 C 
ATOM     13  C   UNL     1      34.460 -23.352 -16.536  0.00  0.00    +0.016 C 
ATOM     14  C   UNL     1      36.760 -24.227 -15.223  0.00  0.00    +0.015 C 
ATOM     15  C   UNL     1      34.362 -24.294 -15.513  0.00  0.00    +0.001 C 
ATOM     16  C   UNL     1      35.512 -24.732 -14.856  0.00  0.00    +0.001 C 
BRANCH  12  17
ATOM     17  N   UNL     1      38.130 -22.785 -16.600  0.00  0.00    -0.356 N 
ATOM     18  H   UNL     1      38.403 -21.884 -16.314  0.00  0.00    +0.142 HD
ATOM     19  H   UNL     1      38.745 -23.339 -17.134  0.00  0.00    +0.142 HD
ENDBRANCH  12  17
ENDBRANCH   8  11
ENDBRANCH   2   9
BRANCH   1  20
ATOM     20  C   UNL     1      36.272 -17.462 -22.612  0.00  0.00    +0.124 C 
BRANCH  20  21
ATOM     21  N   UNL     1      35.774 -17.697 -23.950  0.00  0.00    -0.264 N 
ATOM     22  N   UNL     1      34.713 -15.606 -24.041  0.00  0.00    -0.338 NA
ATOM     23  N   UNL     1      34.603 -17.131 -25.903  0.00  0.00    -0.170 NA
ATOM     24  C   UNL     1      35.007 -16.783 -24.652  0.00  0.00    +0.145 C 
ATOM     25  C   UNL     1      33.965 -14.739 -24.754  0.00  0.00    +0.147 C 
ATOM     26  C   UNL     1      33.504 -14.993 -26.030  0.00  0.00    +0.055 C 
ATOM     27  C   UNL     1      33.857 -16.217 -26.560  0.00  0.00    +0.114 C 
ATOM     28  H   UNL     1      35.992 -18.553 -24.384  0.00  0.00    +0.160 HD
BRANCH  25  30
ATOM     29  N   UNL     1      32.599 -12.341 -22.249  0.00  0.00    -0.242 NA
ATOM     30  C   UNL     1      33.665 -13.494 -24.087  0.00  0.00    +0.050 C 
ATOM     31  C   UNL     1      34.117 -12.281 -24.595  0.00  0.00    +0.006 C 
ATOM     32  C   UNL     1      32.916 -13.470 -22.921  0.00  0.00    +0.101 C 
ATOM     33  C   UNL     1      33.811 -11.098 -23.931  0.00  0.00    +0.021 C 
ATOM     34  C   UNL     1      33.056 -11.182 -22.772  0.00  0.00    +0.099 C 
ENDBRANCH  25  30
ENDBRANCH  20  21
ENDBRANCH   1  20
TORSDOF 6
ENDMDL
MODEL 6
REMARK VINA RESULT:     -11.2      1.373      2.654
REMARK  Name = 9865515
REMARK  6 active torsions:
REMARK  status: ('A' for Active; 'I' for Inactive)
REMARK    1  A    between atoms: C_1  and  C_20
REMARK    2  A    between atoms: C_2  and  C_9
REMARK    3  A    between atoms: N_8  and  C_11
REMARK    4  A    between atoms: C_12  and  N_17
REMARK    5  A    between atoms: C_20  and  N_21
REMARK    6  A    between atoms: C_25  and  C_30
REMARK                            x       y       z     vdW  Elec       q    Type
REMARK                         _______ _______ _______ _____ _____    ______ ____
ROOT
ATOM      1  C   UNL     1      35.698 -19.803 -21.040  0.00  0.00    -0.002 C 
ATOM      2  C   UNL     1      34.496 -21.835 -19.555  0.00  0.00    +0.054 C 
ATOM      3  C   UNL     1      36.484 -20.673 -20.284  0.00  0.00    -0.002 C 
ATOM      4  C   UNL     1      34.311 -19.949 -21.054  0.00  0.00    -0.002 C 
ATOM      5  C   UNL     1      35.883 -21.688 -19.541  0.00  0.00    +0.004 C 
ATOM      6  C   UNL     1      33.710 -20.965 -20.311  0.00  0.00    +0.004 C 
ENDROOT
BRANCH   2   9
ATOM      7  O   UNL     1      33.891 -24.055 -19.213  0.00  0.00    -0.270 OA
ATOM      8  N   UNL     1      33.301 -22.500 -17.558  0.00  0.00    -0.279 N 
ATOM      9  C   UNL     1      33.869 -22.893 -18.777  0.00  0.00    +0.250 C 
ATOM     10  H   UNL     1      33.361 -21.541 -17.347  0.00  0.00    +0.155 HD
BRANCH   8  11
ATOM     11  C   UNL     1      32.651 -23.305 -16.589  0.00  0.00    +0.064 C 
ATOM     12  C   UNL     1      33.378 -23.889 -15.564  0.00  0.00    +0.055 C 
ATOM     13  C   UNL     1      31.283 -23.489 -16.698  0.00  0.00    +0.016 C 
ATOM     14  C   UNL     1      32.716 -24.678 -14.623  0.00  0.00    +0.015 C 
ATOM     15  C   UNL     1      30.622 -24.277 -15.757  0.00  0.00    +0.001 C 
ATOM     16  C   UNL     1      31.339 -24.873 -14.719  0.00  0.00    +0.001 C 
BRANCH  12  17
ATOM     17  N   UNL     1      34.773 -23.705 -15.447  0.00  0.00    -0.356 N 
ATOM     18  H   UNL     1      35.329 -24.405 -15.035  0.00  0.00    +0.142 HD
ATOM     19  H   UNL     1      35.190 -22.876 -15.777  0.00  0.00    +0.142 HD
ENDBRANCH  12  17
ENDBRANCH   8  11
ENDBRANCH   2   9
BRANCH   1  20
ATOM     20  C   UNL     1      36.340 -18.717 -21.837  0.00  0.00    +0.124 C 
BRANCH  20  21
ATOM     21  N   UNL     1      36.022 -18.850 -23.243  0.00  0.00    -0.264 N 
ATOM     22  N   UNL     1      35.030 -16.725 -23.332  0.00  0.00    -0.338 NA
ATOM     23  N   UNL     1      35.140 -18.123 -25.291  0.00  0.00    -0.170 NA
ATOM     24  C   UNL     1      35.377 -17.869 -23.977  0.00  0.00    +0.145 C 
ATOM     25  C   UNL     1      34.404 -15.792 -24.078  0.00  0.00    +0.147 C 
ATOM     26  C   UNL     1      34.114 -15.949 -25.418  0.00  0.00    +0.055 C 
ATOM     27  C   UNL     1      34.509 -17.146 -25.978  0.00  0.00    +0.114 C 
ATOM     28  H   UNL     1      36.279 -19.683 -23.701  0.00  0.00    +0.160 HD
BRANCH  25  30
ATOM     29  N   UNL     1      33.526 -12.224 -23.453  0.00  0.00    -0.242 NA
ATOM     30  C   UNL     1      34.043 -14.584 -23.374  0.00  0.00    +0.050 C 
ATOM     31  C   UNL     1      33.866 -14.584 -21.994  0.00  0.00    +0.006 C 
ATOM     32  C   UNL     1      33.862 -13.389 -24.051  0.00  0.00    +0.101 C 
ATOM     33  C   UNL     1      33.519 -13.405 -21.343  0.00  0.00    +0.021 C 
ATOM     34  C   UNL     1      33.362 -12.262 -22.112  0.00  0.00    +0.099 C 
ENDBRANCH  25  30
ENDBRANCH  20  21
ENDBRANCH   1  20
TORSDOF 6
ENDMDL
MODEL 7
REMARK VINA RESULT:     -11.2      2.721     11.165
REMARK  Name = 9865515
REMARK  6 active torsions:
REMARK  status: ('A' for Active; 'I' for Inactive)
REMARK    1  A    between atoms: C_1  and  C_20
REMARK    2  A    between atoms: C_2  and  C_9
REMARK    3  A    between atoms: N_8  and  C_11
REMARK    4  A    between atoms: C_12  and  N_17
REMARK    5  A    between atoms: C_20  and  N_21
REMARK    6  A    between atoms: C_25  and  C_30
REMARK                            x       y       z     vdW  Elec       q    Type
REMARK                         _______ _______ _______ _____ _____    ______ ____
ROOT
ATOM      1  C   UNL     1      34.835 -22.087 -19.810  0.00  0.00    -0.002 C 
ATOM      2  C   UNL     1      35.438 -19.681 -21.084  0.00  0.00    +0.054 C 
ATOM      3  C   UNL     1      33.809 -21.294 -20.323  0.00  0.00    -0.002 C 
ATOM      4  C   UNL     1      36.162 -21.678 -19.934  0.00  0.00    -0.002 C 
ATOM      5  C   UNL     1      34.111 -20.090 -20.960  0.00  0.00    +0.004 C 
ATOM      6  C   UNL     1      36.464 -20.475 -20.571  0.00  0.00    +0.004 C 
ENDROOT
BRANCH   2   9
ATOM      7  O   UNL     1      36.830 -18.316 -22.354  0.00  0.00    -0.270 OA
ATOM      8  N   UNL     1      34.773 -17.425 -21.659  0.00  0.00    -0.279 N 
ATOM      9  C   UNL     1      35.753 -18.424 -21.746  0.00  0.00    +0.250 C 
ATOM     10  H   UNL     1      33.970 -17.658 -21.141  0.00  0.00    +0.155 HD
BRANCH   8  11
ATOM     11  C   UNL     1      34.790 -16.123 -22.218  0.00  0.00    +0.064 C 
ATOM     12  C   UNL     1      34.906 -15.953 -23.588  0.00  0.00    +0.055 C 
ATOM     13  C   UNL     1      34.690 -15.039 -21.363  0.00  0.00    +0.016 C 
ATOM     14  C   UNL     1      34.921 -14.662 -24.116  0.00  0.00    +0.015 C 
ATOM     15  C   UNL     1      34.704 -13.748 -21.890  0.00  0.00    +0.001 C 
ATOM     16  C   UNL     1      34.820 -13.559 -23.268  0.00  0.00    +0.001 C 
BRANCH  12  17
ATOM     17  N   UNL     1      35.008 -17.055 -24.466  0.00  0.00    -0.356 N 
ATOM     18  H   UNL     1      34.465 -17.082 -25.287  0.00  0.00    +0.142 HD
ATOM     19  H   UNL     1      35.622 -17.795 -24.258  0.00  0.00    +0.142 HD
ENDBRANCH  12  17
ENDBRANCH   8  11
ENDBRANCH   2   9
BRANCH   1  20
ATOM     20  C   UNL     1      34.513 -23.376 -19.130  0.00  0.00    +0.124 C 
BRANCH  20  21
ATOM     21  N   UNL     1      33.557 -23.173 -18.063  0.00  0.00    -0.264 N 
ATOM     22  N   UNL     1      34.978 -24.129 -16.458  0.00  0.00    -0.338 NA
ATOM     23  N   UNL     1      32.803 -23.293 -15.844  0.00  0.00    -0.170 NA
ATOM     24  C   UNL     1      33.787 -23.543 -16.749  0.00  0.00    +0.145 C 
ATOM     25  C   UNL     1      35.168 -24.477 -15.169  0.00  0.00    +0.147 C 
ATOM     26  C   UNL     1      34.236 -24.269 -14.173  0.00  0.00    +0.055 C 
ATOM     27  C   UNL     1      33.060 -23.667 -14.573  0.00  0.00    +0.114 C 
ATOM     28  H   UNL     1      32.697 -22.747 -18.283  0.00  0.00    +0.160 HD
BRANCH  25  30
ATOM     29  N   UNL     1      37.942 -26.966 -15.189  0.00  0.00    -0.242 NA
ATOM     30  C   UNL     1      36.440 -25.097 -14.882  0.00  0.00    +0.050 C 
ATOM     31  C   UNL     1      37.371 -24.475 -14.057  0.00  0.00    +0.006 C 
ATOM     32  C   UNL     1      36.771 -26.331 -15.419  0.00  0.00    +0.101 C 
ATOM     33  C   UNL     1      38.587 -25.098 -13.797  0.00  0.00    +0.021 C 
ATOM     34  C   UNL     1      38.822 -26.332 -14.382  0.00  0.00    +0.099 C 
ENDBRANCH  25  30
ENDBRANCH  20  21
ENDBRANCH   1  20
TORSDOF 6
ENDMDL
MODEL 8
REMARK VINA RESULT:     -10.8      1.525      3.104
REMARK  Name = 9865515
REMARK  6 active torsions:
REMARK  status: ('A' for Active; 'I' for Inactive)
REMARK    1  A    between atoms: C_1  and  C_20
REMARK    2  A    between atoms: C_2  and  C_9
REMARK    3  A    between atoms: N_8  and  C_11
REMARK    4  A    between atoms: C_12  and  N_17
REMARK    5  A    between atoms: C_20  and  N_21
REMARK    6  A    between atoms: C_25  and  C_30
REMARK                            x       y       z     vdW  Elec       q    Type
REMARK                         _______ _______ _______ _____ _____    ______ ____
ROOT
ATOM      1  C   UNL     1      35.270 -20.451 -20.566  0.00  0.00    -0.002 C 
ATOM      2  C   UNL     1      34.137 -22.315 -18.827  0.00  0.00    +0.054 C 
ATOM      3  C   UNL     1      33.884 -20.590 -20.499  0.00  0.00    -0.002 C 
ATOM      4  C   UNL     1      36.090 -21.244 -19.764  0.00  0.00    -0.002 C 
ATOM      5  C   UNL     1      33.317 -21.522 -19.631  0.00  0.00    +0.004 C 
ATOM      6  C   UNL     1      35.524 -22.176 -18.894  0.00  0.00    +0.004 C 
ENDROOT
BRANCH   2   9
ATOM      7  O   UNL     1      34.045 -24.423 -17.849  0.00  0.00    -0.270 OA
ATOM      8  N   UNL     1      32.449 -22.841 -17.174  0.00  0.00    -0.279 N 
ATOM      9  C   UNL     1      33.546 -23.289 -17.923  0.00  0.00    +0.250 C 
ATOM     10  H   UNL     1      32.166 -21.914 -17.343  0.00  0.00    +0.155 HD
BRANCH   8  11
ATOM     11  C   UNL     1      31.695 -23.550 -16.206  0.00  0.00    +0.064 C 
ATOM     12  C   UNL     1      30.310 -23.530 -16.247  0.00  0.00    +0.055 C 
ATOM     13  C   UNL     1      32.377 -24.256 -15.229  0.00  0.00    +0.016 C 
ATOM     14  C   UNL     1      29.589 -24.235 -15.284  0.00  0.00    +0.015 C 
ATOM     15  C   UNL     1      31.656 -24.961 -14.266  0.00  0.00    +0.001 C 
ATOM     16  C   UNL     1      30.261 -24.950 -14.293  0.00  0.00    +0.001 C 
BRANCH  12  17
ATOM     17  N   UNL     1      29.609 -22.814 -17.242  0.00  0.00    -0.356 N 
ATOM     18  H   UNL     1      29.887 -22.878 -18.184  0.00  0.00    +0.142 HD
ATOM     19  H   UNL     1      28.840 -22.250 -16.993  0.00  0.00    +0.142 HD
ENDBRANCH  12  17
ENDBRANCH   8  11
ENDBRANCH   2   9
BRANCH   1  20
ATOM     20  C   UNL     1      35.877 -19.453 -21.495  0.00  0.00    +0.124 C 
BRANCH  20  21
ATOM     21  N   UNL     1      35.517 -19.738 -22.867  0.00  0.00    -0.264 N 
ATOM     22  N   UNL     1      35.026 -17.489 -23.322  0.00  0.00    -0.338 NA
ATOM     23  N   UNL     1      34.792 -19.176 -25.026  0.00  0.00    -0.170 NA
ATOM     24  C   UNL     1      35.099 -18.771 -23.765  0.00  0.00    +0.145 C 
ATOM     25  C   UNL     1      34.616 -16.574 -24.223  0.00  0.00    +0.147 C 
ATOM     26  C   UNL     1      34.279 -16.878 -25.527  0.00  0.00    +0.055 C 
ATOM     27  C   UNL     1      34.388 -18.208 -25.876  0.00  0.00    +0.114 C 
ATOM     28  H   UNL     1      35.573 -20.670 -23.178  0.00  0.00    +0.160 HD
BRANCH  25  30
ATOM     29  N   UNL     1      34.596 -13.696 -21.856  0.00  0.00    -0.242 NA
ATOM     30  C   UNL     1      34.545 -15.218 -23.733  0.00  0.00    +0.050 C 
ATOM     31  C   UNL     1      34.366 -14.148 -24.604  0.00  0.00    +0.006 C 
ATOM     32  C   UNL     1      34.655 -14.940 -22.380  0.00  0.00    +0.101 C 
ATOM     33  C   UNL     1      34.301 -12.853 -24.102  0.00  0.00    +0.021 C 
ATOM     34  C   UNL     1      34.421 -12.682 -22.732  0.00  0.00    +0.099 C 
ENDBRANCH  25  30
ENDBRANCH  20  21
ENDBRANCH   1  20
TORSDOF 6
ENDMDL
MODEL 9
REMARK VINA RESULT:     -10.6      5.167     11.916
REMARK  Name = 9865515
REMARK  6 active torsions:
REMARK  status: ('A' for Active; 'I' for Inactive)
REMARK    1  A    between atoms: C_1  and  C_20
REMARK    2  A    between atoms: C_2  and  C_9
REMARK    3  A    between atoms: N_8  and  C_11
REMARK    4  A    between atoms: C_12  and  N_17
REMARK    5  A    between atoms: C_20  and  N_21
REMARK    6  A    between atoms: C_25  and  C_30
REMARK                            x       y       z     vdW  Elec       q    Type
REMARK                         _______ _______ _______ _____ _____    ______ ____
ROOT
ATOM      1  C   UNL     1      34.437 -13.545 -23.353  0.00  0.00    -0.002 C 
ATOM      2  C   UNL     1      32.801 -11.326 -22.928  0.00  0.00    +0.054 C 
ATOM      3  C   UNL     1      34.542 -12.431 -24.186  0.00  0.00    -0.002 C 
ATOM      4  C   UNL     1      33.513 -13.550 -22.308  0.00  0.00    -0.002 C 
ATOM      5  C   UNL     1      33.724 -11.322 -23.974  0.00  0.00    +0.004 C 
ATOM      6  C   UNL     1      32.696 -12.440 -22.095  0.00  0.00    +0.004 C 
ENDROOT
BRANCH   2   9
ATOM      7  O   UNL     1      30.752 -10.349 -22.421  0.00  0.00    -0.270 OA
ATOM      8  N   UNL     1      32.568  -8.919 -22.820  0.00  0.00    -0.279 N 
ATOM      9  C   UNL     1      31.946 -10.170 -22.709  0.00  0.00    +0.250 C 
ATOM     10  H   UNL     1      33.524  -8.936 -23.055  0.00  0.00    +0.155 HD
BRANCH   8  11
ATOM     11  C   UNL     1      32.001  -7.633 -22.637  0.00  0.00    +0.064 C 
ATOM     12  C   UNL     1      32.102  -6.992 -21.414  0.00  0.00    +0.055 C 
ATOM     13  C   UNL     1      31.348  -7.045 -23.708  0.00  0.00    +0.016 C 
ATOM     14  C   UNL     1      31.535  -5.726 -21.258  0.00  0.00    +0.015 C 
ATOM     15  C   UNL     1      30.781  -5.781 -23.553  0.00  0.00    +0.001 C 
ATOM     16  C   UNL     1      30.874  -5.121 -22.327  0.00  0.00    +0.001 C 
BRANCH  12  17
ATOM     17  N   UNL     1      32.767  -7.585 -20.319  0.00  0.00    -0.356 N 
ATOM     18  H   UNL     1      32.348  -7.583 -19.428  0.00  0.00    +0.142 HD
ATOM     19  H   UNL     1      33.651  -8.002 -20.446  0.00  0.00    +0.142 HD
ENDBRANCH  12  17
ENDBRANCH   8  11
ENDBRANCH   2   9
BRANCH   1  20
ATOM     20  C   UNL     1      35.313 -14.732 -23.578  0.00  0.00    +0.124 C 
BRANCH  20  21
ATOM     21  N   UNL     1      34.776 -15.580 -24.620  0.00  0.00    -0.264 N 
ATOM     22  N   UNL     1      35.212 -17.539 -23.403  0.00  0.00    -0.338 NA
ATOM     23  N   UNL     1      34.195 -17.639 -25.585  0.00  0.00    -0.170 NA
ATOM     24  C   UNL     1      34.727 -16.961 -24.533  0.00  0.00    +0.145 C 
ATOM     25  C   UNL     1      35.148 -18.885 -23.352  0.00  0.00    +0.147 C 
ATOM     26  C   UNL     1      34.629 -19.667 -24.364  0.00  0.00    +0.055 C 
ATOM     27  C   UNL     1      34.162 -18.983 -25.468  0.00  0.00    +0.114 C 
ATOM     28  H   UNL     1      34.427 -15.152 -25.435  0.00  0.00    +0.160 HD
BRANCH  25  30
ATOM     29  N   UNL     1      37.419 -19.580 -20.481  0.00  0.00    -0.242 NA
ATOM     30  C   UNL     1      35.668 -19.479 -22.143  0.00  0.00    +0.050 C 
ATOM     31  C   UNL     1      34.971 -20.485 -21.481  0.00  0.00    +0.006 C 
ATOM     32  C   UNL     1      36.876 -19.066 -21.606  0.00  0.00    +0.101 C 
ATOM     33  C   UNL     1      35.498 -21.038 -20.319  0.00  0.00    +0.021 C 
ATOM     34  C   UNL     1      36.714 -20.556 -19.864  0.00  0.00    +0.099 C 
ENDBRANCH  25  30
ENDBRANCH  20  21
ENDBRANCH   1  20
TORSDOF 6
ENDMDL
