MODEL 1
REMARK VINA RESULT:     -10.9      0.000      0.000
REMARK  Name = 446277
REMARK  7 active torsions:
REMARK  status: ('A' for Active; 'I' for Inactive)
REMARK    1  A    between atoms: N_2  and  C_17
REMARK    2  A    between atoms: C_3  and  C_5
REMARK    3  A    between atoms: C_8  and  S_11
REMARK    4  A    between atoms: S_11  and  N_14
REMARK    5  A    between atoms: C_17  and  C_18
REMARK    6  A    between atoms: C_18  and  C_20
REMARK    7  A    between atoms: C_20  and  N_21
REMARK                            x       y       z     vdW  Elec       q    Type
REMARK                         _______ _______ _______ _____ _____    ______ ____
ROOT
ATOM      1  O   UNL     1      36.936 -18.498 -22.236  0.00  0.00    -0.270 OA
ATOM      2  N   UNL     1      34.990 -18.712 -23.482  0.00  0.00    -0.301 N 
ATOM      3  C   UNL     1      35.824 -18.994 -22.407  0.00  0.00    +0.246 C 
ATOM      4  H   UNL     1      34.116 -19.160 -23.532  0.00  0.00    +0.150 HD
ENDROOT
BRANCH   3   5
ATOM      5  C   UNL     1      35.315 -19.987 -21.426  0.00  0.00    +0.053 C 
ATOM      6  C   UNL     1      36.220 -20.749 -20.718  0.00  0.00    +0.006 C 
ATOM      7  C   UNL     1      33.952 -20.115 -21.256  0.00  0.00    +0.006 C 
ATOM      8  C   UNL     1      34.368 -21.830 -19.606  0.00  0.00    +0.122 C 
ATOM      9  C   UNL     1      35.741 -21.682 -19.797  0.00  0.00    +0.020 C 
ATOM     10  C   UNL     1      33.473 -21.047 -20.335  0.00  0.00    +0.020 C 
BRANCH   8  11
ATOM     11  S   UNL     1      33.768 -22.996 -18.452  0.00  0.00    +0.057 S 
ATOM     12  O   UNL     1      32.495 -22.515 -17.932  0.00  0.00    -0.153 OA
ATOM     13  O   UNL     1      33.852 -24.322 -19.049  0.00  0.00    -0.153 OA
BRANCH  11  14
ATOM     14  N   UNL     1      34.948 -22.874 -17.223  0.00  0.00    -0.203 NA
ATOM     15  H   UNL     1      34.497 -22.624 -16.342  0.00  0.00    +0.144 HD
ATOM     16  H   UNL     1      35.627 -22.156 -17.473  0.00  0.00    +0.144 HD
ENDBRANCH  11  14
ENDBRANCH   8  11
ENDBRANCH   3   5
BRANCH   2  17
ATOM     17  C   UNL     1      35.354 -17.792 -24.525  0.00  0.00    +0.091 C 
BRANCH  17  18
ATOM     18  C   UNL     1      34.522 -16.500 -24.522  0.00  0.00    +0.040 C 
ATOM     19  C   UNL     1      34.163 -16.073 -25.949  0.00  0.00    +0.004 C 
BRANCH  18  20
ATOM     20  C   UNL     1      35.246 -15.379 -23.750  0.00  0.00    +0.097 C 
BRANCH  20  21
ATOM     21  N   UNL     1      34.636 -15.063 -22.461  0.00  0.00    -0.286 N 
ATOM     22  C   UNL     1      33.708 -14.080 -22.249  0.00  0.00    +0.052 C 
ATOM     23  C   UNL     1      33.391 -14.115 -20.889  0.00  0.00    +0.015 C 
ATOM     24  C   UNL     1      34.925 -15.721 -21.304  0.00  0.00    +0.065 C 
ATOM     25  C   UNL     1      34.166 -15.155 -20.305  0.00  0.00    +0.017 C 
ATOM     26  C   UNL     1      33.125 -13.168 -23.137  0.00  0.00    +0.015 C 
ATOM     27  C   UNL     1      32.446 -13.196 -20.389  0.00  0.00    +0.001 C 
ATOM     28  C   UNL     1      32.191 -12.266 -22.618  0.00  0.00    +0.001 C 
ATOM     29  C   UNL     1      31.856 -12.278 -21.265  0.00  0.00    +0.000 C 
ENDBRANCH  20  21
ENDBRANCH  18  20
ENDBRANCH  17  18
ENDBRANCH   2  17
TORSDOF 7
ENDMDL
MODEL 2
REMARK VINA RESULT:     -10.8      0.591      1.831
REMARK  Name = 446277
REMARK  7 active torsions:
REMARK  status: ('A' for Active; 'I' for Inactive)
REMARK    1  A    between atoms: N_2  and  C_17
REMARK    2  A    between atoms: C_3  and  C_5
REMARK    3  A    between atoms: C_8  and  S_11
REMARK    4  A    between atoms: S_11  and  N_14
REMARK    5  A    between atoms: C_17  and  C_18
REMARK    6  A    between atoms: C_18  and  C_20
REMARK    7  A    between atoms: C_20  and  N_21
REMARK                            x       y       z     vdW  Elec       q    Type
REMARK                         _______ _______ _______ _____ _____    ______ ____
ROOT
ATOM      1  O   UNL     1      36.768 -18.242 -21.831  0.00  0.00    -0.270 OA
ATOM      2  N   UNL     1      35.098 -18.769 -23.354  0.00  0.00    -0.301 N 
ATOM      3  C   UNL     1      35.781 -18.901 -22.151  0.00  0.00    +0.246 C 
ATOM      4  H   UNL     1      34.316 -19.343 -23.519  0.00  0.00    +0.150 HD
ENDROOT
BRANCH   3   5
ATOM      5  C   UNL     1      35.269 -19.938 -21.218  0.00  0.00    +0.053 C 
ATOM      6  C   UNL     1      33.906 -20.103 -21.088  0.00  0.00    +0.006 C 
ATOM      7  C   UNL     1      36.174 -20.703 -20.512  0.00  0.00    +0.006 C 
ATOM      8  C   UNL     1      34.320 -21.864 -19.487  0.00  0.00    +0.122 C 
ATOM      9  C   UNL     1      33.425 -21.076 -20.212  0.00  0.00    +0.020 C 
ATOM     10  C   UNL     1      35.693 -21.677 -19.637  0.00  0.00    +0.020 C 
BRANCH   8  11
ATOM     11  S   UNL     1      33.718 -23.084 -18.392  0.00  0.00    +0.057 S 
ATOM     12  O   UNL     1      32.428 -22.643 -17.878  0.00  0.00    -0.153 OA
ATOM     13  O   UNL     1      33.834 -24.383 -19.038  0.00  0.00    -0.153 OA
BRANCH  11  14
ATOM     14  N   UNL     1      34.872 -22.992 -17.136  0.00  0.00    -0.203 NA
ATOM     15  H   UNL     1      35.672 -22.442 -17.448  0.00  0.00    +0.144 HD
ATOM     16  H   UNL     1      35.181 -23.932 -16.888  0.00  0.00    +0.144 HD
ENDBRANCH  11  14
ENDBRANCH   8  11
ENDBRANCH   3   5
BRANCH   2  17
ATOM     17  C   UNL     1      35.489 -17.827 -24.368  0.00  0.00    +0.091 C 
BRANCH  17  18
ATOM     18  C   UNL     1      34.635 -16.549 -24.380  0.00  0.00    +0.040 C 
ATOM     19  C   UNL     1      34.228 -16.173 -25.809  0.00  0.00    +0.004 C 
BRANCH  18  20
ATOM     20  C   UNL     1      35.362 -15.392 -23.664  0.00  0.00    +0.097 C 
BRANCH  20  21
ATOM     21  N   UNL     1      34.514 -14.230 -23.413  0.00  0.00    -0.286 N 
ATOM     22  C   UNL     1      33.762 -14.034 -22.286  0.00  0.00    +0.052 C 
ATOM     23  C   UNL     1      33.109 -12.810 -22.450  0.00  0.00    +0.015 C 
ATOM     24  C   UNL     1      34.370 -13.194 -24.285  0.00  0.00    +0.065 C 
ATOM     25  C   UNL     1      33.502 -12.292 -23.715  0.00  0.00    +0.017 C 
ATOM     26  C   UNL     1      33.606 -14.826 -21.144  0.00  0.00    +0.015 C 
ATOM     27  C   UNL     1      32.257 -12.354 -21.424  0.00  0.00    +0.001 C 
ATOM     28  C   UNL     1      32.755 -14.354 -20.140  0.00  0.00    +0.001 C 
ATOM     29  C   UNL     1      32.090 -13.137 -20.276  0.00  0.00    +0.000 C 
ENDBRANCH  20  21
ENDBRANCH  18  20
ENDBRANCH  17  18
ENDBRANCH   2  17
TORSDOF 7
ENDMDL
MODEL 3
REMARK VINA RESULT:     -10.7      1.446      2.589
REMARK  Name = 446277
REMARK  7 active torsions:
REMARK  status: ('A' for Active; 'I' for Inactive)
REMARK    1  A    between atoms: N_2  and  C_17
REMARK    2  A    between atoms: C_3  and  C_5
REMARK    3  A    between atoms: C_8  and  S_11
REMARK    4  A    between atoms: S_11  and  N_14
REMARK    5  A    between atoms: C_17  and  C_18
REMARK    6  A    between atoms: C_18  and  C_20
REMARK    7  A    between atoms: C_20  and  N_21
REMARK                            x       y       z     vdW  Elec       q    Type
REMARK                         _______ _______ _______ _____ _____    ______ ____
ROOT
ATOM      1  O   UNL     1      36.960 -18.676 -23.059  0.00  0.00    -0.270 OA
ATOM      2  N   UNL     1      35.207 -17.338 -22.337  0.00  0.00    -0.301 N 
ATOM      3  C   UNL     1      35.969 -18.501 -22.355  0.00  0.00    +0.246 C 
ATOM      4  H   UNL     1      34.429 -17.293 -21.737  0.00  0.00    +0.150 HD
ENDROOT
BRANCH   3   5
ATOM      5  C   UNL     1      35.508 -19.599 -21.466  0.00  0.00    +0.053 C 
ATOM      6  C   UNL     1      36.446 -20.323 -20.760  0.00  0.00    +0.006 C 
ATOM      7  C   UNL     1      34.156 -19.858 -21.374  0.00  0.00    +0.006 C 
ATOM      8  C   UNL     1      34.651 -21.635 -19.815  0.00  0.00    +0.122 C 
ATOM      9  C   UNL     1      36.013 -21.354 -19.925  0.00  0.00    +0.020 C 
ATOM     10  C   UNL     1      33.723 -20.888 -20.539  0.00  0.00    +0.020 C 
BRANCH   8  11
ATOM     11  S   UNL     1      34.109 -22.925 -18.769  0.00  0.00    +0.057 S 
ATOM     12  O   UNL     1      34.036 -24.151 -19.552  0.00  0.00    -0.153 OA
ATOM     13  O   UNL     1      34.901 -22.893 -17.547  0.00  0.00    -0.153 OA
BRANCH  11  14
ATOM     14  N   UNL     1      32.522 -22.406 -18.407  0.00  0.00    -0.203 NA
ATOM     15  H   UNL     1      32.257 -21.653 -19.042  0.00  0.00    +0.144 HD
ATOM     16  H   UNL     1      32.486 -22.069 -17.445  0.00  0.00    +0.144 HD
ENDBRANCH  11  14
ENDBRANCH   8  11
ENDBRANCH   3   5
BRANCH   2  17
ATOM     17  C   UNL     1      35.512 -16.199 -23.159  0.00  0.00    +0.091 C 
BRANCH  17  18
ATOM     18  C   UNL     1      34.952 -14.878 -22.610  0.00  0.00    +0.040 C 
ATOM     19  C   UNL     1      34.647 -14.990 -21.113  0.00  0.00    +0.004 C 
BRANCH  18  20
ATOM     20  C   UNL     1      33.720 -14.421 -23.417  0.00  0.00    +0.097 C 
BRANCH  20  21
ATOM     21  N   UNL     1      33.559 -12.971 -23.475  0.00  0.00    -0.286 N 
ATOM     22  C   UNL     1      32.793 -12.230 -22.616  0.00  0.00    +0.052 C 
ATOM     23  C   UNL     1      32.914 -10.898 -23.019  0.00  0.00    +0.015 C 
ATOM     24  C   UNL     1      34.160 -12.178 -24.404  0.00  0.00    +0.065 C 
ATOM     25  C   UNL     1      33.779 -10.880 -24.148  0.00  0.00    +0.017 C 
ATOM     26  C   UNL     1      32.009 -12.620 -21.524  0.00  0.00    +0.015 C 
ATOM     27  C   UNL     1      32.220  -9.906 -22.298  0.00  0.00    +0.001 C 
ATOM     28  C   UNL     1      31.329 -11.618 -20.825  0.00  0.00    +0.001 C 
ATOM     29  C   UNL     1      31.432 -10.281 -21.205  0.00  0.00    +0.000 C 
ENDBRANCH  20  21
ENDBRANCH  18  20
ENDBRANCH  17  18
ENDBRANCH   2  17
TORSDOF 7
ENDMDL
MODEL 4
REMARK VINA RESULT:     -10.5      4.665     10.107
REMARK  Name = 446277
REMARK  7 active torsions:
REMARK  status: ('A' for Active; 'I' for Inactive)
REMARK    1  A    between atoms: N_2  and  C_17
REMARK    2  A    between atoms: C_3  and  C_5
REMARK    3  A    between atoms: C_8  and  S_11
REMARK    4  A    between atoms: S_11  and  N_14
REMARK    5  A    between atoms: C_17  and  C_18
REMARK    6  A    between atoms: C_18  and  C_20
REMARK    7  A    between atoms: C_20  and  N_21
REMARK                            x       y       z     vdW  Elec       q    Type
REMARK                         _______ _______ _______ _____ _____    ______ ____
ROOT
ATOM      1  O   UNL     1      33.848 -24.295 -19.064  0.00  0.00    -0.270 OA
ATOM      2  N   UNL     1      33.175 -22.762 -17.457  0.00  0.00    -0.301 N 
ATOM      3  C   UNL     1      33.763 -23.138 -18.659  0.00  0.00    +0.246 C 
ATOM      4  H   UNL     1      33.155 -21.808 -17.219  0.00  0.00    +0.150 HD
ENDROOT
BRANCH   3   5
ATOM      5  C   UNL     1      34.343 -22.040 -19.475  0.00  0.00    +0.053 C 
ATOM      6  C   UNL     1      33.494 -21.218 -20.186  0.00  0.00    +0.006 C 
ATOM      7  C   UNL     1      35.713 -21.878 -19.496  0.00  0.00    +0.006 C 
ATOM      8  C   UNL     1      35.421 -20.003 -20.990  0.00  0.00    +0.122 C 
ATOM      9  C   UNL     1      34.039 -20.187 -20.952  0.00  0.00    +0.020 C 
ATOM     10  C   UNL     1      36.257 -20.848 -20.261  0.00  0.00    +0.020 C 
BRANCH   8  11
ATOM     11  S   UNL     1      36.102 -18.712 -21.948  0.00  0.00    +0.057 S 
ATOM     12  O   UNL     1      35.860 -19.007 -23.354  0.00  0.00    -0.153 OA
ATOM     13  O   UNL     1      35.664 -17.440 -21.390  0.00  0.00    -0.153 OA
BRANCH  11  14
ATOM     14  N   UNL     1      37.767 -18.908 -21.622  0.00  0.00    -0.203 NA
ATOM     15  H   UNL     1      37.973 -19.897 -21.485  0.00  0.00    +0.144 HD
ATOM     16  H   UNL     1      38.012 -18.389 -20.778  0.00  0.00    +0.144 HD
ENDBRANCH  11  14
ENDBRANCH   8  11
ENDBRANCH   3   5
BRANCH   2  17
ATOM     17  C   UNL     1      32.593 -23.712 -16.548  0.00  0.00    +0.091 C 
BRANCH  17  18
ATOM     18  C   UNL     1      33.553 -24.167 -15.438  0.00  0.00    +0.040 C 
ATOM     19  C   UNL     1      32.782 -24.756 -14.251  0.00  0.00    +0.004 C 
BRANCH  18  20
ATOM     20  C   UNL     1      34.484 -23.016 -15.006  0.00  0.00    +0.097 C 
BRANCH  20  21
ATOM     21  N   UNL     1      35.901 -23.292 -15.225  0.00  0.00    -0.286 N 
ATOM     22  C   UNL     1      36.644 -24.198 -14.518  0.00  0.00    +0.052 C 
ATOM     23  C   UNL     1      37.938 -24.150 -15.042  0.00  0.00    +0.015 C 
ATOM     24  C   UNL     1      36.657 -22.670 -16.171  0.00  0.00    +0.065 C 
ATOM     25  C   UNL     1      37.932 -23.181 -16.084  0.00  0.00    +0.017 C 
ATOM     26  C   UNL     1      36.286 -25.051 -13.468  0.00  0.00    +0.015 C 
ATOM     27  C   UNL     1      38.925 -24.993 -14.492  0.00  0.00    +0.001 C 
ATOM     28  C   UNL     1      37.282 -25.878 -12.937  0.00  0.00    +0.001 C 
ATOM     29  C   UNL     1      38.581 -25.851 -13.441  0.00  0.00    +0.000 C 
ENDBRANCH  20  21
ENDBRANCH  18  20
ENDBRANCH  17  18
ENDBRANCH   2  17
TORSDOF 7
ENDMDL
MODEL 5
REMARK VINA RESULT:     -10.4      4.749     10.269
REMARK  Name = 446277
REMARK  7 active torsions:
REMARK  status: ('A' for Active; 'I' for Inactive)
REMARK    1  A    between atoms: N_2  and  C_17
REMARK    2  A    between atoms: C_3  and  C_5
REMARK    3  A    between atoms: C_8  and  S_11
REMARK    4  A    between atoms: S_11  and  N_14
REMARK    5  A    between atoms: C_17  and  C_18
REMARK    6  A    between atoms: C_18  and  C_20
REMARK    7  A    between atoms: C_20  and  N_21
REMARK                            x       y       z     vdW  Elec       q    Type
REMARK                         _______ _______ _______ _____ _____    ______ ____
ROOT
ATOM      1  O   UNL     1      33.818 -24.309 -19.078  0.00  0.00    -0.270 OA
ATOM      2  N   UNL     1      33.096 -22.746 -17.522  0.00  0.00    -0.301 N 
ATOM      3  C   UNL     1      33.744 -23.147 -18.684  0.00  0.00    +0.246 C 
ATOM      4  H   UNL     1      33.090 -21.790 -17.291  0.00  0.00    +0.150 HD
ENDROOT
BRANCH   3   5
ATOM      5  C   UNL     1      34.405 -22.073 -19.469  0.00  0.00    +0.053 C 
ATOM      6  C   UNL     1      35.781 -21.985 -19.453  0.00  0.00    +0.006 C 
ATOM      7  C   UNL     1      33.620 -21.197 -20.190  0.00  0.00    +0.006 C 
ATOM      8  C   UNL     1      35.630 -20.078 -20.928  0.00  0.00    +0.122 C 
ATOM      9  C   UNL     1      36.401 -20.976 -20.190  0.00  0.00    +0.020 C 
ATOM     10  C   UNL     1      34.240 -20.188 -20.928  0.00  0.00    +0.020 C 
BRANCH   8  11
ATOM     11  S   UNL     1      36.406 -18.815 -21.852  0.00  0.00    +0.057 S 
ATOM     12  O   UNL     1      37.803 -18.740 -21.444  0.00  0.00    -0.153 OA
ATOM     13  O   UNL     1      36.072 -18.998 -23.257  0.00  0.00    -0.153 OA
BRANCH  11  14
ATOM     14  N   UNL     1      35.587 -17.434 -21.269  0.00  0.00    -0.203 NA
ATOM     15  H   UNL     1      34.815 -17.724 -20.669  0.00  0.00    +0.144 HD
ATOM     16  H   UNL     1      35.222 -16.898 -22.057  0.00  0.00    +0.144 HD
ENDBRANCH  11  14
ENDBRANCH   8  11
ENDBRANCH   3   5
BRANCH   2  17
ATOM     17  C   UNL     1      32.432 -23.673 -16.646  0.00  0.00    +0.091 C 
BRANCH  17  18
ATOM     18  C   UNL     1      33.215 -23.968 -15.358  0.00  0.00    +0.040 C 
ATOM     19  C   UNL     1      32.505 -23.379 -14.134  0.00  0.00    +0.004 C 
BRANCH  18  20
ATOM     20  C   UNL     1      34.672 -23.476 -15.472  0.00  0.00    +0.097 C 
BRANCH  20  21
ATOM     21  N   UNL     1      35.661 -24.460 -15.041  0.00  0.00    -0.286 N 
ATOM     22  C   UNL     1      36.530 -24.297 -13.996  0.00  0.00    +0.052 C 
ATOM     23  C   UNL     1      37.295 -25.464 -13.926  0.00  0.00    +0.015 C 
ATOM     24  C   UNL     1      35.835 -25.671 -15.638  0.00  0.00    +0.065 C 
ATOM     25  C   UNL     1      36.846 -26.322 -14.968  0.00  0.00    +0.017 C 
ATOM     26  C   UNL     1      36.705 -23.225 -13.113  0.00  0.00    +0.015 C 
ATOM     27  C   UNL     1      38.283 -25.568 -12.925  0.00  0.00    +0.001 C 
ATOM     28  C   UNL     1      37.691 -23.351 -12.130  0.00  0.00    +0.001 C 
ATOM     29  C   UNL     1      38.469 -24.504 -12.036  0.00  0.00    +0.000 C 
ENDBRANCH  20  21
ENDBRANCH  18  20
ENDBRANCH  17  18
ENDBRANCH   2  17
TORSDOF 7
ENDMDL
MODEL 6
REMARK VINA RESULT:     -10.3      4.590      9.316
REMARK  Name = 446277
REMARK  7 active torsions:
REMARK  status: ('A' for Active; 'I' for Inactive)
REMARK    1  A    between atoms: N_2  and  C_17
REMARK    2  A    between atoms: C_3  and  C_5
REMARK    3  A    between atoms: C_8  and  S_11
REMARK    4  A    between atoms: S_11  and  N_14
REMARK    5  A    between atoms: C_17  and  C_18
REMARK    6  A    between atoms: C_18  and  C_20
REMARK    7  A    between atoms: C_20  and  N_21
REMARK                            x       y       z     vdW  Elec       q    Type
REMARK                         _______ _______ _______ _____ _____    ______ ____
ROOT
ATOM      1  O   UNL     1      33.960 -24.256 -19.068  0.00  0.00    -0.270 OA
ATOM      2  N   UNL     1      32.574 -22.744 -17.983  0.00  0.00    -0.301 N 
ATOM      3  C   UNL     1      33.569 -23.106 -18.884  0.00  0.00    +0.246 C 
ATOM      4  H   UNL     1      32.329 -21.794 -17.907  0.00  0.00    +0.150 HD
ENDROOT
BRANCH   3   5
ATOM      5  C   UNL     1      34.198 -21.995 -19.644  0.00  0.00    +0.053 C 
ATOM      6  C   UNL     1      33.387 -21.077 -20.278  0.00  0.00    +0.006 C 
ATOM      7  C   UNL     1      35.575 -21.918 -19.691  0.00  0.00    +0.006 C 
ATOM      8  C   UNL     1      35.369 -19.934 -21.055  0.00  0.00    +0.122 C 
ATOM      9  C   UNL     1      33.979 -20.035 -20.993  0.00  0.00    +0.020 C 
ATOM     10  C   UNL     1      36.167 -20.876 -20.405  0.00  0.00    +0.020 C 
BRANCH   8  11
ATOM     11  S   UNL     1      36.110 -18.629 -21.948  0.00  0.00    +0.057 S 
ATOM     12  O   UNL     1      35.908 -18.873 -23.370  0.00  0.00    -0.153 OA
ATOM     13  O   UNL     1      35.680 -17.366 -21.363  0.00  0.00    -0.153 OA
BRANCH  11  14
ATOM     14  N   UNL     1      37.758 -18.873 -21.575  0.00  0.00    -0.203 NA
ATOM     15  H   UNL     1      38.281 -19.041 -22.434  0.00  0.00    +0.144 HD
ATOM     16  H   UNL     1      37.851 -19.680 -20.957  0.00  0.00    +0.144 HD
ENDBRANCH  11  14
ENDBRANCH   8  11
ENDBRANCH   3   5
BRANCH   2  17
ATOM     17  C   UNL     1      31.890 -23.702 -17.157  0.00  0.00    +0.091 C 
BRANCH  17  18
ATOM     18  C   UNL     1      32.116 -23.489 -15.653  0.00  0.00    +0.040 C 
ATOM     19  C   UNL     1      30.889 -22.846 -14.997  0.00  0.00    +0.004 C 
BRANCH  18  20
ATOM     20  C   UNL     1      33.400 -22.674 -15.397  0.00  0.00    +0.097 C 
BRANCH  20  21
ATOM     21  N   UNL     1      34.573 -23.497 -15.114  0.00  0.00    -0.286 N 
ATOM     22  C   UNL     1      35.840 -23.242 -15.564  0.00  0.00    +0.052 C 
ATOM     23  C   UNL     1      36.653 -24.264 -15.070  0.00  0.00    +0.015 C 
ATOM     24  C   UNL     1      34.540 -24.630 -14.360  0.00  0.00    +0.065 C 
ATOM     25  C   UNL     1      35.820 -25.133 -14.312  0.00  0.00    +0.017 C 
ATOM     26  C   UNL     1      36.334 -22.202 -16.360  0.00  0.00    +0.015 C 
ATOM     27  C   UNL     1      38.027 -24.250 -15.384  0.00  0.00    +0.001 C 
ATOM     28  C   UNL     1      37.700 -22.209 -16.660  0.00  0.00    +0.001 C 
ATOM     29  C   UNL     1      38.535 -23.217 -16.180  0.00  0.00    +0.000 C 
ENDBRANCH  20  21
ENDBRANCH  18  20
ENDBRANCH  17  18
ENDBRANCH   2  17
TORSDOF 7
ENDMDL
MODEL 7
REMARK VINA RESULT:     -10.3      4.832     10.371
REMARK  Name = 446277
REMARK  7 active torsions:
REMARK  status: ('A' for Active; 'I' for Inactive)
REMARK    1  A    between atoms: N_2  and  C_17
REMARK    2  A    between atoms: C_3  and  C_5
REMARK    3  A    between atoms: C_8  and  S_11
REMARK    4  A    between atoms: S_11  and  N_14
REMARK    5  A    between atoms: C_17  and  C_18
REMARK    6  A    between atoms: C_18  and  C_20
REMARK    7  A    between atoms: C_20  and  N_21
REMARK                            x       y       z     vdW  Elec       q    Type
REMARK                         _______ _______ _______ _____ _____    ______ ____
ROOT
ATOM      1  O   UNL     1      33.956 -24.375 -19.343  0.00  0.00    -0.270 OA
ATOM      2  N   UNL     1      33.353 -22.960 -17.605  0.00  0.00    -0.301 N 
ATOM      3  C   UNL     1      33.892 -23.250 -18.853  0.00  0.00    +0.246 C 
ATOM      4  H   UNL     1      33.347 -22.026 -17.299  0.00  0.00    +0.150 HD
ENDROOT
BRANCH   3   5
ATOM      5  C   UNL     1      34.444 -22.097 -19.611  0.00  0.00    +0.053 C 
ATOM      6  C   UNL     1      35.811 -21.919 -19.652  0.00  0.00    +0.006 C 
ATOM      7  C   UNL     1      33.570 -21.241 -20.250  0.00  0.00    +0.006 C 
ATOM      8  C   UNL     1      35.466 -19.957 -21.019  0.00  0.00    +0.122 C 
ATOM      9  C   UNL     1      36.328 -20.836 -20.364  0.00  0.00    +0.020 C 
ATOM     10  C   UNL     1      34.087 -20.159 -20.962  0.00  0.00    +0.020 C 
BRANCH   8  11
ATOM     11  S   UNL     1      36.114 -18.602 -21.911  0.00  0.00    +0.057 S 
ATOM     12  O   UNL     1      35.836 -18.809 -23.326  0.00  0.00    -0.153 OA
ATOM     13  O   UNL     1      35.683 -17.372 -21.262  0.00  0.00    -0.153 OA
BRANCH  11  14
ATOM     14  N   UNL     1      37.788 -18.806 -21.642  0.00  0.00    -0.203 NA
ATOM     15  H   UNL     1      38.241 -17.892 -21.605  0.00  0.00    +0.144 HD
ATOM     16  H   UNL     1      38.190 -19.354 -22.403  0.00  0.00    +0.144 HD
ENDBRANCH  11  14
ENDBRANCH   8  11
ENDBRANCH   3   5
BRANCH   2  17
ATOM     17  C   UNL     1      32.804 -23.973 -16.744  0.00  0.00    +0.091 C 
BRANCH  17  18
ATOM     18  C   UNL     1      33.082 -23.727 -15.253  0.00  0.00    +0.040 C 
ATOM     19  C   UNL     1      32.072 -22.738 -14.661  0.00  0.00    +0.004 C 
BRANCH  18  20
ATOM     20  C   UNL     1      34.537 -23.269 -15.030  0.00  0.00    +0.097 C 
BRANCH  20  21
ATOM     21  N   UNL     1      35.223 -23.988 -13.960  0.00  0.00    -0.286 N 
ATOM     22  C   UNL     1      36.414 -24.648 -14.093  0.00  0.00    +0.052 C 
ATOM     23  C   UNL     1      36.712 -25.193 -12.842  0.00  0.00    +0.015 C 
ATOM     24  C   UNL     1      34.748 -24.086 -12.687  0.00  0.00    +0.065 C 
ATOM     25  C   UNL     1      35.652 -24.830 -11.964  0.00  0.00    +0.017 C 
ATOM     26  C   UNL     1      37.248 -24.810 -15.205  0.00  0.00    +0.015 C 
ATOM     27  C   UNL     1      37.900 -25.935 -12.690  0.00  0.00    +0.001 C 
ATOM     28  C   UNL     1      38.421 -25.551 -15.031  0.00  0.00    +0.001 C 
ATOM     29  C   UNL     1      38.744 -26.105 -13.794  0.00  0.00    +0.000 C 
ENDBRANCH  20  21
ENDBRANCH  18  20
ENDBRANCH  17  18
ENDBRANCH   2  17
TORSDOF 7
ENDMDL
MODEL 8
REMARK VINA RESULT:     -10.1      2.266      3.401
REMARK  Name = 446277
REMARK  7 active torsions:
REMARK  status: ('A' for Active; 'I' for Inactive)
REMARK    1  A    between atoms: N_2  and  C_17
REMARK    2  A    between atoms: C_3  and  C_5
REMARK    3  A    between atoms: C_8  and  S_11
REMARK    4  A    between atoms: S_11  and  N_14
REMARK    5  A    between atoms: C_17  and  C_18
REMARK    6  A    between atoms: C_18  and  C_20
REMARK    7  A    between atoms: C_20  and  N_21
REMARK                            x       y       z     vdW  Elec       q    Type
REMARK                         _______ _______ _______ _____ _____    ______ ____
ROOT
ATOM      1  O   UNL     1      33.251 -21.020 -20.658  0.00  0.00    -0.270 OA
ATOM      2  N   UNL     1      35.370 -20.231 -21.180  0.00  0.00    -0.301 N 
ATOM      3  C   UNL     1      34.453 -20.941 -20.414  0.00  0.00    +0.246 C 
ATOM      4  H   UNL     1      36.314 -20.228 -20.903  0.00  0.00    +0.150 HD
ENDROOT
BRANCH   3   5
ATOM      5  C   UNL     1      34.994 -21.622 -19.209  0.00  0.00    +0.053 C 
ATOM      6  C   UNL     1      34.151 -22.410 -18.454  0.00  0.00    +0.006 C 
ATOM      7  C   UNL     1      36.323 -21.444 -18.885  0.00  0.00    +0.006 C 
ATOM      8  C   UNL     1      36.000 -22.885 -16.974  0.00  0.00    +0.122 C 
ATOM      9  C   UNL     1      34.659 -23.049 -17.323  0.00  0.00    +0.020 C 
ATOM     10  C   UNL     1      36.831 -22.083 -17.755  0.00  0.00    +0.020 C 
BRANCH   8  11
ATOM     11  S   UNL     1      36.637 -23.686 -15.558  0.00  0.00    +0.057 S 
ATOM     12  O   UNL     1      36.471 -25.123 -15.731  0.00  0.00    -0.153 OA
ATOM     13  O   UNL     1      37.956 -23.139 -15.272  0.00  0.00    -0.153 OA
BRANCH  11  14
ATOM     14  N   UNL     1      35.547 -23.146 -14.360  0.00  0.00    -0.203 NA
ATOM     15  H   UNL     1      35.856 -22.242 -14.001  0.00  0.00    +0.144 HD
ATOM     16  H   UNL     1      35.518 -23.822 -13.597  0.00  0.00    +0.144 HD
ENDBRANCH  11  14
ENDBRANCH   8  11
ENDBRANCH   3   5
BRANCH   2  17
ATOM     17  C   UNL     1      34.994 -19.500 -22.360  0.00  0.00    +0.091 C 
BRANCH  17  18
ATOM     18  C   UNL     1      35.899 -18.293 -22.649  0.00  0.00    +0.040 C 
ATOM     19  C   UNL     1      37.378 -18.673 -22.529  0.00  0.00    +0.004 C 
BRANCH  18  20
ATOM     20  C   UNL     1      35.535 -17.100 -21.741  0.00  0.00    +0.097 C 
BRANCH  20  21
ATOM     21  N   UNL     1      35.013 -15.946 -22.468  0.00  0.00    -0.286 N 
ATOM     22  C   UNL     1      34.172 -15.002 -21.944  0.00  0.00    +0.052 C 
ATOM     23  C   UNL     1      33.918 -14.082 -22.965  0.00  0.00    +0.015 C 
ATOM     24  C   UNL     1      35.306 -15.674 -23.769  0.00  0.00    +0.065 C 
ATOM     25  C   UNL     1      34.640 -14.519 -24.110  0.00  0.00    +0.017 C 
ATOM     26  C   UNL     1      33.617 -14.883 -20.665  0.00  0.00    +0.015 C 
ATOM     27  C   UNL     1      33.070 -12.989 -22.697  0.00  0.00    +0.001 C 
ATOM     28  C   UNL     1      32.778 -13.790 -20.423  0.00  0.00    +0.001 C 
ATOM     29  C   UNL     1      32.508 -12.857 -21.422  0.00  0.00    +0.000 C 
ENDBRANCH  20  21
ENDBRANCH  18  20
ENDBRANCH  17  18
ENDBRANCH   2  17
TORSDOF 7
ENDMDL
MODEL 9
REMARK VINA RESULT:     -10.1      1.533      2.426
REMARK  Name = 446277
REMARK  7 active torsions:
REMARK  status: ('A' for Active; 'I' for Inactive)
REMARK    1  A    between atoms: N_2  and  C_17
REMARK    2  A    between atoms: C_3  and  C_5
REMARK    3  A    between atoms: C_8  and  S_11
REMARK    4  A    between atoms: S_11  and  N_14
REMARK    5  A    between atoms: C_17  and  C_18
REMARK    6  A    between atoms: C_18  and  C_20
REMARK    7  A    between atoms: C_20  and  N_21
REMARK                            x       y       z     vdW  Elec       q    Type
REMARK                         _______ _______ _______ _____ _____    ______ ____
ROOT
ATOM      1  O   UNL     1      37.187 -18.397 -22.682  0.00  0.00    -0.270 OA
ATOM      2  N   UNL     1      35.141 -17.338 -22.404  0.00  0.00    -0.301 N 
ATOM      3  C   UNL     1      36.055 -18.366 -22.206  0.00  0.00    +0.246 C 
ATOM      4  H   UNL     1      34.257 -17.404 -21.979  0.00  0.00    +0.150 HD
ENDROOT
BRANCH   3   5
ATOM      5  C   UNL     1      35.588 -19.506 -21.373  0.00  0.00    +0.053 C 
ATOM      6  C   UNL     1      36.518 -20.242 -20.669  0.00  0.00    +0.006 C 
ATOM      7  C   UNL     1      34.239 -19.790 -21.332  0.00  0.00    +0.006 C 
ATOM      8  C   UNL     1      34.720 -21.619 -19.829  0.00  0.00    +0.122 C 
ATOM      9  C   UNL     1      36.079 -21.311 -19.888  0.00  0.00    +0.020 C 
ATOM     10  C   UNL     1      33.800 -20.859 -20.550  0.00  0.00    +0.020 C 
BRANCH   8  11
ATOM     11  S   UNL     1      34.171 -22.957 -18.850  0.00  0.00    +0.057 S 
ATOM     12  O   UNL     1      34.052 -24.132 -19.704  0.00  0.00    -0.153 OA
ATOM     13  O   UNL     1      34.989 -23.017 -17.647  0.00  0.00    -0.153 OA
BRANCH  11  14
ATOM     14  N   UNL     1      32.605 -22.427 -18.422  0.00  0.00    -0.203 NA
ATOM     15  H   UNL     1      32.186 -23.092 -17.772  0.00  0.00    +0.144 HD
ATOM     16  H   UNL     1      32.027 -22.360 -19.260  0.00  0.00    +0.144 HD
ENDBRANCH  11  14
ENDBRANCH   8  11
ENDBRANCH   3   5
BRANCH   2  17
ATOM     17  C   UNL     1      35.437 -16.181 -23.204  0.00  0.00    +0.091 C 
BRANCH  17  18
ATOM     18  C   UNL     1      34.971 -14.861 -22.572  0.00  0.00    +0.040 C 
ATOM     19  C   UNL     1      34.748 -15.022 -21.064  0.00  0.00    +0.004 C 
BRANCH  18  20
ATOM     20  C   UNL     1      33.716 -14.319 -23.285  0.00  0.00    +0.097 C 
BRANCH  20  21
ATOM     21  N   UNL     1      33.010 -13.287 -22.531  0.00  0.00    -0.286 N 
ATOM     22  C   UNL     1      33.007 -11.953 -22.836  0.00  0.00    +0.052 C 
ATOM     23  C   UNL     1      32.217 -11.323 -21.871  0.00  0.00    +0.015 C 
ATOM     24  C   UNL     1      32.263 -13.537 -21.420  0.00  0.00    +0.065 C 
ATOM     25  C   UNL     1      31.755 -12.335 -20.984  0.00  0.00    +0.017 C 
ATOM     26  C   UNL     1      33.629 -11.253 -23.876  0.00  0.00    +0.015 C 
ATOM     27  C   UNL     1      32.039  -9.927 -21.945  0.00  0.00    +0.001 C 
ATOM     28  C   UNL     1      33.439  -9.868 -23.929  0.00  0.00    +0.001 C 
ATOM     29  C   UNL     1      32.656  -9.214 -22.979  0.00  0.00    +0.000 C 
ENDBRANCH  20  21
ENDBRANCH  18  20
ENDBRANCH  17  18
ENDBRANCH   2  17
TORSDOF 7
ENDMDL
