MODEL 1
REMARK VINA RESULT:     -12.0      0.000      0.000
REMARK  Name = 25191001
REMARK  7 active torsions:
REMARK  status: ('A' for Active; 'I' for Inactive)
REMARK    1  A    between atoms: C_1  and  N_9
REMARK    2  A    between atoms: C_2  and  O_24
REMARK    3  A    between atoms: N_8  and  C_14
REMARK    4  A    between atoms: C_15  and  C_23
REMARK    5  A    between atoms: O_24  and  C_26
REMARK    6  A    between atoms: C_28  and  C_33
REMARK    7  A    between atoms: N_32  and  C_35
REMARK                            x       y       z     vdW  Elec       q    Type
REMARK                         _______ _______ _______ _____ _____    ______ ____
ROOT
ATOM      1  C   UNL     1      35.289 -22.038 -18.879  0.00  0.00    +0.052 C 
ATOM      2  C   UNL     1      34.460 -23.555 -16.689  0.00  0.00    +0.145 C 
ATOM      3  C   UNL     1      36.051 -22.050 -17.710  0.00  0.00    +0.018 C 
ATOM      4  C   UNL     1      34.113 -22.784 -18.952  0.00  0.00    +0.018 C 
ATOM      5  C   UNL     1      35.637 -22.809 -16.616  0.00  0.00    +0.039 C 
ATOM      6  C   UNL     1      33.698 -23.543 -17.857  0.00  0.00    +0.039 C 
ENDROOT
BRANCH   1   9
ATOM      7  O   UNL     1      33.738 -20.186 -20.635  0.00  0.00    -0.252 OA
ATOM      8  N   UNL     1      35.741 -19.828 -21.795  0.00  0.00    -0.268 N 
ATOM      9  N   UNL     1      35.709 -21.267 -19.989  0.00  0.00    -0.268 N 
ATOM     10  C   UNL     1      34.935 -20.408 -20.785  0.00  0.00    +0.308 C 
ATOM     11  H   UNL     1      36.688 -20.100 -21.794  0.00  0.00    +0.156 HD
ATOM     12  H   UNL     1      36.659 -21.343 -20.232  0.00  0.00    +0.156 HD
BRANCH   8  14
ATOM     13 CL   UNL     1      34.179 -16.024 -26.040  0.00  0.00    -0.082 Cl
ATOM     14  C   UNL     1      35.373 -18.923 -22.791  0.00  0.00    +0.052 C 
ATOM     15  C   UNL     1      34.915 -16.658 -23.494  0.00  0.00    +0.083 C 
ATOM     16  C   UNL     1      35.284 -17.562 -22.498  0.00  0.00    +0.019 C 
ATOM     17  C   UNL     1      35.095 -19.379 -24.079  0.00  0.00    +0.016 C 
ATOM     18  C   UNL     1      34.637 -17.113 -24.783  0.00  0.00    +0.062 C 
ATOM     19  C   UNL     1      34.727 -18.475 -25.075  0.00  0.00    +0.013 C 
BRANCH  15  23
ATOM     20  F   UNL     1      35.619 -14.410 -23.919  0.00  0.00    -0.166 F 
ATOM     21  F   UNL     1      33.573 -14.692 -23.256  0.00  0.00    -0.166 F 
ATOM     22  F   UNL     1      35.213 -14.962 -21.855  0.00  0.00    -0.166 F 
ATOM     23  C   UNL     1      34.831 -15.208 -23.140  0.00  0.00    +0.419 C 
ENDBRANCH  15  23
ENDBRANCH   8  14
ENDBRANCH   1   9
BRANCH   2  24
ATOM     24  O   UNL     1      34.055 -24.293 -15.620  0.00  0.00    -0.453 OA
BRANCH  24  26
ATOM     25  N   UNL     1      36.938 -25.357 -12.787  0.00  0.00    -0.239 NA
ATOM     26  C   UNL     1      35.010 -24.647 -14.682  0.00  0.00    +0.149 C 
ATOM     27  C   UNL     1      36.173 -25.297 -15.079  0.00  0.00    +0.061 C 
ATOM     28  C   UNL     1      37.098 -25.628 -14.103  0.00  0.00    +0.137 C 
ATOM     29  C   UNL     1      34.810 -24.351 -13.338  0.00  0.00    +0.058 C 
ATOM     30  C   UNL     1      35.795 -24.725 -12.438  0.00  0.00    +0.102 C 
BRANCH  28  33
ATOM     31  O   UNL     1      38.300 -27.417 -15.025  0.00  0.00    -0.269 OA
ATOM     32  N   UNL     1      39.531 -25.650 -14.163  0.00  0.00    -0.313 N 
ATOM     33  C   UNL     1      38.331 -26.308 -14.460  0.00  0.00    +0.263 C 
ATOM     34  H   UNL     1      39.483 -24.775 -13.715  0.00  0.00    +0.149 HD
ATOM     35  C   UNL     1      40.835 -26.185 -14.478  0.00  0.00    +0.128 C 
ENDBRANCH  28  33
ENDBRANCH  24  26
ENDBRANCH   2  24
TORSDOF 6
ENDMDL
MODEL 2
REMARK VINA RESULT:     -11.9      2.807      4.463
REMARK  Name = 25191001
REMARK  7 active torsions:
REMARK  status: ('A' for Active; 'I' for Inactive)
REMARK    1  A    between atoms: C_1  and  N_9
REMARK    2  A    between atoms: C_2  and  O_24
REMARK    3  A    between atoms: N_8  and  C_14
REMARK    4  A    between atoms: C_15  and  C_23
REMARK    5  A    between atoms: O_24  and  C_26
REMARK    6  A    between atoms: C_28  and  C_33
REMARK    7  A    between atoms: N_32  and  C_35
REMARK                            x       y       z     vdW  Elec       q    Type
REMARK                         _______ _______ _______ _____ _____    ______ ____
ROOT
ATOM      1  C   UNL     1      35.918 -21.133 -19.591  0.00  0.00    +0.052 C 
ATOM      2  C   UNL     1      35.354 -23.027 -17.621  0.00  0.00    +0.145 C 
ATOM      3  C   UNL     1      34.742 -21.881 -19.658  0.00  0.00    +0.018 C 
ATOM      4  C   UNL     1      36.812 -21.333 -18.539  0.00  0.00    +0.018 C 
ATOM      5  C   UNL     1      34.460 -22.827 -18.673  0.00  0.00    +0.039 C 
ATOM      6  C   UNL     1      36.530 -22.280 -17.554  0.00  0.00    +0.039 C 
ENDROOT
BRANCH   1   9
ATOM      7  O   UNL     1      34.073 -19.555 -21.332  0.00  0.00    -0.252 OA
ATOM      8  N   UNL     1      35.997 -18.596 -22.265  0.00  0.00    -0.268 N 
ATOM      9  N   UNL     1      36.204 -20.174 -20.591  0.00  0.00    -0.268 N 
ATOM     10  C   UNL     1      35.296 -19.457 -21.385  0.00  0.00    +0.308 C 
ATOM     11  H   UNL     1      36.979 -18.623 -22.196  0.00  0.00    +0.156 HD
ATOM     12  H   UNL     1      37.157 -19.987 -20.749  0.00  0.00    +0.156 HD
BRANCH   8  14
ATOM     13 CL   UNL     1      33.815 -14.890 -26.319  0.00  0.00    -0.082 Cl
ATOM     14  C   UNL     1      35.481 -17.715 -23.216  0.00  0.00    +0.052 C 
ATOM     15  C   UNL     1      34.699 -15.510 -23.817  0.00  0.00    +0.083 C 
ATOM     16  C   UNL     1      35.214 -16.391 -22.866  0.00  0.00    +0.019 C 
ATOM     17  C   UNL     1      35.234 -18.157 -24.515  0.00  0.00    +0.016 C 
ATOM     18  C   UNL     1      34.452 -15.951 -25.117  0.00  0.00    +0.062 C 
ATOM     19  C   UNL     1      34.719 -17.276 -25.466  0.00  0.00    +0.013 C 
BRANCH  15  23
ATOM     20  F   UNL     1      34.947 -13.171 -24.257  0.00  0.00    -0.166 F 
ATOM     21  F   UNL     1      33.096 -13.804 -23.322  0.00  0.00    -0.166 F 
ATOM     22  F   UNL     1      34.945 -13.806 -22.178  0.00  0.00    -0.166 F 
ATOM     23  C   UNL     1      34.426 -14.099 -23.403  0.00  0.00    +0.419 C 
ENDBRANCH  15  23
ENDBRANCH   8  14
ENDBRANCH   1   9
BRANCH   2  24
ATOM     24  O   UNL     1      35.080 -23.952 -16.661  0.00  0.00    -0.453 OA
BRANCH  24  26
ATOM     25  N   UNL     1      31.632 -23.411 -14.362  0.00  0.00    -0.239 NA
ATOM     26  C   UNL     1      33.938 -23.772 -15.900  0.00  0.00    +0.149 C 
ATOM     27  C   UNL     1      32.740 -23.419 -16.511  0.00  0.00    +0.061 C 
ATOM     28  C   UNL     1      31.625 -23.252 -15.705  0.00  0.00    +0.137 C 
ATOM     29  C   UNL     1      33.985 -23.946 -14.521  0.00  0.00    +0.058 C 
ATOM     30  C   UNL     1      32.815 -23.755 -13.803  0.00  0.00    +0.102 C 
BRANCH  28  33
ATOM     31  O   UNL     1      30.288 -22.433 -17.448  0.00  0.00    -0.269 OA
ATOM     32  N   UNL     1      29.206 -23.079 -15.501  0.00  0.00    -0.313 N 
ATOM     33  C   UNL     1      30.347 -22.883 -16.289  0.00  0.00    +0.263 C 
ATOM     34  H   UNL     1      29.325 -23.437 -14.592  0.00  0.00    +0.149 HD
ATOM     35  C   UNL     1      27.865 -22.783 -15.948  0.00  0.00    +0.128 C 
ENDBRANCH  28  33
ENDBRANCH  24  26
ENDBRANCH   2  24
TORSDOF 6
ENDMDL
MODEL 3
REMARK VINA RESULT:     -11.8      5.737     11.695
REMARK  Name = 25191001
REMARK  7 active torsions:
REMARK  status: ('A' for Active; 'I' for Inactive)
REMARK    1  A    between atoms: C_1  and  N_9
REMARK    2  A    between atoms: C_2  and  O_24
REMARK    3  A    between atoms: N_8  and  C_14
REMARK    4  A    between atoms: C_15  and  C_23
REMARK    5  A    between atoms: O_24  and  C_26
REMARK    6  A    between atoms: C_28  and  C_33
REMARK    7  A    between atoms: N_32  and  C_35
REMARK                            x       y       z     vdW  Elec       q    Type
REMARK                         _______ _______ _______ _____ _____    ______ ____
ROOT
ATOM      1  C   UNL     1      36.682 -19.815 -20.578  0.00  0.00    +0.052 C 
ATOM      2  C   UNL     1      35.922 -18.895 -23.100  0.00  0.00    +0.145 C 
ATOM      3  C   UNL     1      35.418 -20.122 -21.082  0.00  0.00    +0.018 C 
ATOM      4  C   UNL     1      37.567 -19.047 -21.336  0.00  0.00    +0.018 C 
ATOM      5  C   UNL     1      35.038 -19.663 -22.342  0.00  0.00    +0.039 C 
ATOM      6  C   UNL     1      37.187 -18.587 -22.598  0.00  0.00    +0.039 C 
ENDROOT
BRANCH   1   9
ATOM      7  O   UNL     1      35.868 -22.280 -19.100  0.00  0.00    -0.252 OA
ATOM      8  N   UNL     1      37.274 -21.543 -17.377  0.00  0.00    -0.268 N 
ATOM      9  N   UNL     1      37.067 -20.280 -19.299  0.00  0.00    -0.268 N 
ATOM     10  C   UNL     1      36.653 -21.452 -18.646  0.00  0.00    +0.308 C 
ATOM     11  H   UNL     1      37.882 -20.804 -17.144  0.00  0.00    +0.156 HD
ATOM     12  H   UNL     1      37.702 -19.713 -18.807  0.00  0.00    +0.156 HD
BRANCH   8  14
ATOM     13 CL   UNL     1      36.674 -25.764 -13.283  0.00  0.00    -0.082 Cl
ATOM     14  C   UNL     1      37.141 -22.543 -16.411  0.00  0.00    +0.052 C 
ATOM     15  C   UNL     1      38.099 -24.348 -15.124  0.00  0.00    +0.083 C 
ATOM     16  C   UNL     1      38.232 -23.350 -16.089  0.00  0.00    +0.019 C 
ATOM     17  C   UNL     1      35.918 -22.733 -15.770  0.00  0.00    +0.016 C 
ATOM     18  C   UNL     1      36.876 -24.540 -14.481  0.00  0.00    +0.062 C 
ATOM     19  C   UNL     1      35.785 -23.732 -14.805  0.00  0.00    +0.013 C 
BRANCH  15  23
ATOM     20  F   UNL     1      40.388 -24.892 -15.561  0.00  0.00    -0.166 F 
ATOM     21  F   UNL     1      39.707 -25.081 -13.511  0.00  0.00    -0.166 F 
ATOM     22  F   UNL     1      39.059 -26.520 -15.007  0.00  0.00    -0.166 F 
ATOM     23  C   UNL     1      39.292 -25.192 -14.807  0.00  0.00    +0.419 C 
ENDBRANCH  15  23
ENDBRANCH   8  14
ENDBRANCH   1   9
BRANCH   2  24
ATOM     24  O   UNL     1      35.552 -18.444 -24.330  0.00  0.00    -0.453 OA
BRANCH  24  26
ATOM     25  N   UNL     1      34.021 -14.563 -24.599  0.00  0.00    -0.239 NA
ATOM     26  C   UNL     1      35.044 -17.159 -24.418  0.00  0.00    +0.149 C 
ATOM     27  C   UNL     1      34.858 -16.400 -23.268  0.00  0.00    +0.061 C 
ATOM     28  C   UNL     1      34.349 -15.119 -23.410  0.00  0.00    +0.137 C 
ATOM     29  C   UNL     1      34.719 -16.621 -25.659  0.00  0.00    +0.058 C 
ATOM     30  C   UNL     1      34.214 -15.331 -25.695  0.00  0.00    +0.102 C 
BRANCH  28  33
ATOM     31  O   UNL     1      35.038 -14.130 -21.399  0.00  0.00    -0.269 OA
ATOM     32  N   UNL     1      32.891 -13.647 -22.133  0.00  0.00    -0.313 N 
ATOM     33  C   UNL     1      34.134 -14.282 -22.243  0.00  0.00    +0.263 C 
ATOM     34  H   UNL     1      32.222 -13.812 -22.836  0.00  0.00    +0.149 HD
ATOM     35  C   UNL     1      32.536 -12.766 -21.045  0.00  0.00    +0.128 C 
ENDBRANCH  28  33
ENDBRANCH  24  26
ENDBRANCH   2  24
TORSDOF 6
ENDMDL
MODEL 4
REMARK VINA RESULT:     -11.7      5.827     11.914
REMARK  Name = 25191001
REMARK  7 active torsions:
REMARK  status: ('A' for Active; 'I' for Inactive)
REMARK    1  A    between atoms: C_1  and  N_9
REMARK    2  A    between atoms: C_2  and  O_24
REMARK    3  A    between atoms: N_8  and  C_14
REMARK    4  A    between atoms: C_15  and  C_23
REMARK    5  A    between atoms: O_24  and  C_26
REMARK    6  A    between atoms: C_28  and  C_33
REMARK    7  A    between atoms: N_32  and  C_35
REMARK                            x       y       z     vdW  Elec       q    Type
REMARK                         _______ _______ _______ _____ _____    ______ ____
ROOT
ATOM      1  C   UNL     1      35.414 -20.925 -20.123  0.00  0.00    +0.052 C 
ATOM      2  C   UNL     1      36.107 -19.183 -22.190  0.00  0.00    +0.145 C 
ATOM      3  C   UNL     1      36.721 -20.448 -20.225  0.00  0.00    +0.018 C 
ATOM      4  C   UNL     1      34.454 -20.531 -21.055  0.00  0.00    +0.018 C 
ATOM      5  C   UNL     1      37.068 -19.577 -21.258  0.00  0.00    +0.039 C 
ATOM      6  C   UNL     1      34.800 -19.659 -22.089  0.00  0.00    +0.039 C 
ENDROOT
BRANCH   1   9
ATOM      7  O   UNL     1      36.901 -21.654 -17.638  0.00  0.00    -0.252 OA
ATOM      8  N   UNL     1      35.091 -23.054 -17.131  0.00  0.00    -0.268 N 
ATOM      9  N   UNL     1      35.063 -21.810 -19.077  0.00  0.00    -0.268 N 
ATOM     10  C   UNL     1      35.801 -22.120 -17.924  0.00  0.00    +0.308 C 
ATOM     11  H   UNL     1      34.219 -23.340 -17.487  0.00  0.00    +0.156 HD
ATOM     12  H   UNL     1      34.195 -22.264 -19.169  0.00  0.00    +0.156 HD
BRANCH   8  14
ATOM     13 CL   UNL     1      36.629 -25.455 -11.954  0.00  0.00    -0.082 Cl
ATOM     14  C   UNL     1      35.463 -23.623 -15.912  0.00  0.00    +0.052 C 
ATOM     15  C   UNL     1      37.134 -24.662 -14.512  0.00  0.00    +0.083 C 
ATOM     16  C   UNL     1      36.763 -24.094 -15.730  0.00  0.00    +0.019 C 
ATOM     17  C   UNL     1      34.534 -23.719 -14.877  0.00  0.00    +0.016 C 
ATOM     18  C   UNL     1      36.206 -24.759 -13.475  0.00  0.00    +0.062 C 
ATOM     19  C   UNL     1      34.905 -24.287 -13.658  0.00  0.00    +0.013 C 
BRANCH  15  23
ATOM     20  F   UNL     1      39.368 -24.758 -15.363  0.00  0.00    -0.166 F 
ATOM     21  F   UNL     1      39.138 -24.730 -13.207  0.00  0.00    -0.166 F 
ATOM     22  F   UNL     1      38.612 -26.515 -14.330  0.00  0.00    -0.166 F 
ATOM     23  C   UNL     1      38.537 -25.155 -14.356  0.00  0.00    +0.419 C 
ENDBRANCH  15  23
ENDBRANCH   8  14
ENDBRANCH   1   9
BRANCH   2  24
ATOM     24  O   UNL     1      36.445 -18.335 -23.199  0.00  0.00    -0.453 OA
BRANCH  24  26
ATOM     25  N   UNL     1      34.210 -14.827 -23.615  0.00  0.00    -0.239 NA
ATOM     26  C   UNL     1      35.706 -17.172 -23.338  0.00  0.00    +0.149 C 
ATOM     27  C   UNL     1      35.213 -16.802 -24.584  0.00  0.00    +0.061 C 
ATOM     28  C   UNL     1      34.477 -15.631 -24.669  0.00  0.00    +0.137 C 
ATOM     29  C   UNL     1      35.451 -16.372 -22.230  0.00  0.00    +0.058 C 
ATOM     30  C   UNL     1      34.705 -15.220 -22.419  0.00  0.00    +0.102 C 
BRANCH  28  33
ATOM     31  O   UNL     1      33.662 -16.025 -26.832  0.00  0.00    -0.269 OA
ATOM     32  N   UNL     1      33.727 -13.821 -26.113  0.00  0.00    -0.313 N 
ATOM     33  C   UNL     1      33.938 -15.195 -25.946  0.00  0.00    +0.263 C 
ATOM     34  H   UNL     1      33.968 -13.221 -25.371  0.00  0.00    +0.149 HD
ATOM     35  C   UNL     1      33.176 -13.237 -27.313  0.00  0.00    +0.128 C 
ENDBRANCH  28  33
ENDBRANCH  24  26
ENDBRANCH   2  24
TORSDOF 6
ENDMDL
MODEL 5
REMARK VINA RESULT:     -11.5      5.781      9.790
REMARK  Name = 25191001
REMARK  7 active torsions:
REMARK  status: ('A' for Active; 'I' for Inactive)
REMARK    1  A    between atoms: C_1  and  N_9
REMARK    2  A    between atoms: C_2  and  O_24
REMARK    3  A    between atoms: N_8  and  C_14
REMARK    4  A    between atoms: C_15  and  C_23
REMARK    5  A    between atoms: O_24  and  C_26
REMARK    6  A    between atoms: C_28  and  C_33
REMARK    7  A    between atoms: N_32  and  C_35
REMARK                            x       y       z     vdW  Elec       q    Type
REMARK                         _______ _______ _______ _____ _____    ______ ____
ROOT
ATOM      1  C   UNL     1      34.435 -14.314 -24.514  0.00  0.00    +0.052 C 
ATOM      2  C   UNL     1      34.945 -17.053 -24.367  0.00  0.00    +0.145 C 
ATOM      3  C   UNL     1      34.078 -15.148 -25.573  0.00  0.00    +0.018 C 
ATOM      4  C   UNL     1      35.048 -14.849 -23.381  0.00  0.00    +0.018 C 
ATOM      5  C   UNL     1      34.332 -16.517 -25.500  0.00  0.00    +0.039 C 
ATOM      6  C   UNL     1      35.304 -16.219 -23.307  0.00  0.00    +0.039 C 
ENDROOT
BRANCH   1   9
ATOM      7  O   UNL     1      33.157 -12.480 -22.532  0.00  0.00    -0.252 OA
ATOM      8  N   UNL     1      33.503 -10.771 -24.097  0.00  0.00    -0.268 N 
ATOM      9  N   UNL     1      34.178 -12.925 -24.590  0.00  0.00    -0.268 N 
ATOM     10  C   UNL     1      33.571 -12.105 -23.625  0.00  0.00    +0.308 C 
ATOM     11  H   UNL     1      33.876 -10.617 -24.995  0.00  0.00    +0.156 HD
ATOM     12  H   UNL     1      34.459 -12.479 -25.420  0.00  0.00    +0.156 HD
BRANCH   8  14
ATOM     13 CL   UNL     1      31.278  -6.030 -21.359  0.00  0.00    -0.082 Cl
ATOM     14  C   UNL     1      32.980  -9.647 -23.458  0.00  0.00    +0.052 C 
ATOM     15  C   UNL     1      32.395  -7.303 -23.494  0.00  0.00    +0.083 C 
ATOM     16  C   UNL     1      32.919  -8.427 -24.133  0.00  0.00    +0.019 C 
ATOM     17  C   UNL     1      32.518  -9.743 -22.146  0.00  0.00    +0.016 C 
ATOM     18  C   UNL     1      31.932  -7.398 -22.181  0.00  0.00    +0.062 C 
ATOM     19  C   UNL     1      31.994  -8.619 -21.507  0.00  0.00    +0.013 C 
BRANCH  15  23
ATOM     20  F   UNL     1      32.564  -6.161 -25.589  0.00  0.00    -0.166 F 
ATOM     21  F   UNL     1      31.148  -5.370 -24.149  0.00  0.00    -0.166 F 
ATOM     22  F   UNL     1      33.283  -5.122 -23.820  0.00  0.00    -0.166 F 
ATOM     23  C   UNL     1      32.347  -6.015 -24.250  0.00  0.00    +0.419 C 
ENDBRANCH  15  23
ENDBRANCH   8  14
ENDBRANCH   1   9
BRANCH   2  24
ATOM     24  O   UNL     1      35.197 -18.389 -24.295  0.00  0.00    -0.453 OA
BRANCH  24  26
ATOM     25  N   UNL     1      36.237 -19.976 -20.571  0.00  0.00    -0.239 NA
ATOM     26  C   UNL     1      35.540 -18.914 -23.061  0.00  0.00    +0.149 C 
ATOM     27  C   UNL     1      34.609 -19.639 -22.326  0.00  0.00    +0.061 C 
ATOM     28  C   UNL     1      35.003 -20.145 -21.098  0.00  0.00    +0.137 C 
ATOM     29  C   UNL     1      36.820 -18.719 -22.553  0.00  0.00    +0.058 C 
ATOM     30  C   UNL     1      37.116 -19.265 -21.314  0.00  0.00    +0.102 C 
BRANCH  28  33
ATOM     31  O   UNL     1      32.853 -20.659 -20.318  0.00  0.00    -0.269 OA
ATOM     32  N   UNL     1      34.607 -21.941 -19.504  0.00  0.00    -0.313 N 
ATOM     33  C   UNL     1      34.072 -20.910 -20.287  0.00  0.00    +0.263 C 
ATOM     34  H   UNL     1      35.580 -22.085 -19.527  0.00  0.00    +0.149 HD
ATOM     35  C   UNL     1      33.808 -22.804 -18.665  0.00  0.00    +0.128 C 
ENDBRANCH  28  33
ENDBRANCH  24  26
ENDBRANCH   2  24
TORSDOF 6
ENDMDL
MODEL 6
REMARK VINA RESULT:     -11.5      5.411     11.834
REMARK  Name = 25191001
REMARK  7 active torsions:
REMARK  status: ('A' for Active; 'I' for Inactive)
REMARK    1  A    between atoms: C_1  and  N_9
REMARK    2  A    between atoms: C_2  and  O_24
REMARK    3  A    between atoms: N_8  and  C_14
REMARK    4  A    between atoms: C_15  and  C_23
REMARK    5  A    between atoms: O_24  and  C_26
REMARK    6  A    between atoms: C_28  and  C_33
REMARK    7  A    between atoms: N_32  and  C_35
REMARK                            x       y       z     vdW  Elec       q    Type
REMARK                         _______ _______ _______ _____ _____    ______ ____
ROOT
ATOM      1  C   UNL     1      35.337 -18.929 -23.259  0.00  0.00    +0.052 C 
ATOM      2  C   UNL     1      34.533 -17.285 -25.365  0.00  0.00    +0.145 C 
ATOM      3  C   UNL     1      35.716 -17.587 -23.280  0.00  0.00    +0.018 C 
ATOM      4  C   UNL     1      34.557 -19.450 -24.292  0.00  0.00    +0.018 C 
ATOM      5  C   UNL     1      35.313 -16.764 -24.332  0.00  0.00    +0.039 C 
ATOM      6  C   UNL     1      34.155 -18.627 -25.345  0.00  0.00    +0.039 C 
ENDROOT
BRANCH   1   9
ATOM      7  O   UNL     1      33.744 -20.150 -21.047  0.00  0.00    -0.252 OA
ATOM      8  N   UNL     1      35.756 -21.091 -20.303  0.00  0.00    -0.268 N 
ATOM      9  N   UNL     1      35.747 -19.763 -22.193  0.00  0.00    -0.268 N 
ATOM     10  C   UNL     1      34.954 -20.314 -21.173  0.00  0.00    +0.308 C 
ATOM     11  H   UNL     1      36.714 -21.132 -20.528  0.00  0.00    +0.156 HD
ATOM     12  H   UNL     1      36.705 -19.985 -22.162  0.00  0.00    +0.156 HD
BRANCH   8  14
ATOM     13 CL   UNL     1      34.084 -24.126 -15.515  0.00  0.00    -0.082 Cl
ATOM     14  C   UNL     1      35.370 -21.807 -19.169  0.00  0.00    +0.052 C 
ATOM     15  C   UNL     1      35.897 -22.739 -17.003  0.00  0.00    +0.083 C 
ATOM     16  C   UNL     1      36.284 -22.024 -18.137  0.00  0.00    +0.019 C 
ATOM     17  C   UNL     1      34.072 -22.305 -19.068  0.00  0.00    +0.016 C 
ATOM     18  C   UNL     1      34.598 -23.237 -16.901  0.00  0.00    +0.062 C 
ATOM     19  C   UNL     1      33.685 -23.020 -17.935  0.00  0.00    +0.013 C 
BRANCH  15  23
ATOM     20  F   UNL     1      36.445 -22.622 -14.677  0.00  0.00    -0.166 F 
ATOM     21  F   UNL     1      37.328 -24.243 -15.815  0.00  0.00    -0.166 F 
ATOM     22  F   UNL     1      38.032 -22.206 -16.103  0.00  0.00    -0.166 F 
ATOM     23  C   UNL     1      36.905 -22.950 -15.919  0.00  0.00    +0.419 C 
ENDBRANCH  15  23
ENDBRANCH   8  14
ENDBRANCH   1   9
BRANCH   2  24
ATOM     24  O   UNL     1      34.142 -16.483 -26.393  0.00  0.00    -0.453 OA
BRANCH  24  26
ATOM     25  N   UNL     1      33.550 -12.426 -25.580  0.00  0.00    -0.239 NA
ATOM     26  C   UNL     1      33.945 -15.140 -26.123  0.00  0.00    +0.149 C 
ATOM     27  C   UNL     1      33.698 -14.717 -24.822  0.00  0.00    +0.061 C 
ATOM     28  C   UNL     1      33.509 -13.362 -24.605  0.00  0.00    +0.137 C 
ATOM     29  C   UNL     1      33.996 -14.207 -27.154  0.00  0.00    +0.058 C 
ATOM     30  C   UNL     1      33.793 -12.874 -26.833  0.00  0.00    +0.102 C 
BRANCH  28  33
ATOM     31  O   UNL     1      33.070 -11.647 -23.067  0.00  0.00    -0.269 OA
ATOM     32  N   UNL     1      33.180 -13.809 -22.235  0.00  0.00    -0.313 N 
ATOM     33  C   UNL     1      33.246 -12.864 -23.265  0.00  0.00    +0.263 C 
ATOM     34  H   UNL     1      33.330 -14.755 -22.462  0.00  0.00    +0.149 HD
ATOM     35  C   UNL     1      32.904 -13.474 -20.858  0.00  0.00    +0.128 C 
ENDBRANCH  28  33
ENDBRANCH  24  26
ENDBRANCH   2  24
TORSDOF 6
ENDMDL
MODEL 7
REMARK VINA RESULT:     -11.5      5.497     11.560
REMARK  Name = 25191001
REMARK  7 active torsions:
REMARK  status: ('A' for Active; 'I' for Inactive)
REMARK    1  A    between atoms: C_1  and  N_9
REMARK    2  A    between atoms: C_2  and  O_24
REMARK    3  A    between atoms: N_8  and  C_14
REMARK    4  A    between atoms: C_15  and  C_23
REMARK    5  A    between atoms: O_24  and  C_26
REMARK    6  A    between atoms: C_28  and  C_33
REMARK    7  A    between atoms: N_32  and  C_35
REMARK                            x       y       z     vdW  Elec       q    Type
REMARK                         _______ _______ _______ _____ _____    ______ ____
ROOT
ATOM      1  C   UNL     1      35.646 -20.798 -20.321  0.00  0.00    +0.052 C 
ATOM      2  C   UNL     1      36.104 -19.137 -22.516  0.00  0.00    +0.145 C 
ATOM      3  C   UNL     1      34.638 -20.594 -21.264  0.00  0.00    +0.018 C 
ATOM      4  C   UNL     1      36.882 -20.171 -20.475  0.00  0.00    +0.018 C 
ATOM      5  C   UNL     1      34.867 -19.765 -22.362  0.00  0.00    +0.039 C 
ATOM      6  C   UNL     1      37.112 -19.340 -21.573  0.00  0.00    +0.039 C 
ENDROOT
BRANCH   1   9
ATOM      7  O   UNL     1      33.085 -21.566 -18.990  0.00  0.00    -0.252 OA
ATOM      8  N   UNL     1      34.391 -22.840 -17.520  0.00  0.00    -0.268 N 
ATOM      9  N   UNL     1      35.413 -21.638 -19.207  0.00  0.00    -0.268 N 
ATOM     10  C   UNL     1      34.183 -21.968 -18.617  0.00  0.00    +0.308 C 
ATOM     11  H   UNL     1      35.328 -23.079 -17.337  0.00  0.00    +0.156 HD
ATOM     12  H   UNL     1      36.211 -22.040 -18.795  0.00  0.00    +0.156 HD
BRANCH   8  14
ATOM     13 CL   UNL     1      30.410 -25.254 -13.879  0.00  0.00    -0.082 Cl
ATOM     14  C   UNL     1      33.444 -23.406 -16.665  0.00  0.00    +0.052 C 
ATOM     15  C   UNL     1      31.138 -23.773 -16.048  0.00  0.00    +0.083 C 
ATOM     16  C   UNL     1      32.084 -23.207 -16.902  0.00  0.00    +0.019 C 
ATOM     17  C   UNL     1      33.858 -24.170 -15.575  0.00  0.00    +0.016 C 
ATOM     18  C   UNL     1      31.551 -24.538 -14.957  0.00  0.00    +0.062 C 
ATOM     19  C   UNL     1      32.913 -24.736 -14.720  0.00  0.00    +0.013 C 
BRANCH  15  23
ATOM     20  F   UNL     1      29.025 -22.922 -15.315  0.00  0.00    -0.166 F 
ATOM     21  F   UNL     1      29.475 -22.750 -17.429  0.00  0.00    -0.166 F 
ATOM     22  F   UNL     1      29.011 -24.695 -16.574  0.00  0.00    -0.166 F 
ATOM     23  C   UNL     1      29.690 -23.537 -16.335  0.00  0.00    +0.419 C 
ENDBRANCH  15  23
ENDBRANCH   8  14
ENDBRANCH   1   9
BRANCH   2  24
ATOM     24  O   UNL     1      36.327 -18.326 -23.586  0.00  0.00    -0.453 OA
BRANCH  24  26
ATOM     25  N   UNL     1      34.217 -14.721 -23.758  0.00  0.00    -0.239 NA
ATOM     26  C   UNL     1      35.629 -17.131 -23.644  0.00  0.00    +0.149 C 
ATOM     27  C   UNL     1      35.131 -16.671 -24.858  0.00  0.00    +0.061 C 
ATOM     28  C   UNL     1      34.439 -15.471 -24.862  0.00  0.00    +0.137 C 
ATOM     29  C   UNL     1      35.421 -16.389 -22.487  0.00  0.00    +0.058 C 
ATOM     30  C   UNL     1      34.716 -15.200 -22.596  0.00  0.00    +0.102 C 
BRANCH  28  33
ATOM     31  O   UNL     1      33.627 -15.703 -27.049  0.00  0.00    -0.269 OA
ATOM     32  N   UNL     1      33.676 -13.560 -26.162  0.00  0.00    -0.313 N 
ATOM     33  C   UNL     1      33.897 -14.942 -26.101  0.00  0.00    +0.263 C 
ATOM     34  H   UNL     1      33.912 -13.017 -25.376  0.00  0.00    +0.149 HD
ATOM     35  C   UNL     1      33.121 -12.889 -27.314  0.00  0.00    +0.128 C 
ENDBRANCH  28  33
ENDBRANCH  24  26
ENDBRANCH   2  24
TORSDOF 6
ENDMDL
MODEL 8
REMARK VINA RESULT:     -11.4      4.861      8.032
REMARK  Name = 25191001
REMARK  7 active torsions:
REMARK  status: ('A' for Active; 'I' for Inactive)
REMARK    1  A    between atoms: C_1  and  N_9
REMARK    2  A    between atoms: C_2  and  O_24
REMARK    3  A    between atoms: N_8  and  C_14
REMARK    4  A    between atoms: C_15  and  C_23
REMARK    5  A    between atoms: O_24  and  C_26
REMARK    6  A    between atoms: C_28  and  C_33
REMARK    7  A    between atoms: N_32  and  C_35
REMARK                            x       y       z     vdW  Elec       q    Type
REMARK                         _______ _______ _______ _____ _____    ______ ____
ROOT
ATOM      1  C   UNL     1      34.980 -15.703 -23.541  0.00  0.00    +0.052 C 
ATOM      2  C   UNL     1      35.688 -18.299 -22.803  0.00  0.00    +0.145 C 
ATOM      3  C   UNL     1      35.295 -15.989 -22.213  0.00  0.00    +0.018 C 
ATOM      4  C   UNL     1      35.018 -16.715 -24.500  0.00  0.00    +0.018 C 
ATOM      5  C   UNL     1      35.650 -17.286 -21.844  0.00  0.00    +0.039 C 
ATOM      6  C   UNL     1      35.372 -18.013 -24.131  0.00  0.00    +0.039 C 
ENDROOT
BRANCH   1   9
ATOM      7  O   UNL     1      33.782 -13.499 -21.920  0.00  0.00    -0.252 OA
ATOM      8  N   UNL     1      33.848 -12.210 -23.875  0.00  0.00    -0.268 N 
ATOM      9  N   UNL     1      34.619 -14.387 -23.915  0.00  0.00    -0.268 N 
ATOM     10  C   UNL     1      34.056 -13.384 -23.110  0.00  0.00    +0.308 C 
ATOM     11  H   UNL     1      34.117 -12.264 -24.821  0.00  0.00    +0.156 HD
ATOM     12  H   UNL     1      34.784 -14.145 -24.855  0.00  0.00    +0.156 HD
BRANCH   8  14
ATOM     13 CL   UNL     1      31.555  -7.051 -22.125  0.00  0.00    -0.082 Cl
ATOM     14  C   UNL     1      33.313 -10.988 -23.466  0.00  0.00    +0.052 C 
ATOM     15  C   UNL     1      33.379  -8.573 -23.461  0.00  0.00    +0.083 C 
ATOM     16  C   UNL     1      33.913  -9.795 -23.870  0.00  0.00    +0.019 C 
ATOM     17  C   UNL     1      32.180 -10.959 -22.654  0.00  0.00    +0.016 C 
ATOM     18  C   UNL     1      32.244  -8.544 -22.650  0.00  0.00    +0.062 C 
ATOM     19  C   UNL     1      31.645  -9.738 -22.246  0.00  0.00    +0.013 C 
BRANCH  15  23
ATOM     20  F   UNL     1      33.225  -6.477 -24.604  0.00  0.00    -0.166 F 
ATOM     21  F   UNL     1      34.551  -6.567 -22.891  0.00  0.00    -0.166 F 
ATOM     22  F   UNL     1      35.105  -7.560 -24.744  0.00  0.00    -0.166 F 
ATOM     23  C   UNL     1      34.050  -7.317 -23.915  0.00  0.00    +0.419 C 
ENDBRANCH  15  23
ENDBRANCH   8  14
ENDBRANCH   1   9
BRANCH   2  24
ATOM     24  O   UNL     1      36.031 -19.566 -22.442  0.00  0.00    -0.453 OA
BRANCH  24  26
ATOM     25  N   UNL     1      33.731 -21.433 -19.493  0.00  0.00    -0.239 NA
ATOM     26  C   UNL     1      35.270 -20.186 -21.466  0.00  0.00    +0.149 C 
ATOM     27  C   UNL     1      35.890 -20.860 -20.420  0.00  0.00    +0.061 C 
ATOM     28  C   UNL     1      35.083 -21.462 -19.467  0.00  0.00    +0.137 C 
ATOM     29  C   UNL     1      33.882 -20.133 -21.526  0.00  0.00    +0.058 C 
ATOM     30  C   UNL     1      33.164 -20.768 -20.525  0.00  0.00    +0.102 C 
BRANCH  28  33
ATOM     31  O   UNL     1      35.075 -23.134 -17.824  0.00  0.00    -0.269 OA
ATOM     32  N   UNL     1      36.946 -21.767 -17.931  0.00  0.00    -0.313 N 
ATOM     33  C   UNL     1      35.676 -22.181 -18.353  0.00  0.00    +0.263 C 
ATOM     34  H   UNL     1      37.364 -21.005 -18.393  0.00  0.00    +0.149 HD
ATOM     35  C   UNL     1      37.675 -22.396 -16.854  0.00  0.00    +0.128 C 
ENDBRANCH  28  33
ENDBRANCH  24  26
ENDBRANCH   2  24
TORSDOF 6
ENDMDL
MODEL 9
REMARK VINA RESULT:     -11.4      5.267     11.171
REMARK  Name = 25191001
REMARK  7 active torsions:
REMARK  status: ('A' for Active; 'I' for Inactive)
REMARK    1  A    between atoms: C_1  and  N_9
REMARK    2  A    between atoms: C_2  and  O_24
REMARK    3  A    between atoms: N_8  and  C_14
REMARK    4  A    between atoms: C_15  and  C_23
REMARK    5  A    between atoms: O_24  and  C_26
REMARK    6  A    between atoms: C_28  and  C_33
REMARK    7  A    between atoms: N_32  and  C_35
REMARK                            x       y       z     vdW  Elec       q    Type
REMARK                         _______ _______ _______ _____ _____    ______ ____
ROOT
ATOM      1  C   UNL     1      35.969 -20.304 -20.802  0.00  0.00    +0.052 C 
ATOM      2  C   UNL     1      35.992 -18.721 -23.100  0.00  0.00    +0.145 C 
ATOM      3  C   UNL     1      37.086 -19.524 -21.101  0.00  0.00    +0.018 C 
ATOM      4  C   UNL     1      34.863 -20.292 -21.652  0.00  0.00    +0.018 C 
ATOM      5  C   UNL     1      37.098 -18.733 -22.250  0.00  0.00    +0.039 C 
ATOM      6  C   UNL     1      34.874 -19.501 -22.802  0.00  0.00    +0.039 C 
ENDROOT
BRANCH   1   9
ATOM      7  O   UNL     1      33.675 -21.488 -19.300  0.00  0.00    -0.252 OA
ATOM      8  N   UNL     1      35.273 -22.389 -17.843  0.00  0.00    -0.268 N 
ATOM      9  N   UNL     1      35.958 -21.107 -19.638  0.00  0.00    -0.268 N 
ATOM     10  C   UNL     1      34.846 -21.641 -18.967  0.00  0.00    +0.308 C 
ATOM     11  H   UNL     1      36.246 -22.425 -17.699  0.00  0.00    +0.156 HD
ATOM     12  H   UNL     1      36.838 -21.318 -19.251  0.00  0.00    +0.156 HD
BRANCH   8  14
ATOM     13 CL   UNL     1      32.020 -25.338 -13.886  0.00  0.00    -0.082 Cl
ATOM     14  C   UNL     1      34.497 -23.081 -16.912  0.00  0.00    +0.052 C 
ATOM     15  C   UNL     1      32.333 -23.647 -16.000  0.00  0.00    +0.083 C 
ATOM     16  C   UNL     1      33.108 -22.955 -16.930  0.00  0.00    +0.019 C 
ATOM     17  C   UNL     1      35.111 -23.900 -15.965  0.00  0.00    +0.016 C 
ATOM     18  C   UNL     1      32.946 -24.467 -15.052  0.00  0.00    +0.062 C 
ATOM     19  C   UNL     1      34.336 -24.592 -15.034  0.00  0.00    +0.013 C 
BRANCH  15  23
ATOM     20  F   UNL     1      30.178 -24.660 -16.236  0.00  0.00    -0.166 F 
ATOM     21  F   UNL     1      30.319 -22.946 -14.916  0.00  0.00    -0.166 F 
ATOM     22  F   UNL     1      30.448 -22.670 -17.069  0.00  0.00    -0.166 F 
ATOM     23  C   UNL     1      30.848 -23.486 -16.053  0.00  0.00    +0.419 C 
ENDBRANCH  15  23
ENDBRANCH   8  14
ENDBRANCH   1   9
BRANCH   2  24
ATOM     24  O   UNL     1      36.004 -17.951 -24.222  0.00  0.00    -0.453 OA
BRANCH  24  26
ATOM     25  N   UNL     1      33.744 -14.434 -24.193  0.00  0.00    -0.239 NA
ATOM     26  C   UNL     1      35.255 -16.787 -24.211  0.00  0.00    +0.149 C 
ATOM     27  C   UNL     1      35.062 -16.090 -23.024  0.00  0.00    +0.061 C 
ATOM     28  C   UNL     1      34.306 -14.930 -23.067  0.00  0.00    +0.137 C 
ATOM     29  C   UNL     1      34.694 -16.308 -25.390  0.00  0.00    +0.058 C 
ATOM     30  C   UNL     1      33.953 -15.138 -25.329  0.00  0.00    +0.102 C 
BRANCH  28  33
ATOM     31  O   UNL     1      34.966 -14.047 -20.998  0.00  0.00    -0.269 OA
ATOM     32  N   UNL     1      32.819 -13.550 -21.722  0.00  0.00    -0.313 N 
ATOM     33  C   UNL     1      34.071 -14.162 -21.856  0.00  0.00    +0.263 C 
ATOM     34  H   UNL     1      32.158 -13.683 -22.439  0.00  0.00    +0.149 HD
ATOM     35  C   UNL     1      32.444 -12.736 -20.589  0.00  0.00    +0.128 C 
ENDBRANCH  28  33
ENDBRANCH  24  26
ENDBRANCH   2  24
TORSDOF 6
ENDMDL
