MODEL 1
REMARK VINA RESULT:     -11.5      0.000      0.000
REMARK  Name = 6852168
REMARK  5 active torsions:
REMARK  status: ('A' for Active; 'I' for Inactive)
REMARK    1  A    between atoms: N_1  and  C_5
REMARK    2  A    between atoms: N_1  and  S_19
REMARK    3  A    between atoms: N_4  and  C_9
REMARK    4  A    between atoms: C_9  and  C_14
REMARK    5  A    between atoms: S_19  and  C_23
REMARK                            x       y       z     vdW  Elec       q    Type
REMARK                         _______ _______ _______ _____ _____    ______ ____
ROOT
ATOM      1  N   UNL     1      34.961 -17.447 -22.982  0.00  0.00    -0.172 NA
ATOM      2  H   UNL     1      34.755 -17.299 -21.994  0.00  0.00    +0.149 HD
ENDROOT
BRANCH   1   5
ATOM      3  O   UNL     1      35.093 -14.758 -21.580  0.00  0.00    -0.273 OA
ATOM      4  N   UNL     1      33.890 -14.523 -23.589  0.00  0.00    -0.272 N 
ATOM      5  C   UNL     1      35.527 -16.185 -23.490  0.00  0.00    +0.153 C 
ATOM      6  C   UNL     1      35.133 -15.946 -24.944  0.00  0.00    +0.048 C 
ATOM      7  C   UNL     1      33.809 -15.210 -24.857  0.00  0.00    +0.096 C 
ATOM      8  C   UNL     1      34.850 -15.068 -22.738  0.00  0.00    +0.242 C 
BRANCH   4   9
ATOM      9  C   UNL     1      32.944 -13.490 -23.228  0.00  0.00    +0.152 C 
ATOM     10  C   UNL     1      32.674 -13.449 -21.742  0.00  0.00    +0.031 C 
BRANCH   9  14
ATOM     11  O   UNL     1      31.672  -8.630 -22.719  0.00  0.00    -0.350 OA
ATOM     12  O   UNL     1      34.520 -12.259 -24.501  0.00  0.00    -0.273 OA
ATOM     13  N   UNL     1      33.088 -11.027 -23.152  0.00  0.00    -0.273 N 
ATOM     14  C   UNL     1      33.594 -12.209 -23.687  0.00  0.00    +0.244 C 
ATOM     15  C   UNL     1      32.078 -10.938 -22.092  0.00  0.00    +0.126 C 
ATOM     16  C   UNL     1      33.658  -9.740 -23.548  0.00  0.00    +0.126 C 
ATOM     17  C   UNL     1      31.038  -9.881 -22.442  0.00  0.00    +0.164 C 
ATOM     18  C   UNL     1      32.551  -8.738 -23.842  0.00  0.00    +0.164 C 
ENDBRANCH   9  14
ENDBRANCH   4   9
ENDBRANCH   1   5
BRANCH   1  19
ATOM     19  S   UNL     1      35.859 -18.890 -23.085  0.00  0.00    +0.061 S 
ATOM     20  O   UNL     1      37.238 -18.622 -22.723  0.00  0.00    -0.153 OA
ATOM     21  O   UNL     1      35.550 -19.551 -24.339  0.00  0.00    -0.153 OA
BRANCH  19  23
ATOM     22 CL   UNL     1      33.541 -23.728 -16.536  0.00  0.00    -0.082 Cl
ATOM     23  C   UNL     1      35.135 -19.860 -21.798  0.00  0.00    +0.122 C 
ATOM     24  C   UNL     1      35.958 -20.466 -20.864  0.00  0.00    +0.020 C 
ATOM     25  C   UNL     1      33.762 -19.998 -21.750  0.00  0.00    +0.020 C 
ATOM     26  C   UNL     1      35.398 -21.240 -19.835  0.00  0.00    +0.001 C 
ATOM     27  C   UNL     1      33.992 -21.391 -19.768  0.00  0.00    +0.001 C 
ATOM     28  C   UNL     1      33.188 -20.763 -20.734  0.00  0.00    +0.001 C 
ATOM     29  C   UNL     1      36.202 -21.867 -18.869  0.00  0.00    +0.001 C 
ATOM     30  C   UNL     1      33.432 -22.166 -18.740  0.00  0.00    +0.011 C 
ATOM     31  C   UNL     1      35.628 -22.633 -17.854  0.00  0.00    +0.011 C 
ATOM     32  C   UNL     1      34.246 -22.782 -17.790  0.00  0.00    +0.058 C 
ENDBRANCH  19  23
ENDBRANCH   1  19
TORSDOF 5
ENDMDL
MODEL 2
REMARK VINA RESULT:     -11.2      1.310      1.891
REMARK  Name = 6852168
REMARK  5 active torsions:
REMARK  status: ('A' for Active; 'I' for Inactive)
REMARK    1  A    between atoms: N_1  and  C_5
REMARK    2  A    between atoms: N_1  and  S_19
REMARK    3  A    between atoms: N_4  and  C_9
REMARK    4  A    between atoms: C_9  and  C_14
REMARK    5  A    between atoms: S_19  and  C_23
REMARK                            x       y       z     vdW  Elec       q    Type
REMARK                         _______ _______ _______ _____ _____    ______ ____
ROOT
ATOM      1  N   UNL     1      36.264 -16.921 -22.184  0.00  0.00    -0.172 NA
ATOM      2  H   UNL     1      36.704 -16.238 -22.801  0.00  0.00    +0.149 HD
ENDROOT
BRANCH   1   5
ATOM      3  O   UNL     1      34.384 -16.010 -24.386  0.00  0.00    -0.273 OA
ATOM      4  N   UNL     1      34.532 -14.324 -22.751  0.00  0.00    -0.272 N 
ATOM      5  C   UNL     1      34.847 -16.534 -22.065  0.00  0.00    +0.153 C 
ATOM      6  C   UNL     1      34.612 -15.652 -20.844  0.00  0.00    +0.048 C 
ATOM      7  C   UNL     1      34.861 -14.242 -21.347  0.00  0.00    +0.096 C 
ATOM      8  C   UNL     1      34.541 -15.631 -23.234  0.00  0.00    +0.242 C 
BRANCH   4   9
ATOM      9  C   UNL     1      34.376 -13.135 -23.561  0.00  0.00    +0.152 C 
ATOM     10  C   UNL     1      34.110 -13.458 -25.012  0.00  0.00    +0.031 C 
BRANCH   9  14
ATOM     11  O   UNL     1      33.169  -8.247 -23.184  0.00  0.00    -0.350 OA
ATOM     12  O   UNL     1      32.420 -13.040 -22.224  0.00  0.00    -0.273 OA
ATOM     13  N   UNL     1      33.074 -11.062 -23.248  0.00  0.00    -0.273 N 
ATOM     14  C   UNL     1      33.200 -12.416 -22.949  0.00  0.00    +0.244 C 
ATOM     15  C   UNL     1      33.905 -10.322 -24.204  0.00  0.00    +0.126 C 
ATOM     16  C   UNL     1      31.964 -10.288 -22.693  0.00  0.00    +0.126 C 
ATOM     17  C   UNL     1      34.319  -8.980 -23.613  0.00  0.00    +0.164 C 
ATOM     18  C   UNL     1      32.462  -8.952 -22.161  0.00  0.00    +0.164 C 
ENDBRANCH   9  14
ENDBRANCH   4   9
ENDBRANCH   1   5
BRANCH   1  19
ATOM     19  S   UNL     1      36.682 -18.461 -22.779  0.00  0.00    +0.061 S 
ATOM     20  O   UNL     1      38.094 -18.696 -22.545  0.00  0.00    -0.153 OA
ATOM     21  O   UNL     1      36.127 -18.621 -24.110  0.00  0.00    -0.153 OA
BRANCH  19  23
ATOM     22 CL   UNL     1      33.365 -23.771 -17.081  0.00  0.00    -0.082 Cl
ATOM     23  C   UNL     1      35.766 -19.524 -21.706  0.00  0.00    +0.122 C 
ATOM     24  C   UNL     1      36.429 -20.196 -20.693  0.00  0.00    +0.020 C 
ATOM     25  C   UNL     1      34.406 -19.667 -21.899  0.00  0.00    +0.020 C 
ATOM     26  C   UNL     1      35.714 -21.045 -19.832  0.00  0.00    +0.001 C 
ATOM     27  C   UNL     1      34.320 -21.202 -20.014  0.00  0.00    +0.001 C 
ATOM     28  C   UNL     1      33.681 -20.505 -21.053  0.00  0.00    +0.001 C 
ATOM     29  C   UNL     1      36.354 -21.740 -18.793  0.00  0.00    +0.001 C 
ATOM     30  C   UNL     1      33.606 -22.051 -19.153  0.00  0.00    +0.011 C 
ATOM     31  C   UNL     1      35.629 -22.580 -17.946  0.00  0.00    +0.011 C 
ATOM     32  C   UNL     1      34.258 -22.735 -18.127  0.00  0.00    +0.058 C 
ENDBRANCH  19  23
ENDBRANCH   1  19
TORSDOF 5
ENDMDL
MODEL 3
REMARK VINA RESULT:     -11.1      7.201     12.143
REMARK  Name = 6852168
REMARK  5 active torsions:
REMARK  status: ('A' for Active; 'I' for Inactive)
REMARK    1  A    between atoms: N_1  and  C_5
REMARK    2  A    between atoms: N_1  and  S_19
REMARK    3  A    between atoms: N_4  and  C_9
REMARK    4  A    between atoms: C_9  and  C_14
REMARK    5  A    between atoms: S_19  and  C_23
REMARK                            x       y       z     vdW  Elec       q    Type
REMARK                         _______ _______ _______ _____ _____    ______ ____
ROOT
ATOM      1  N   UNL     1      35.438 -23.101 -17.521  0.00  0.00    -0.172 NA
ATOM      2  H   UNL     1      35.942 -22.284 -17.863  0.00  0.00    +0.149 HD
ENDROOT
BRANCH   1   5
ATOM      3  O   UNL     1      37.807 -23.673 -15.711  0.00  0.00    -0.273 OA
ATOM      4  N   UNL     1      36.046 -25.134 -15.162  0.00  0.00    -0.272 N 
ATOM      5  C   UNL     1      35.490 -23.046 -16.049  0.00  0.00    +0.153 C 
ATOM      6  C   UNL     1      34.251 -23.680 -15.426  0.00  0.00    +0.048 C 
ATOM      7  C   UNL     1      34.607 -25.149 -15.293  0.00  0.00    +0.096 C 
ATOM      8  C   UNL     1      36.619 -23.948 -15.618  0.00  0.00    +0.242 C 
BRANCH   4   9
ATOM      9  C   UNL     1      36.778 -26.311 -14.748  0.00  0.00    +0.152 C 
ATOM     10  C   UNL     1      37.209 -27.163 -15.919  0.00  0.00    +0.031 C 
BRANCH   9  14
ATOM     11  O   UNL     1      37.262 -23.100 -10.881  0.00  0.00    -0.350 OA
ATOM     12  O   UNL     1      39.106 -25.938 -14.487  0.00  0.00    -0.273 OA
ATOM     13  N   UNL     1      37.726 -25.084 -12.827  0.00  0.00    -0.273 N 
ATOM     14  C   UNL     1      37.978 -25.766 -14.015  0.00  0.00    +0.244 C 
ATOM     15  C   UNL     1      36.417 -24.972 -12.174  0.00  0.00    +0.126 C 
ATOM     16  C   UNL     1      38.833 -24.519 -12.056  0.00  0.00    +0.126 C 
ATOM     17  C   UNL     1      36.182 -23.540 -11.709  0.00  0.00    +0.164 C 
ATOM     18  C   UNL     1      38.497 -23.106 -11.602  0.00  0.00    +0.164 C 
ENDBRANCH   9  14
ENDBRANCH   4   9
ENDBRANCH   1   5
BRANCH   1  19
ATOM     19  S   UNL     1      33.936 -23.122 -18.322  0.00  0.00    +0.061 S 
ATOM     20  O   UNL     1      32.896 -22.708 -17.400  0.00  0.00    -0.153 OA
ATOM     21  O   UNL     1      33.807 -24.368 -19.054  0.00  0.00    -0.153 OA
BRANCH  19  23
ATOM     22 CL   UNL     1      36.139 -17.049 -23.793  0.00  0.00    -0.082 Cl
ATOM     23  C   UNL     1      34.146 -21.840 -19.519  0.00  0.00    +0.122 C 
ATOM     24  C   UNL     1      35.418 -21.357 -19.776  0.00  0.00    +0.020 C 
ATOM     25  C   UNL     1      33.037 -21.341 -20.174  0.00  0.00    +0.020 C 
ATOM     26  C   UNL     1      35.601 -20.338 -20.725  0.00  0.00    +0.001 C 
ATOM     27  C   UNL     1      34.477 -19.816 -21.407  0.00  0.00    +0.001 C 
ATOM     28  C   UNL     1      33.201 -20.330 -21.120  0.00  0.00    +0.001 C 
ATOM     29  C   UNL     1      36.877 -19.825 -21.012  0.00  0.00    +0.001 C 
ATOM     30  C   UNL     1      34.660 -18.796 -22.355  0.00  0.00    +0.011 C 
ATOM     31  C   UNL     1      37.041 -18.812 -21.957  0.00  0.00    +0.011 C 
ATOM     32  C   UNL     1      35.934 -18.299 -22.627  0.00  0.00    +0.058 C 
ENDBRANCH  19  23
ENDBRANCH   1  19
TORSDOF 5
ENDMDL
MODEL 4
REMARK VINA RESULT:     -11.0      7.314     12.279
REMARK  Name = 6852168
REMARK  5 active torsions:
REMARK  status: ('A' for Active; 'I' for Inactive)
REMARK    1  A    between atoms: N_1  and  C_5
REMARK    2  A    between atoms: N_1  and  S_19
REMARK    3  A    between atoms: N_4  and  C_9
REMARK    4  A    between atoms: C_9  and  C_14
REMARK    5  A    between atoms: S_19  and  C_23
REMARK                            x       y       z     vdW  Elec       q    Type
REMARK                         _______ _______ _______ _____ _____    ______ ____
ROOT
ATOM      1  N   UNL     1      34.943 -23.334 -17.379  0.00  0.00    -0.172 NA
ATOM      2  H   UNL     1      35.722 -22.892 -17.867  0.00  0.00    +0.149 HD
ENDROOT
BRANCH   1   5
ATOM      3  O   UNL     1      37.099 -22.453 -15.432  0.00  0.00    -0.273 OA
ATOM      4  N   UNL     1      35.590 -23.877 -14.321  0.00  0.00    -0.272 N 
ATOM      5  C   UNL     1      34.776 -22.610 -16.106  0.00  0.00    +0.153 C 
ATOM      6  C   UNL     1      33.606 -23.166 -15.302  0.00  0.00    +0.048 C 
ATOM      7  C   UNL     1      34.214 -24.287 -14.480  0.00  0.00    +0.096 C 
ATOM      8  C   UNL     1      35.984 -22.927 -15.262  0.00  0.00    +0.242 C 
BRANCH   4   9
ATOM      9  C   UNL     1      36.469 -24.531 -13.376  0.00  0.00    +0.152 C 
ATOM     10  C   UNL     1      35.727 -25.058 -12.169  0.00  0.00    +0.031 C 
BRANCH   9  14
ATOM     11  O   UNL     1      41.247 -25.698 -14.517  0.00  0.00    -0.350 OA
ATOM     12  O   UNL     1      36.362 -26.394 -14.838  0.00  0.00    -0.273 OA
ATOM     13  N   UNL     1      38.469 -25.804 -14.062  0.00  0.00    -0.273 N 
ATOM     14  C   UNL     1      37.086 -25.662 -14.158  0.00  0.00    +0.244 C 
ATOM     15  C   UNL     1      39.342 -25.036 -13.168  0.00  0.00    +0.126 C 
ATOM     16  C   UNL     1      39.149 -26.873 -14.793  0.00  0.00    +0.126 C 
ATOM     17  C   UNL     1      40.590 -24.580 -13.914  0.00  0.00    +0.164 C 
ATOM     18  C   UNL     1      40.400 -26.337 -15.474  0.00  0.00    +0.164 C 
ENDBRANCH   9  14
ENDBRANCH   4   9
ENDBRANCH   1   5
BRANCH   1  19
ATOM     19  S   UNL     1      33.654 -23.420 -18.488  0.00  0.00    +0.061 S 
ATOM     20  O   UNL     1      32.408 -23.157 -17.794  0.00  0.00    -0.153 OA
ATOM     21  O   UNL     1      33.802 -24.617 -19.294  0.00  0.00    -0.153 OA
BRANCH  19  23
ATOM     22 CL   UNL     1      36.452 -17.008 -23.256  0.00  0.00    -0.082 Cl
ATOM     23  C   UNL     1      33.992 -22.043 -19.543  0.00  0.00    +0.122 C 
ATOM     24  C   UNL     1      35.302 -21.630 -19.716  0.00  0.00    +0.020 C 
ATOM     25  C   UNL     1      32.942 -21.404 -20.173  0.00  0.00    +0.020 C 
ATOM     26  C   UNL     1      35.587 -20.537 -20.552  0.00  0.00    +0.001 C 
ATOM     27  C   UNL     1      34.524 -19.871 -21.207  0.00  0.00    +0.001 C 
ATOM     28  C   UNL     1      33.207 -20.318 -21.007  0.00  0.00    +0.001 C 
ATOM     29  C   UNL     1      36.904 -20.092 -20.752  0.00  0.00    +0.001 C 
ATOM     30  C   UNL     1      34.809 -18.779 -22.041  0.00  0.00    +0.011 C 
ATOM     31  C   UNL     1      37.168 -19.005 -21.585  0.00  0.00    +0.011 C 
ATOM     32  C   UNL     1      36.122 -18.349 -22.229  0.00  0.00    +0.058 C 
ENDBRANCH  19  23
ENDBRANCH   1  19
TORSDOF 5
ENDMDL
MODEL 5
REMARK VINA RESULT:     -10.6      3.739      6.461
REMARK  Name = 6852168
REMARK  5 active torsions:
REMARK  status: ('A' for Active; 'I' for Inactive)
REMARK    1  A    between atoms: N_1  and  C_5
REMARK    2  A    between atoms: N_1  and  S_19
REMARK    3  A    between atoms: N_4  and  C_9
REMARK    4  A    between atoms: C_9  and  C_14
REMARK    5  A    between atoms: S_19  and  C_23
REMARK                            x       y       z     vdW  Elec       q    Type
REMARK                         _______ _______ _______ _____ _____    ______ ____
ROOT
ATOM      1  N   UNL     1      34.106 -21.630 -19.059  0.00  0.00    -0.172 NA
ATOM      2  H   UNL     1      35.076 -21.514 -18.764  0.00  0.00    +0.149 HD
ENDROOT
BRANCH   1   5
ATOM      3  O   UNL     1      36.470 -21.249 -20.924  0.00  0.00    -0.273 OA
ATOM      4  N   UNL     1      34.890 -19.552 -21.324  0.00  0.00    -0.272 N 
ATOM      5  C   UNL     1      34.105 -21.604 -20.532  0.00  0.00    +0.153 C 
ATOM      6  C   UNL     1      32.936 -20.787 -21.071  0.00  0.00    +0.048 C 
ATOM      7  C   UNL     1      33.470 -19.368 -21.137  0.00  0.00    +0.096 C 
ATOM      8  C   UNL     1      35.324 -20.824 -20.956  0.00  0.00    +0.242 C 
BRANCH   4   9
ATOM      9  C   UNL     1      35.752 -18.453 -21.701  0.00  0.00    +0.152 C 
ATOM     10  C   UNL     1      37.202 -18.717 -21.371  0.00  0.00    +0.031 C 
BRANCH   9  14
ATOM     11  O   UNL     1      34.203 -14.642 -24.630  0.00  0.00    -0.350 OA
ATOM     12  O   UNL     1      35.589 -19.332 -23.897  0.00  0.00    -0.273 OA
ATOM     13  N   UNL     1      35.352 -17.033 -23.681  0.00  0.00    -0.273 N 
ATOM     14  C   UNL     1      35.560 -18.321 -23.191  0.00  0.00    +0.244 C 
ATOM     15  C   UNL     1      35.437 -15.800 -22.891  0.00  0.00    +0.126 C 
ATOM     16  C   UNL     1      35.152 -16.816 -25.113  0.00  0.00    +0.126 C 
ATOM     17  C   UNL     1      34.268 -14.881 -23.222  0.00  0.00    +0.164 C 
ATOM     18  C   UNL     1      33.992 -15.860 -25.348  0.00  0.00    +0.164 C 
ENDBRANCH   9  14
ENDBRANCH   4   9
ENDBRANCH   1   5
BRANCH   1  19
ATOM     19  S   UNL     1      33.501 -22.988 -18.228  0.00  0.00    +0.061 S 
ATOM     20  O   UNL     1      33.682 -24.170 -19.048  0.00  0.00    -0.153 OA
ATOM     21  O   UNL     1      32.192 -22.668 -17.689  0.00  0.00    -0.153 OA
BRANCH  19  23
ATOM     22 CL   UNL     1      37.883 -24.036 -11.061  0.00  0.00    -0.082 Cl
ATOM     23  C   UNL     1      34.611 -23.099 -16.858  0.00  0.00    +0.122 C 
ATOM     24  C   UNL     1      34.166 -23.656 -15.671  0.00  0.00    +0.020 C 
ATOM     25  C   UNL     1      35.901 -22.625 -16.996  0.00  0.00    +0.020 C 
ATOM     26  C   UNL     1      35.037 -23.752 -14.573  0.00  0.00    +0.001 C 
ATOM     27  C   UNL     1      36.362 -23.273 -14.697  0.00  0.00    +0.001 C 
ATOM     28  C   UNL     1      36.779 -22.712 -15.916  0.00  0.00    +0.001 C 
ATOM     29  C   UNL     1      34.620 -24.313 -13.355  0.00  0.00    +0.001 C 
ATOM     30  C   UNL     1      37.232 -23.367 -13.599  0.00  0.00    +0.011 C 
ATOM     31  C   UNL     1      35.498 -24.400 -12.274  0.00  0.00    +0.011 C 
ATOM     32  C   UNL     1      36.802 -23.928 -12.396  0.00  0.00    +0.058 C 
ENDBRANCH  19  23
ENDBRANCH   1  19
TORSDOF 5
ENDMDL
MODEL 6
REMARK VINA RESULT:     -10.4      4.482     10.406
REMARK  Name = 6852168
REMARK  5 active torsions:
REMARK  status: ('A' for Active; 'I' for Inactive)
REMARK    1  A    between atoms: N_1  and  C_5
REMARK    2  A    between atoms: N_1  and  S_19
REMARK    3  A    between atoms: N_4  and  C_9
REMARK    4  A    between atoms: C_9  and  C_14
REMARK    5  A    between atoms: S_19  and  C_23
REMARK                            x       y       z     vdW  Elec       q    Type
REMARK                         _______ _______ _______ _____ _____    ______ ____
ROOT
ATOM      1  N   UNL     1      35.265 -19.663 -20.831  0.00  0.00    -0.172 NA
ATOM      2  H   UNL     1      34.386 -19.281 -21.180  0.00  0.00    +0.149 HD
ENDROOT
BRANCH   1   5
ATOM      3  O   UNL     1      32.790 -21.352 -20.350  0.00  0.00    -0.273 OA
ATOM      4  N   UNL     1      34.465 -21.985 -18.823  0.00  0.00    -0.272 N 
ATOM      5  C   UNL     1      35.143 -21.131 -20.888  0.00  0.00    +0.153 C 
ATOM      6  C   UNL     1      36.325 -21.813 -20.208  0.00  0.00    +0.048 C 
ATOM      7  C   UNL     1      35.906 -21.925 -18.754  0.00  0.00    +0.096 C 
ATOM      8  C   UNL     1      33.960 -21.503 -20.030  0.00  0.00    +0.242 C 
BRANCH   4   9
ATOM      9  C   UNL     1      33.669 -22.361 -17.675  0.00  0.00    +0.152 C 
ATOM     10  C   UNL     1      32.188 -22.359 -17.976  0.00  0.00    +0.031 C 
BRANCH   9  14
ATOM     11  O   UNL     1      37.003 -24.105 -14.308  0.00  0.00    -0.350 OA
ATOM     12  O   UNL     1      33.851 -24.691 -18.074  0.00  0.00    -0.273 OA
ATOM     13  N   UNL     1      34.897 -23.879 -16.167  0.00  0.00    -0.273 N 
ATOM     14  C   UNL     1      34.141 -23.750 -17.330  0.00  0.00    +0.244 C 
ATOM     15  C   UNL     1      35.153 -22.810 -15.196  0.00  0.00    +0.126 C 
ATOM     16  C   UNL     1      35.400 -25.192 -15.761  0.00  0.00    +0.126 C 
ATOM     17  C   UNL     1      36.620 -22.812 -14.784  0.00  0.00    +0.164 C 
ATOM     18  C   UNL     1      36.856 -25.092 -15.331  0.00  0.00    +0.164 C 
ENDBRANCH   9  14
ENDBRANCH   4   9
ENDBRANCH   1   5
BRANCH   1  19
ATOM     19  S   UNL     1      36.513 -18.877 -21.682  0.00  0.00    +0.061 S 
ATOM     20  O   UNL     1      36.809 -19.620 -22.892  0.00  0.00    -0.153 OA
ATOM     21  O   UNL     1      37.577 -18.538 -20.756  0.00  0.00    -0.153 OA
BRANCH  19  23
ATOM     22 CL   UNL     1      32.461 -11.519 -22.739  0.00  0.00    -0.082 Cl
ATOM     23  C   UNL     1      35.734 -17.361 -22.149  0.00  0.00    +0.122 C 
ATOM     24  C   UNL     1      35.084 -16.611 -21.185  0.00  0.00    +0.020 C 
ATOM     25  C   UNL     1      35.787 -16.955 -23.468  0.00  0.00    +0.020 C 
ATOM     26  C   UNL     1      34.459 -15.404 -21.540  0.00  0.00    +0.001 C 
ATOM     27  C   UNL     1      34.504 -14.971 -22.887  0.00  0.00    +0.001 C 
ATOM     28  C   UNL     1      35.173 -15.759 -23.839  0.00  0.00    +0.001 C 
ATOM     29  C   UNL     1      33.792 -14.616 -20.588  0.00  0.00    +0.001 C 
ATOM     30  C   UNL     1      33.880 -13.765 -23.242  0.00  0.00    +0.011 C 
ATOM     31  C   UNL     1      33.177 -13.420 -20.959  0.00  0.00    +0.011 C 
ATOM     32  C   UNL     1      33.221 -12.995 -22.284  0.00  0.00    +0.058 C 
ENDBRANCH  19  23
ENDBRANCH   1  19
TORSDOF 5
ENDMDL
MODEL 7
REMARK VINA RESULT:     -10.4      7.674     12.555
REMARK  Name = 6852168
REMARK  5 active torsions:
REMARK  status: ('A' for Active; 'I' for Inactive)
REMARK    1  A    between atoms: N_1  and  C_5
REMARK    2  A    between atoms: N_1  and  S_19
REMARK    3  A    between atoms: N_4  and  C_9
REMARK    4  A    between atoms: C_9  and  C_14
REMARK    5  A    between atoms: S_19  and  C_23
REMARK                            x       y       z     vdW  Elec       q    Type
REMARK                         _______ _______ _______ _____ _____    ______ ____
ROOT
ATOM      1  N   UNL     1      33.716 -23.394 -15.951  0.00  0.00    -0.172 NA
ATOM      2  H   UNL     1      33.292 -22.654 -15.393  0.00  0.00    +0.149 HD
ENDROOT
BRANCH   1   5
ATOM      3  O   UNL     1      33.402 -23.644 -12.942  0.00  0.00    -0.273 OA
ATOM      4  N   UNL     1      35.398 -24.703 -13.600  0.00  0.00    -0.272 N 
ATOM      5  C   UNL     1      33.647 -24.626 -15.144  0.00  0.00    +0.153 C 
ATOM      6  C   UNL     1      34.683 -25.647 -15.602  0.00  0.00    +0.048 C 
ATOM      7  C   UNL     1      35.927 -25.303 -14.803  0.00  0.00    +0.096 C 
ATOM      8  C   UNL     1      34.085 -24.259 -13.749  0.00  0.00    +0.242 C 
BRANCH   4   9
ATOM      9  C   UNL     1      36.234 -24.467 -12.444  0.00  0.00    +0.152 C 
ATOM     10  C   UNL     1      35.494 -24.682 -11.144  0.00  0.00    +0.031 C 
BRANCH   9  14
ATOM     11  O   UNL     1      40.201 -24.717 -15.558  0.00  0.00    -0.350 OA
ATOM     12  O   UNL     1      37.293 -26.541 -11.997  0.00  0.00    -0.273 OA
ATOM     13  N   UNL     1      38.426 -25.078 -13.399  0.00  0.00    -0.273 N 
ATOM     14  C   UNL     1      37.361 -25.459 -12.587  0.00  0.00    +0.244 C 
ATOM     15  C   UNL     1      38.599 -23.755 -14.010  0.00  0.00    +0.126 C 
ATOM     16  C   UNL     1      39.558 -25.983 -13.596  0.00  0.00    +0.126 C 
ATOM     17  C   UNL     1      39.032 -23.899 -15.464  0.00  0.00    +0.164 C 
ATOM     18  C   UNL     1      39.945 -26.036 -15.067  0.00  0.00    +0.164 C 
ENDBRANCH   9  14
ENDBRANCH   4   9
ENDBRANCH   1   5
BRANCH   1  19
ATOM     19  S   UNL     1      32.980 -23.336 -17.485  0.00  0.00    +0.061 S 
ATOM     20  O   UNL     1      31.762 -22.554 -17.401  0.00  0.00    -0.153 OA
ATOM     21  O   UNL     1      32.952 -24.672 -18.048  0.00  0.00    -0.153 OA
BRANCH  19  23
ATOM     22 CL   UNL     1      37.681 -18.532 -22.633  0.00  0.00    -0.082 Cl
ATOM     23  C   UNL     1      34.161 -22.408 -18.417  0.00  0.00    +0.122 C 
ATOM     24  C   UNL     1      33.728 -21.652 -19.493  0.00  0.00    +0.020 C 
ATOM     25  C   UNL     1      35.493 -22.457 -18.056  0.00  0.00    +0.020 C 
ATOM     26  C   UNL     1      34.654 -20.909 -20.244  0.00  0.00    +0.001 C 
ATOM     27  C   UNL     1      36.023 -20.946 -19.888  0.00  0.00    +0.001 C 
ATOM     28  C   UNL     1      36.426 -21.726 -18.790  0.00  0.00    +0.001 C 
ATOM     29  C   UNL     1      34.251 -20.130 -21.340  0.00  0.00    +0.001 C 
ATOM     30  C   UNL     1      36.949 -20.204 -20.639  0.00  0.00    +0.011 C 
ATOM     31  C   UNL     1      35.185 -19.398 -22.075  0.00  0.00    +0.011 C 
ATOM     32  C   UNL     1      36.531 -19.436 -21.725  0.00  0.00    +0.058 C 
ENDBRANCH  19  23
ENDBRANCH   1  19
TORSDOF 5
ENDMDL
MODEL 8
REMARK VINA RESULT:     -10.4      7.370     10.954
REMARK  Name = 6852168
REMARK  5 active torsions:
REMARK  status: ('A' for Active; 'I' for Inactive)
REMARK    1  A    between atoms: N_1  and  C_5
REMARK    2  A    between atoms: N_1  and  S_19
REMARK    3  A    between atoms: N_4  and  C_9
REMARK    4  A    between atoms: C_9  and  C_14
REMARK    5  A    between atoms: S_19  and  C_23
REMARK                            x       y       z     vdW  Elec       q    Type
REMARK                         _______ _______ _______ _____ _____    ______ ____
ROOT
ATOM      1  N   UNL     1      35.923 -22.532 -16.158  0.00  0.00    -0.172 NA
ATOM      2  H   UNL     1      35.100 -22.381 -16.740  0.00  0.00    +0.149 HD
ENDROOT
BRANCH   1   5
ATOM      3  O   UNL     1      34.129 -24.762 -17.167  0.00  0.00    -0.273 OA
ATOM      4  N   UNL     1      33.740 -24.439 -14.868  0.00  0.00    -0.272 N 
ATOM      5  C   UNL     1      35.865 -23.930 -15.694  0.00  0.00    +0.153 C 
ATOM      6  C   UNL     1      35.918 -24.012 -14.173  0.00  0.00    +0.048 C 
ATOM      7  C   UNL     1      34.467 -23.904 -13.741  0.00  0.00    +0.096 C 
ATOM      8  C   UNL     1      34.492 -24.447 -16.042  0.00  0.00    +0.242 C 
BRANCH   4   9
ATOM      9  C   UNL     1      32.334 -24.766 -14.774  0.00  0.00    +0.152 C 
ATOM     10  C   UNL     1      31.952 -25.277 -13.405  0.00  0.00    +0.031 C 
BRANCH   9  14
ATOM     11  O   UNL     1      27.881 -23.710 -16.907  0.00  0.00    -0.350 OA
ATOM     12  O   UNL     1      32.247 -22.406 -14.986  0.00  0.00    -0.273 OA
ATOM     13  N   UNL     1      30.289 -23.562 -15.451  0.00  0.00    -0.273 N 
ATOM     14  C   UNL     1      31.627 -23.469 -15.076  0.00  0.00    +0.244 C 
ATOM     15  C   UNL     1      29.488 -24.792 -15.446  0.00  0.00    +0.126 C 
ATOM     16  C   UNL     1      29.529 -22.352 -15.766  0.00  0.00    +0.126 C 
ATOM     17  C   UNL     1      28.667 -24.891 -16.725  0.00  0.00    +0.164 C 
ATOM     18  C   UNL     1      28.712 -22.554 -17.034  0.00  0.00    +0.164 C 
ENDBRANCH   9  14
ENDBRANCH   4   9
ENDBRANCH   1   5
BRANCH   1  19
ATOM     19  S   UNL     1      37.265 -21.984 -17.052  0.00  0.00    +0.061 S 
ATOM     20  O   UNL     1      38.116 -23.113 -17.378  0.00  0.00    -0.153 OA
ATOM     21  O   UNL     1      37.823 -20.815 -16.401  0.00  0.00    -0.153 OA
BRANCH  19  23
ATOM     22 CL   UNL     1      34.619 -18.645 -24.368  0.00  0.00    -0.082 Cl
ATOM     23  C   UNL     1      36.501 -21.428 -18.546  0.00  0.00    +0.122 C 
ATOM     24  C   UNL     1      37.171 -20.522 -19.350  0.00  0.00    +0.020 C 
ATOM     25  C   UNL     1      35.250 -21.906 -18.881  0.00  0.00    +0.020 C 
ATOM     26  C   UNL     1      36.577 -20.071 -20.540  0.00  0.00    +0.001 C 
ATOM     27  C   UNL     1      35.296 -20.551 -20.901  0.00  0.00    +0.001 C 
ATOM     28  C   UNL     1      34.646 -21.469 -20.059  0.00  0.00    +0.001 C 
ATOM     29  C   UNL     1      37.229 -19.153 -21.381  0.00  0.00    +0.001 C 
ATOM     30  C   UNL     1      34.703 -20.099 -22.090  0.00  0.00    +0.011 C 
ATOM     31  C   UNL     1      36.624 -18.715 -22.560  0.00  0.00    +0.011 C 
ATOM     32  C   UNL     1      35.363 -19.187 -22.913  0.00  0.00    +0.058 C 
ENDBRANCH  19  23
ENDBRANCH   1  19
TORSDOF 5
ENDMDL
MODEL 9
REMARK VINA RESULT:     -10.2      3.423      4.841
REMARK  Name = 6852168
REMARK  5 active torsions:
REMARK  status: ('A' for Active; 'I' for Inactive)
REMARK    1  A    between atoms: N_1  and  C_5
REMARK    2  A    between atoms: N_1  and  S_19
REMARK    3  A    between atoms: N_4  and  C_9
REMARK    4  A    between atoms: C_9  and  C_14
REMARK    5  A    between atoms: S_19  and  C_23
REMARK                            x       y       z     vdW  Elec       q    Type
REMARK                         _______ _______ _______ _____ _____    ______ ____
ROOT
ATOM      1  N   UNL     1      32.935 -13.436 -24.719  0.00  0.00    -0.172 NA
ATOM      2  H   UNL     1      32.341 -14.123 -24.255  0.00  0.00    +0.149 HD
ENDROOT
BRANCH   1   5
ATOM      3  O   UNL     1      32.244 -13.197 -21.773  0.00  0.00    -0.273 OA
ATOM      4  N   UNL     1      32.429 -11.042 -22.700  0.00  0.00    -0.272 N 
ATOM      5  C   UNL     1      33.698 -12.751 -23.660  0.00  0.00    +0.153 C 
ATOM      6  C   UNL     1      34.220 -11.401 -24.138  0.00  0.00    +0.048 C 
ATOM      7  C   UNL     1      33.094 -10.432 -23.827  0.00  0.00    +0.096 C 
ATOM      8  C   UNL     1      32.715 -12.400 -22.572  0.00  0.00    +0.242 C 
BRANCH   4   9
ATOM      9  C   UNL     1      31.454 -10.316 -21.915  0.00  0.00    +0.152 C 
ATOM     10  C   UNL     1      30.959 -11.113 -20.730  0.00  0.00    +0.031 C 
BRANCH   9  14
ATOM     11  O   UNL     1      32.125  -5.767 -24.000  0.00  0.00    -0.350 OA
ATOM     12  O   UNL     1      32.945  -9.150 -20.487  0.00  0.00    -0.273 OA
ATOM     13  N   UNL     1      31.953  -7.914 -22.184  0.00  0.00    -0.273 N 
ATOM     14  C   UNL     1      32.186  -9.080 -21.458  0.00  0.00    +0.244 C 
ATOM     15  C   UNL     1      30.966  -7.765 -23.259  0.00  0.00    +0.126 C 
ATOM     16  C   UNL     1      32.627  -6.670 -21.811  0.00  0.00    +0.126 C 
ATOM     17  C   UNL     1      31.577  -7.014 -24.435  0.00  0.00    +0.164 C 
ATOM     18  C   UNL     1      33.171  -5.971 -23.048  0.00  0.00    +0.164 C 
ENDBRANCH   9  14
ENDBRANCH   4   9
ENDBRANCH   1   5
BRANCH   1  19
ATOM     19  S   UNL     1      33.753 -14.257 -25.967  0.00  0.00    +0.061 S 
ATOM     20  O   UNL     1      34.945 -13.513 -26.326  0.00  0.00    -0.153 OA
ATOM     21  O   UNL     1      32.797 -14.639 -26.988  0.00  0.00    -0.153 OA
BRANCH  19  23
ATOM     22 CL   UNL     1      36.440 -20.646 -21.106  0.00  0.00    -0.082 Cl
ATOM     23  C   UNL     1      34.260 -15.741 -25.152  0.00  0.00    +0.122 C 
ATOM     24  C   UNL     1      34.735 -15.670 -23.854  0.00  0.00    +0.020 C 
ATOM     25  C   UNL     1      34.173 -16.942 -25.827  0.00  0.00    +0.020 C 
ATOM     26  C   UNL     1      35.142 -16.841 -23.193  0.00  0.00    +0.001 C 
ATOM     27  C   UNL     1      35.059 -18.082 -23.869  0.00  0.00    +0.001 C 
ATOM     28  C   UNL     1      34.572 -18.115 -25.186  0.00  0.00    +0.001 C 
ATOM     29  C   UNL     1      35.628 -16.807 -21.876  0.00  0.00    +0.001 C 
ATOM     30  C   UNL     1      35.466 -19.252 -23.208  0.00  0.00    +0.011 C 
ATOM     31  C   UNL     1      36.027 -17.981 -21.235  0.00  0.00    +0.011 C 
ATOM     32  C   UNL     1      35.947 -19.200 -21.900  0.00  0.00    +0.058 C 
ENDBRANCH  19  23
ENDBRANCH   1  19
TORSDOF 5
ENDMDL
