MODEL 1
REMARK VINA RESULT:     -11.8      0.000      0.000
REMARK  Name = 23729147
REMARK  5 active torsions:
REMARK  status: ('A' for Active; 'I' for Inactive)
REMARK    1  A    between atoms: O_1  and  C_6
REMARK    2  A    between atoms: O_1  and  C_18
REMARK    3  A    between atoms: C_18  and  C_20
REMARK    4  A    between atoms: N_19  and  C_26
REMARK    5  A    between atoms: C_26  and  C_28
REMARK                            x       y       z     vdW  Elec       q    Type
REMARK                         _______ _______ _______ _____ _____    ______ ____
ROOT
ATOM      1  O   UNL     1      35.261 -22.637 -17.895  0.00  0.00    -0.479 OA
ENDROOT
BRANCH   1   6
ATOM      2  N   UNL     1      36.122 -24.094 -13.353  0.00  0.00    -0.332 NA
ATOM      3  N   UNL     1      37.987 -23.360 -14.692  0.00  0.00    -0.317 NA
ATOM      4  N   UNL     1      37.693 -22.637 -16.890  0.00  0.00    -0.335 N 
ATOM      5  N   UNL     1      38.301 -24.083 -12.486  0.00  0.00    -0.283 N 
ATOM      6  C   UNL     1      34.863 -23.119 -16.671  0.00  0.00    +0.130 C 
ATOM      7  C   UNL     1      35.749 -23.363 -15.608  0.00  0.00    +0.177 C 
ATOM      8  C   UNL     1      33.503 -23.368 -16.515  0.00  0.00    +0.033 C 
ATOM      9  C   UNL     1      35.283 -23.858 -14.378  0.00  0.00    +0.137 C 
ATOM     10  C   UNL     1      37.119 -23.134 -15.697  0.00  0.00    +0.181 C 
ATOM     11  C   UNL     1      33.031 -23.859 -15.303  0.00  0.00    +0.005 C 
ATOM     12  C   UNL     1      33.918 -24.098 -14.250  0.00  0.00    +0.030 C 
ATOM     13  C   UNL     1      37.428 -23.832 -13.566  0.00  0.00    +0.197 C 
ATOM     14  H   UNL     1      38.663 -22.479 -16.942  0.00  0.00    +0.144 HD
ATOM     15  H   UNL     1      37.122 -22.447 -17.670  0.00  0.00    +0.144 HD
ATOM     16  H   UNL     1      37.947 -24.429 -11.636  0.00  0.00    +0.156 HD
ATOM     17  H   UNL     1      39.266 -23.909 -12.583  0.00  0.00    +0.156 HD
ENDBRANCH   1   6
BRANCH   1  18
ATOM     18  C   UNL     1      34.255 -22.466 -18.875  0.00  0.00    +0.205 C 
BRANCH  18  20
ATOM     19  N   UNL     1      35.734 -19.167 -21.240  0.00  0.00    +0.390 N 
ATOM     20  C   UNL     1      34.851 -21.698 -20.052  0.00  0.00    +0.040 C 
ATOM     21  C   UNL     1      36.167 -21.020 -19.659  0.00  0.00    -0.019 C 
ATOM     22  C   UNL     1      33.866 -20.650 -20.580  0.00  0.00    -0.019 C 
ATOM     23  C   UNL     1      36.718 -20.167 -20.803  0.00  0.00    -0.077 C 
ATOM     24  C   UNL     1      34.493 -19.808 -21.695  0.00  0.00    -0.077 C 
ATOM     25  H   UNL     1      35.508 -18.578 -20.439  0.00  0.00    -0.079 HD
BRANCH  19  26
ATOM     26  C   UNL     1      36.294 -18.327 -22.298  0.00  0.00    -0.048 C 
BRANCH  26  28
ATOM     27  F   UNL     1      35.627 -17.081 -24.756  0.00  0.00    -0.205 F 
ATOM     28  C   UNL     1      35.598 -16.994 -22.383  0.00  0.00    -0.016 C 
ATOM     29  C   UNL     1      35.300 -16.438 -23.627  0.00  0.00    +0.134 C 
ATOM     30  C   UNL     1      35.254 -16.316 -21.214  0.00  0.00    -0.004 C 
ATOM     31  C   UNL     1      34.656 -15.202 -23.701  0.00  0.00    +0.029 C 
ATOM     32  C   UNL     1      34.610 -15.081 -21.288  0.00  0.00    -0.000 C 
ATOM     33  C   UNL     1      34.312 -14.523 -22.532  0.00  0.00    +0.002 C 
ENDBRANCH  26  28
ENDBRANCH  19  26
ENDBRANCH  18  20
ENDBRANCH   1  18
TORSDOF 5
ENDMDL
MODEL 2
REMARK VINA RESULT:     -11.8      3.627     10.280
REMARK  Name = 23729147
REMARK  5 active torsions:
REMARK  status: ('A' for Active; 'I' for Inactive)
REMARK    1  A    between atoms: O_1  and  C_6
REMARK    2  A    between atoms: O_1  and  C_18
REMARK    3  A    between atoms: C_18  and  C_20
REMARK    4  A    between atoms: N_19  and  C_26
REMARK    5  A    between atoms: C_26  and  C_28
REMARK                            x       y       z     vdW  Elec       q    Type
REMARK                         _______ _______ _______ _____ _____    ______ ____
ROOT
ATOM      1  O   UNL     1      35.374 -17.827 -22.916  0.00  0.00    -0.479 OA
ENDROOT
BRANCH   1   6
ATOM      2  N   UNL     1      33.833 -13.772 -25.078  0.00  0.00    -0.332 NA
ATOM      3  N   UNL     1      34.076 -15.761 -26.417  0.00  0.00    -0.317 NA
ATOM      4  N   UNL     1      34.811 -17.770 -25.486  0.00  0.00    -0.335 N 
ATOM      5  N   UNL     1      33.338 -13.752 -27.370  0.00  0.00    -0.283 N 
ATOM      6  C   UNL     1      35.021 -16.499 -22.911  0.00  0.00    +0.130 C 
ATOM      7  C   UNL     1      34.592 -15.805 -24.055  0.00  0.00    +0.177 C 
ATOM      8  C   UNL     1      35.105 -15.840 -21.688  0.00  0.00    +0.033 C 
ATOM      9  C   UNL     1      34.245 -14.446 -23.988  0.00  0.00    +0.137 C 
ATOM     10  C   UNL     1      34.485 -16.405 -25.307  0.00  0.00    +0.181 C 
ATOM     11  C   UNL     1      34.764 -14.495 -21.610  0.00  0.00    +0.005 C 
ATOM     12  C   UNL     1      34.338 -13.812 -22.753  0.00  0.00    +0.030 C 
ATOM     13  C   UNL     1      33.771 -14.467 -26.232  0.00  0.00    +0.197 C 
ATOM     14  H   UNL     1      34.730 -18.183 -26.376  0.00  0.00    +0.144 HD
ATOM     15  H   UNL     1      35.117 -18.308 -24.720  0.00  0.00    +0.144 HD
ATOM     16  H   UNL     1      33.101 -12.801 -27.293  0.00  0.00    +0.156 HD
ATOM     17  H   UNL     1      33.272 -14.208 -28.241  0.00  0.00    +0.156 HD
ENDBRANCH   1   6
BRANCH   1  18
ATOM     18  C   UNL     1      36.079 -18.308 -21.787  0.00  0.00    +0.205 C 
BRANCH  18  20
ATOM     19  N   UNL     1      34.593 -21.719 -19.593  0.00  0.00    +0.390 N 
ATOM     20  C   UNL     1      35.608 -19.730 -21.492  0.00  0.00    +0.040 C 
ATOM     21  C   UNL     1      34.154 -19.740 -21.011  0.00  0.00    -0.019 C 
ATOM     22  C   UNL     1      36.504 -20.400 -20.445  0.00  0.00    -0.019 C 
ATOM     23  C   UNL     1      33.707 -21.150 -20.617  0.00  0.00    -0.077 C 
ATOM     24  C   UNL     1      35.980 -21.788 -20.070  0.00  0.00    -0.077 C 
ATOM     25  H   UNL     1      34.570 -21.104 -18.780  0.00  0.00    -0.079 HD
BRANCH  19  26
ATOM     26  C   UNL     1      34.123 -23.045 -19.191  0.00  0.00    -0.048 C 
BRANCH  26  28
ATOM     27  F   UNL     1      35.896 -23.147 -16.982  0.00  0.00    -0.205 F 
ATOM     28  C   UNL     1      33.654 -23.064 -17.760  0.00  0.00    -0.016 C 
ATOM     29  C   UNL     1      34.582 -23.114 -16.720  0.00  0.00    +0.134 C 
ATOM     30  C   UNL     1      32.290 -23.031 -17.477  0.00  0.00    -0.004 C 
ATOM     31  C   UNL     1      34.144 -23.133 -15.395  0.00  0.00    +0.029 C 
ATOM     32  C   UNL     1      31.851 -23.049 -16.153  0.00  0.00    -0.000 C 
ATOM     33  C   UNL     1      32.778 -23.100 -15.112  0.00  0.00    +0.002 C 
ENDBRANCH  26  28
ENDBRANCH  19  26
ENDBRANCH  18  20
ENDBRANCH   1  18
TORSDOF 5
ENDMDL
MODEL 3
REMARK VINA RESULT:     -11.5      2.294      3.393
REMARK  Name = 23729147
REMARK  5 active torsions:
REMARK  status: ('A' for Active; 'I' for Inactive)
REMARK    1  A    between atoms: O_1  and  C_6
REMARK    2  A    between atoms: O_1  and  C_18
REMARK    3  A    between atoms: C_18  and  C_20
REMARK    4  A    between atoms: N_19  and  C_26
REMARK    5  A    between atoms: C_26  and  C_28
REMARK                            x       y       z     vdW  Elec       q    Type
REMARK                         _______ _______ _______ _____ _____    ______ ____
ROOT
ATOM      1  O   UNL     1      35.706 -21.950 -19.310  0.00  0.00    -0.479 OA
ENDROOT
BRANCH   1   6
ATOM      2  N   UNL     1      33.095 -23.639 -15.592  0.00  0.00    -0.332 NA
ATOM      3  N   UNL     1      31.973 -23.225 -17.684  0.00  0.00    -0.317 NA
ATOM      4  N   UNL     1      33.126 -22.412 -19.541  0.00  0.00    -0.335 N 
ATOM      5  N   UNL     1      30.797 -24.041 -15.829  0.00  0.00    -0.283 N 
ATOM      6  C   UNL     1      35.566 -22.382 -18.013  0.00  0.00    +0.130 C 
ATOM      7  C   UNL     1      34.343 -22.803 -17.463  0.00  0.00    +0.177 C 
ATOM      8  C   UNL     1      36.718 -22.386 -17.232  0.00  0.00    +0.033 C 
ATOM      9  C   UNL     1      34.260 -23.233 -16.128  0.00  0.00    +0.137 C 
ATOM     10  C   UNL     1      33.155 -22.825 -18.189  0.00  0.00    +0.181 C 
ATOM     11  C   UNL     1      36.648 -22.808 -15.910  0.00  0.00    +0.005 C 
ATOM     12  C   UNL     1      35.428 -23.227 -15.371  0.00  0.00    +0.030 C 
ATOM     13  C   UNL     1      32.015 -23.613 -16.399  0.00  0.00    +0.197 C 
ATOM     14  H   UNL     1      32.280 -22.432 -20.044  0.00  0.00    +0.144 HD
ATOM     15  H   UNL     1      33.952 -22.106 -19.981  0.00  0.00    +0.144 HD
ATOM     16  H   UNL     1      30.769 -24.336 -14.891  0.00  0.00    +0.156 HD
ATOM     17  H   UNL     1      29.974 -24.044 -16.371  0.00  0.00    +0.156 HD
ENDBRANCH   1   6
BRANCH   1  18
ATOM     18  C   UNL     1      36.617 -20.892 -19.539  0.00  0.00    +0.205 C 
BRANCH  18  20
ATOM     19  N   UNL     1      35.616 -18.224 -22.786  0.00  0.00    +0.390 N 
ATOM     20  C   UNL     1      36.413 -20.376 -20.961  0.00  0.00    +0.040 C 
ATOM     21  C   UNL     1      37.304 -19.162 -21.241  0.00  0.00    -0.019 C 
ATOM     22  C   UNL     1      34.946 -20.008 -21.208  0.00  0.00    -0.019 C 
ATOM     23  C   UNL     1      37.033 -18.578 -22.628  0.00  0.00    -0.077 C 
ATOM     24  C   UNL     1      34.752 -19.396 -22.597  0.00  0.00    -0.077 C 
ATOM     25  H   UNL     1      35.381 -17.541 -22.065  0.00  0.00    -0.079 HD
BRANCH  19  26
ATOM     26  C   UNL     1      35.382 -17.621 -24.098  0.00  0.00    -0.048 C 
BRANCH  26  28
ATOM     27  F   UNL     1      34.209 -16.209 -26.258  0.00  0.00    -0.205 F 
ATOM     28  C   UNL     1      34.888 -16.203 -23.983  0.00  0.00    -0.016 C 
ATOM     29  C   UNL     1      34.320 -15.567 -25.087  0.00  0.00    +0.134 C 
ATOM     30  C   UNL     1      34.999 -15.526 -22.769  0.00  0.00    -0.004 C 
ATOM     31  C   UNL     1      33.864 -14.253 -24.977  0.00  0.00    +0.029 C 
ATOM     32  C   UNL     1      34.543 -14.212 -22.659  0.00  0.00    -0.000 C 
ATOM     33  C   UNL     1      33.976 -13.575 -23.763  0.00  0.00    +0.002 C 
ENDBRANCH  26  28
ENDBRANCH  19  26
ENDBRANCH  18  20
ENDBRANCH   1  18
TORSDOF 5
ENDMDL
MODEL 4
REMARK VINA RESULT:     -11.5      1.572      2.383
REMARK  Name = 23729147
REMARK  5 active torsions:
REMARK  status: ('A' for Active; 'I' for Inactive)
REMARK    1  A    between atoms: O_1  and  C_6
REMARK    2  A    between atoms: O_1  and  C_18
REMARK    3  A    between atoms: C_18  and  C_20
REMARK    4  A    between atoms: N_19  and  C_26
REMARK    5  A    between atoms: C_26  and  C_28
REMARK                            x       y       z     vdW  Elec       q    Type
REMARK                         _______ _______ _______ _____ _____    ______ ____
ROOT
ATOM      1  O   UNL     1      34.552 -23.511 -17.560  0.00  0.00    -0.479 OA
ENDROOT
BRANCH   1   6
ATOM      2  N   UNL     1      33.859 -24.281 -12.826  0.00  0.00    -0.332 NA
ATOM      3  N   UNL     1      36.117 -24.294 -13.669  0.00  0.00    -0.317 NA
ATOM      4  N   UNL     1      36.572 -23.935 -15.928  0.00  0.00    -0.335 N 
ATOM      5  N   UNL     1      35.679 -24.656 -11.395  0.00  0.00    -0.283 N 
ATOM      6  C   UNL     1      33.755 -23.646 -16.449  0.00  0.00    +0.130 C 
ATOM      7  C   UNL     1      34.255 -23.904 -15.162  0.00  0.00    +0.177 C 
ATOM      8  C   UNL     1      32.384 -23.513 -16.650  0.00  0.00    +0.033 C 
ATOM      9  C   UNL     1      33.390 -24.034 -14.063  0.00  0.00    +0.137 C 
ATOM     10  C   UNL     1      35.614 -24.046 -14.893  0.00  0.00    +0.181 C 
ATOM     11  C   UNL     1      31.519 -23.640 -15.570  0.00  0.00    +0.005 C 
ATOM     12  C   UNL     1      32.024 -23.897 -14.292  0.00  0.00    +0.030 C 
ATOM     13  C   UNL     1      35.196 -24.397 -12.696  0.00  0.00    +0.197 C 
ATOM     14  H   UNL     1      37.530 -24.037 -15.725  0.00  0.00    +0.144 HD
ATOM     15  H   UNL     1      36.281 -23.754 -16.851  0.00  0.00    +0.144 HD
ATOM     16  H   UNL     1      35.050 -24.742 -10.644  0.00  0.00    +0.156 HD
ATOM     17  H   UNL     1      36.647 -24.750 -11.240  0.00  0.00    +0.156 HD
ENDBRANCH   1   6
BRANCH   1  18
ATOM     18  C   UNL     1      33.915 -23.127 -18.764  0.00  0.00    +0.205 C 
BRANCH  18  20
ATOM     19  N   UNL     1      35.620 -20.088 -21.318  0.00  0.00    +0.390 N 
ATOM     20  C   UNL     1      34.491 -21.785 -19.211  0.00  0.00    +0.040 C 
ATOM     21  C   UNL     1      33.629 -21.153 -20.309  0.00  0.00    -0.019 C 
ATOM     22  C   UNL     1      35.930 -21.943 -19.710  0.00  0.00    -0.019 C 
ATOM     23  C   UNL     1      34.253 -19.858 -20.831  0.00  0.00    -0.077 C 
ATOM     24  C   UNL     1      36.479 -20.621 -20.253  0.00  0.00    -0.077 C 
ATOM     25  H   UNL     1      35.576 -20.782 -22.063  0.00  0.00    -0.079 HD
BRANCH  19  26
ATOM     26  C   UNL     1      36.184 -18.852 -21.860  0.00  0.00    -0.048 C 
BRANCH  26  28
ATOM     27  F   UNL     1      35.892 -16.157 -22.690  0.00  0.00    -0.205 F 
ATOM     28  C   UNL     1      35.525 -18.457 -23.155  0.00  0.00    -0.016 C 
ATOM     29  C   UNL     1      35.414 -17.110 -23.502  0.00  0.00    +0.134 C 
ATOM     30  C   UNL     1      35.024 -19.440 -24.007  0.00  0.00    -0.004 C 
ATOM     31  C   UNL     1      34.802 -16.747 -24.703  0.00  0.00    +0.029 C 
ATOM     32  C   UNL     1      34.412 -19.078 -25.207  0.00  0.00    -0.000 C 
ATOM     33  C   UNL     1      34.300 -17.731 -25.555  0.00  0.00    +0.002 C 
ENDBRANCH  26  28
ENDBRANCH  19  26
ENDBRANCH  18  20
ENDBRANCH   1  18
TORSDOF 5
ENDMDL
MODEL 5
REMARK VINA RESULT:     -11.3      5.168     11.209
REMARK  Name = 23729147
REMARK  5 active torsions:
REMARK  status: ('A' for Active; 'I' for Inactive)
REMARK    1  A    between atoms: O_1  and  C_6
REMARK    2  A    between atoms: O_1  and  C_18
REMARK    3  A    between atoms: C_18  and  C_20
REMARK    4  A    between atoms: N_19  and  C_26
REMARK    5  A    between atoms: C_26  and  C_28
REMARK                            x       y       z     vdW  Elec       q    Type
REMARK                         _______ _______ _______ _____ _____    ______ ____
ROOT
ATOM      1  O   UNL     1      34.586 -13.374 -23.367  0.00  0.00    -0.479 OA
ENDROOT
BRANCH   1   6
ATOM      2  N   UNL     1      31.553  -9.728 -22.370  0.00  0.00    -0.332 NA
ATOM      3  N   UNL     1      33.179  -9.417 -24.121  0.00  0.00    -0.317 NA
ATOM      4  N   UNL     1      34.690 -11.101 -24.689  0.00  0.00    -0.335 N 
ATOM      5  N   UNL     1      31.670  -7.714 -23.565  0.00  0.00    -0.283 N 
ATOM      6  C   UNL     1      33.550 -12.805 -22.666  0.00  0.00    +0.130 C 
ATOM      7  C   UNL     1      33.077 -11.503 -22.902  0.00  0.00    +0.177 C 
ATOM      8  C   UNL     1      32.965 -13.589 -21.677  0.00  0.00    +0.033 C 
ATOM      9  C   UNL     1      32.014 -10.973 -22.152  0.00  0.00    +0.137 C 
ATOM     10  C   UNL     1      33.616 -10.667 -23.877  0.00  0.00    +0.181 C 
ATOM     11  C   UNL     1      31.914 -13.075 -20.927  0.00  0.00    +0.005 C 
ATOM     12  C   UNL     1      31.448 -11.779 -21.169  0.00  0.00    +0.030 C 
ATOM     13  C   UNL     1      32.160  -9.018 -23.343  0.00  0.00    +0.197 C 
ATOM     14  H   UNL     1      35.062 -10.501 -25.374  0.00  0.00    +0.144 HD
ATOM     15  H   UNL     1      35.064 -12.004 -24.570  0.00  0.00    +0.144 HD
ATOM     16  H   UNL     1      30.924  -7.369 -23.024  0.00  0.00    +0.156 HD
ATOM     17  H   UNL     1      32.074  -7.149 -24.263  0.00  0.00    +0.156 HD
ENDBRANCH   1   6
BRANCH   1  18
ATOM     18  C   UNL     1      34.294 -14.547 -24.103  0.00  0.00    +0.205 C 
BRANCH  18  20
ATOM     19  N   UNL     1      35.413 -18.341 -22.366  0.00  0.00    +0.390 N 
ATOM     20  C   UNL     1      35.169 -15.681 -23.576  0.00  0.00    +0.040 C 
ATOM     21  C   UNL     1      34.938 -16.971 -24.370  0.00  0.00    -0.019 C 
ATOM     22  C   UNL     1      34.903 -15.936 -22.089  0.00  0.00    -0.019 C 
ATOM     23  C   UNL     1      35.737 -18.137 -23.785  0.00  0.00    -0.077 C 
ATOM     24  C   UNL     1      35.703 -17.136 -21.577  0.00  0.00    -0.077 C 
ATOM     25  H   UNL     1      34.413 -18.529 -22.296  0.00  0.00    -0.079 HD
BRANCH  19  26
ATOM     26  C   UNL     1      36.145 -19.490 -21.834  0.00  0.00    -0.048 C 
BRANCH  26  28
ATOM     27  F   UNL     1      37.172 -21.524 -20.147  0.00  0.00    -0.205 F 
ATOM     28  C   UNL     1      35.272 -20.359 -20.968  0.00  0.00    -0.016 C 
ATOM     29  C   UNL     1      35.844 -21.343 -20.161  0.00  0.00    +0.134 C 
ATOM     30  C   UNL     1      33.890 -20.179 -20.976  0.00  0.00    -0.004 C 
ATOM     31  C   UNL     1      35.032 -22.147 -19.361  0.00  0.00    +0.029 C 
ATOM     32  C   UNL     1      33.078 -20.983 -20.175  0.00  0.00    -0.000 C 
ATOM     33  C   UNL     1      33.649 -21.967 -19.368  0.00  0.00    +0.002 C 
ENDBRANCH  26  28
ENDBRANCH  19  26
ENDBRANCH  18  20
ENDBRANCH   1  18
TORSDOF 5
ENDMDL
MODEL 6
REMARK VINA RESULT:     -11.3      5.088     10.765
REMARK  Name = 23729147
REMARK  5 active torsions:
REMARK  status: ('A' for Active; 'I' for Inactive)
REMARK    1  A    between atoms: O_1  and  C_6
REMARK    2  A    between atoms: O_1  and  C_18
REMARK    3  A    between atoms: C_18  and  C_20
REMARK    4  A    between atoms: N_19  and  C_26
REMARK    5  A    between atoms: C_26  and  C_28
REMARK                            x       y       z     vdW  Elec       q    Type
REMARK                         _______ _______ _______ _____ _____    ______ ____
ROOT
ATOM      1  O   UNL     1      33.617 -14.227 -23.424  0.00  0.00    -0.479 OA
ENDROOT
BRANCH   1   6
ATOM      2  N   UNL     1      32.221  -9.991 -21.528  0.00  0.00    -0.332 NA
ATOM      3  N   UNL     1      31.781 -12.005 -20.278  0.00  0.00    -0.317 NA
ATOM      4  N   UNL     1      32.407 -14.099 -21.091  0.00  0.00    -0.335 N 
ATOM      5  N   UNL     1      31.144  -9.909 -19.446  0.00  0.00    -0.283 N 
ATOM      6  C   UNL     1      33.495 -12.859 -23.450  0.00  0.00    +0.130 C 
ATOM      7  C   UNL     1      32.892 -12.113 -22.423  0.00  0.00    +0.177 C 
ATOM      8  C   UNL     1      34.006 -12.212 -24.571  0.00  0.00    +0.033 C 
ATOM      9  C   UNL     1      32.795 -10.715 -22.506  0.00  0.00    +0.137 C 
ATOM     10  C   UNL     1      32.363 -12.698 -21.275  0.00  0.00    +0.181 C 
ATOM     11  C   UNL     1      33.915 -10.828 -24.665  0.00  0.00    +0.005 C 
ATOM     12  C   UNL     1      33.315 -10.094 -23.638  0.00  0.00    +0.030 C 
ATOM     13  C   UNL     1      31.745 -10.676 -20.468  0.00  0.00    +0.197 C 
ATOM     14  H   UNL     1      32.030 -14.501 -20.275  0.00  0.00    +0.144 HD
ATOM     15  H   UNL     1      32.818 -14.674 -21.777  0.00  0.00    +0.144 HD
ATOM     16  H   UNL     1      31.090  -8.931 -19.531  0.00  0.00    +0.156 HD
ATOM     17  H   UNL     1      30.780 -10.354 -18.646  0.00  0.00    +0.156 HD
ENDBRANCH   1   6
BRANCH   1  18
ATOM     18  C   UNL     1      34.428 -14.819 -24.422  0.00  0.00    +0.205 C 
BRANCH  18  20
ATOM     19  N   UNL     1      35.498 -18.418 -22.287  0.00  0.00    +0.390 N 
ATOM     20  C   UNL     1      35.288 -15.898 -23.770  0.00  0.00    +0.040 C 
ATOM     21  C   UNL     1      35.054 -17.262 -24.428  0.00  0.00    -0.019 C 
ATOM     22  C   UNL     1      35.007 -15.993 -22.267  0.00  0.00    -0.019 C 
ATOM     23  C   UNL     1      35.836 -18.367 -23.716  0.00  0.00    -0.077 C 
ATOM     24  C   UNL     1      35.792 -17.140 -21.626  0.00  0.00    -0.077 C 
ATOM     25  H   UNL     1      34.496 -18.590 -22.207  0.00  0.00    -0.079 HD
BRANCH  19  26
ATOM     26  C   UNL     1      36.216 -19.511 -21.631  0.00  0.00    -0.048 C 
BRANCH  26  28
ATOM     27  F   UNL     1      37.129 -21.601 -19.947  0.00  0.00    -0.205 F 
ATOM     28  C   UNL     1      35.288 -20.396 -20.841  0.00  0.00    -0.016 C 
ATOM     29  C   UNL     1      35.806 -21.407 -20.031  0.00  0.00    +0.134 C 
ATOM     30  C   UNL     1      33.910 -20.203 -20.921  0.00  0.00    -0.004 C 
ATOM     31  C   UNL     1      34.943 -22.226 -19.301  0.00  0.00    +0.029 C 
ATOM     32  C   UNL     1      33.047 -21.021 -20.191  0.00  0.00    -0.000 C 
ATOM     33  C   UNL     1      33.564 -22.033 -19.381  0.00  0.00    +0.002 C 
ENDBRANCH  26  28
ENDBRANCH  19  26
ENDBRANCH  18  20
ENDBRANCH   1  18
TORSDOF 5
ENDMDL
MODEL 7
REMARK VINA RESULT:     -11.1      3.634      9.835
REMARK  Name = 23729147
REMARK  5 active torsions:
REMARK  status: ('A' for Active; 'I' for Inactive)
REMARK    1  A    between atoms: O_1  and  C_6
REMARK    2  A    between atoms: O_1  and  C_18
REMARK    3  A    between atoms: C_18  and  C_20
REMARK    4  A    between atoms: N_19  and  C_26
REMARK    5  A    between atoms: C_26  and  C_28
REMARK                            x       y       z     vdW  Elec       q    Type
REMARK                         _______ _______ _______ _____ _____    ______ ____
ROOT
ATOM      1  O   UNL     1      35.322 -18.039 -21.514  0.00  0.00    -0.479 OA
ENDROOT
BRANCH   1   6
ATOM      2  N   UNL     1      34.594 -14.388 -24.617  0.00  0.00    -0.332 NA
ATOM      3  N   UNL     1      34.656 -13.891 -22.259  0.00  0.00    -0.317 NA
ATOM      4  N   UNL     1      34.999 -15.567 -20.674  0.00  0.00    -0.335 N 
ATOM      5  N   UNL     1      34.309 -12.194 -23.838  0.00  0.00    -0.283 N 
ATOM      6  C   UNL     1      35.173 -17.523 -22.779  0.00  0.00    +0.130 C 
ATOM      7  C   UNL     1      34.952 -16.160 -23.040  0.00  0.00    +0.177 C 
ATOM      8  C   UNL     1      35.249 -18.430 -23.832  0.00  0.00    +0.033 C 
ATOM      9  C   UNL     1      34.805 -15.691 -24.356  0.00  0.00    +0.137 C 
ATOM     10  C   UNL     1      34.866 -15.201 -22.033  0.00  0.00    +0.181 C 
ATOM     11  C   UNL     1      35.105 -17.977 -25.138  0.00  0.00    +0.005 C 
ATOM     12  C   UNL     1      34.886 -16.620 -25.389  0.00  0.00    +0.030 C 
ATOM     13  C   UNL     1      34.531 -13.560 -23.555  0.00  0.00    +0.197 C 
ATOM     14  H   UNL     1      34.937 -14.880 -19.971  0.00  0.00    +0.144 HD
ATOM     15  H   UNL     1      35.156 -16.508 -20.429  0.00  0.00    +0.144 HD
ATOM     16  H   UNL     1      34.210 -11.894 -24.769  0.00  0.00    +0.156 HD
ATOM     17  H   UNL     1      34.255 -11.542 -23.102  0.00  0.00    +0.156 HD
ENDBRANCH   1   6
BRANCH   1  18
ATOM     18  C   UNL     1      36.348 -18.997 -21.328  0.00  0.00    +0.205 C 
BRANCH  18  20
ATOM     19  N   UNL     1      34.277 -22.076 -19.117  0.00  0.00    +0.390 N 
ATOM     20  C   UNL     1      35.703 -20.341 -21.002  0.00  0.00    +0.040 C 
ATOM     21  C   UNL     1      34.209 -20.177 -20.701  0.00  0.00    -0.019 C 
ATOM     22  C   UNL     1      36.399 -21.012 -19.814  0.00  0.00    -0.019 C 
ATOM     23  C   UNL     1      33.578 -21.504 -20.275  0.00  0.00    -0.077 C 
ATOM     24  C   UNL     1      35.695 -22.312 -19.417  0.00  0.00    -0.077 C 
ATOM     25  H   UNL     1      34.226 -21.401 -18.354  0.00  0.00    -0.079 HD
BRANCH  19  26
ATOM     26  C   UNL     1      33.631 -23.317 -18.690  0.00  0.00    -0.048 C 
BRANCH  26  28
ATOM     27  F   UNL     1      35.253 -23.683 -16.394  0.00  0.00    -0.205 F 
ATOM     28  C   UNL     1      33.101 -23.218 -17.284  0.00  0.00    -0.016 C 
ATOM     29  C   UNL     1      33.955 -23.410 -16.199  0.00  0.00    +0.134 C 
ATOM     30  C   UNL     1      31.753 -22.936 -17.070  0.00  0.00    -0.004 C 
ATOM     31  C   UNL     1      33.460 -23.320 -14.897  0.00  0.00    +0.029 C 
ATOM     32  C   UNL     1      31.257 -22.844 -15.769  0.00  0.00    -0.000 C 
ATOM     33  C   UNL     1      32.111 -23.037 -14.682  0.00  0.00    +0.002 C 
ENDBRANCH  26  28
ENDBRANCH  19  26
ENDBRANCH  18  20
ENDBRANCH   1  18
TORSDOF 5
ENDMDL
MODEL 8
REMARK VINA RESULT:     -10.6      7.137     10.929
REMARK  Name = 23729147
REMARK  5 active torsions:
REMARK  status: ('A' for Active; 'I' for Inactive)
REMARK    1  A    between atoms: O_1  and  C_6
REMARK    2  A    between atoms: O_1  and  C_18
REMARK    3  A    between atoms: C_18  and  C_20
REMARK    4  A    between atoms: N_19  and  C_26
REMARK    5  A    between atoms: C_26  and  C_28
REMARK                            x       y       z     vdW  Elec       q    Type
REMARK                         _______ _______ _______ _____ _____    ______ ____
ROOT
ATOM      1  O   UNL     1      33.670 -13.370 -22.403  0.00  0.00    -0.479 OA
ENDROOT
BRANCH   1   6
ATOM      2  N   UNL     1      35.581 -17.625 -23.717  0.00  0.00    -0.332 NA
ATOM      3  N   UNL     1      35.605 -17.033 -21.381  0.00  0.00    -0.317 NA
ATOM      4  N   UNL     1      34.714 -15.012 -20.632  0.00  0.00    -0.335 N 
ATOM      5  N   UNL     1      36.505 -19.068 -22.116  0.00  0.00    -0.283 N 
ATOM      6  C   UNL     1      34.009 -14.320 -23.336  0.00  0.00    +0.130 C 
ATOM      7  C   UNL     1      34.647 -15.530 -23.015  0.00  0.00    +0.177 C 
ATOM      8  C   UNL     1      33.688 -14.032 -24.659  0.00  0.00    +0.033 C 
ATOM      9  C   UNL     1      34.971 -16.464 -24.013  0.00  0.00    +0.137 C 
ATOM     10  C   UNL     1      34.994 -15.880 -21.712  0.00  0.00    +0.181 C 
ATOM     11  C   UNL     1      34.004 -14.947 -25.656  0.00  0.00    +0.005 C 
ATOM     12  C   UNL     1      34.638 -16.150 -25.328  0.00  0.00    +0.030 C 
ATOM     13  C   UNL     1      35.864 -17.847 -22.418  0.00  0.00    +0.197 C 
ATOM     14  H   UNL     1      34.964 -15.271 -19.715  0.00  0.00    +0.144 HD
ATOM     15  H   UNL     1      34.268 -14.150 -20.795  0.00  0.00    +0.144 HD
ATOM     16  H   UNL     1      36.719 -19.703 -22.836  0.00  0.00    +0.156 HD
ATOM     17  H   UNL     1      36.735 -19.285 -21.183  0.00  0.00    +0.156 HD
ENDBRANCH   1   6
BRANCH   1  18
ATOM     18  C   UNL     1      32.329 -13.365 -21.950  0.00  0.00    +0.205 C 
BRANCH  18  20
ATOM     19  N   UNL     1      32.550  -9.098 -21.310  0.00  0.00    +0.390 N 
ATOM     20  C   UNL     1      31.883 -11.916 -21.772  0.00  0.00    +0.040 C 
ATOM     21  C   UNL     1      32.472 -11.019 -22.866  0.00  0.00    -0.019 C 
ATOM     22  C   UNL     1      32.286 -11.381 -20.394  0.00  0.00    -0.019 C 
ATOM     23  C   UNL     1      32.111  -9.550 -22.637  0.00  0.00    -0.077 C 
ATOM     24  C   UNL     1      31.931  -9.900 -20.246  0.00  0.00    -0.077 C 
ATOM     25  H   UNL     1      33.560  -9.225 -21.252  0.00  0.00    -0.079 HD
BRANCH  19  26
ATOM     26  C   UNL     1      32.244  -7.680 -21.126  0.00  0.00    -0.048 C 
BRANCH  26  28
ATOM     27  F   UNL     1      30.517  -5.804 -22.365  0.00  0.00    -0.205 F 
ATOM     28  C   UNL     1      32.643  -6.861 -22.325  0.00  0.00    -0.016 C 
ATOM     29  C   UNL     1      31.742  -5.955 -22.886  0.00  0.00    +0.134 C 
ATOM     30  C   UNL     1      33.916  -7.010 -22.874  0.00  0.00    -0.004 C 
ATOM     31  C   UNL     1      32.116  -5.198 -23.997  0.00  0.00    +0.029 C 
ATOM     32  C   UNL     1      34.289  -6.253 -23.985  0.00  0.00    -0.000 C 
ATOM     33  C   UNL     1      33.389  -5.348 -24.547  0.00  0.00    +0.002 C 
ENDBRANCH  26  28
ENDBRANCH  19  26
ENDBRANCH  18  20
ENDBRANCH   1  18
TORSDOF 5
ENDMDL
MODEL 9
REMARK VINA RESULT:     -10.5      6.529     11.484
REMARK  Name = 23729147
REMARK  5 active torsions:
REMARK  status: ('A' for Active; 'I' for Inactive)
REMARK    1  A    between atoms: O_1  and  C_6
REMARK    2  A    between atoms: O_1  and  C_18
REMARK    3  A    between atoms: C_18  and  C_20
REMARK    4  A    between atoms: N_19  and  C_26
REMARK    5  A    between atoms: C_26  and  C_28
REMARK                            x       y       z     vdW  Elec       q    Type
REMARK                         _______ _______ _______ _____ _____    ______ ____
ROOT
ATOM      1  O   UNL     1      32.508 -12.145 -22.938  0.00  0.00    -0.479 OA
ENDROOT
BRANCH   1   6
ATOM      2  N   UNL     1      32.172  -8.296 -20.013  0.00  0.00    -0.332 NA
ATOM      3  N   UNL     1      32.652  -7.922 -22.345  0.00  0.00    -0.317 NA
ATOM      4  N   UNL     1      32.836  -9.697 -23.846  0.00  0.00    -0.335 N 
ATOM      5  N   UNL     1      32.470  -6.126 -20.851  0.00  0.00    -0.283 N 
ATOM      6  C   UNL     1      32.303 -11.557 -21.713  0.00  0.00    +0.130 C 
ATOM      7  C   UNL     1      32.348 -10.168 -21.502  0.00  0.00    +0.177 C 
ATOM      8  C   UNL     1      32.041 -12.414 -20.649  0.00  0.00    +0.033 C 
ATOM      9  C   UNL     1      32.132  -9.624 -20.226  0.00  0.00    +0.137 C 
ATOM     10  C   UNL     1      32.604  -9.256 -22.523  0.00  0.00    +0.181 C 
ATOM     11  C   UNL     1      31.826 -11.887 -19.381  0.00  0.00    +0.005 C 
ATOM     12  C   UNL     1      31.872 -10.505 -19.180  0.00  0.00    +0.030 C 
ATOM     13  C   UNL     1      32.430  -7.518 -21.083  0.00  0.00    +0.197 C 
ATOM     14  H   UNL     1      33.016  -9.043 -24.559  0.00  0.00    +0.144 HD
ATOM     15  H   UNL     1      32.817 -10.660 -24.055  0.00  0.00    +0.144 HD
ATOM     16  H   UNL     1      32.315  -5.773 -19.946  0.00  0.00    +0.156 HD
ATOM     17  H   UNL     1      32.653  -5.508 -21.596  0.00  0.00    +0.156 HD
ENDBRANCH   1   6
BRANCH   1  18
ATOM     18  C   UNL     1      33.831 -12.544 -23.246  0.00  0.00    +0.205 C 
BRANCH  18  20
ATOM     19  N   UNL     1      35.313 -16.514 -24.082  0.00  0.00    +0.390 N 
ATOM     20  C   UNL     1      33.853 -14.060 -23.418  0.00  0.00    +0.040 C 
ATOM     21  C   UNL     1      34.850 -14.710 -22.454  0.00  0.00    -0.019 C 
ATOM     22  C   UNL     1      34.200 -14.446 -24.859  0.00  0.00    -0.019 C 
ATOM     23  C   UNL     1      34.951 -16.218 -22.689  0.00  0.00    -0.077 C 
ATOM     24  C   UNL     1      34.322 -15.963 -25.015  0.00  0.00    -0.077 C 
ATOM     25  H   UNL     1      36.209 -16.067 -24.275  0.00  0.00    -0.079 HD
BRANCH  19  26
ATOM     26  C   UNL     1      35.456 -17.956 -24.278  0.00  0.00    -0.048 C 
BRANCH  26  28
ATOM     27  F   UNL     1      33.771 -19.775 -22.903  0.00  0.00    -0.205 F 
ATOM     28  C   UNL     1      35.863 -18.657 -23.009  0.00  0.00    -0.016 C 
ATOM     29  C   UNL     1      34.983 -19.541 -22.383  0.00  0.00    +0.134 C 
ATOM     30  C   UNL     1      37.122 -18.419 -22.459  0.00  0.00    -0.004 C 
ATOM     31  C   UNL     1      35.364 -20.187 -21.206  0.00  0.00    +0.029 C 
ATOM     32  C   UNL     1      37.503 -19.066 -21.283  0.00  0.00    -0.000 C 
ATOM     33  C   UNL     1      36.624 -19.949 -20.656  0.00  0.00    +0.002 C 
ENDBRANCH  26  28
ENDBRANCH  19  26
ENDBRANCH  18  20
ENDBRANCH   1  18
TORSDOF 5
ENDMDL
