MODEL 1
REMARK VINA RESULT:     -11.5      0.000      0.000
REMARK  Name = 6420159
REMARK  9 active torsions:
REMARK  status: ('A' for Active; 'I' for Inactive)
REMARK    1  A    between atoms: C_1  and  N_3
REMARK    2  A    between atoms: C_1  and  C_15
REMARK    3  A    between atoms: C_1  and  C_29
REMARK    4  A    between atoms: N_14  and  C_17
REMARK    5  A    between atoms: C_17  and  C_18
REMARK    6  A    between atoms: C_18  and  N_19
REMARK    7  A    between atoms: N_19  and  C_21
REMARK    8  A    between atoms: C_26  and  O_27
REMARK    9  A    between atoms: C_29  and  C_30
REMARK                            x       y       z     vdW  Elec       q    Type
REMARK                         _______ _______ _______ _____ _____    ______ ____
ROOT
ATOM      1  C   UNL     1      33.494 -23.398 -17.384  0.00  0.00    +0.151 C 
ENDROOT
BRANCH   1   3
ATOM      2  O   UNL     1      36.013 -23.063 -14.742  0.00  0.00    -0.414 OA
ATOM      3  N   UNL     1      34.381 -22.909 -16.350  0.00  0.00    -0.271 N 
ATOM      4  N   UNL     1      35.478 -24.984 -15.820  0.00  0.00    -0.356 NA
ATOM      5  C   UNL     1      35.278 -23.712 -15.668  0.00  0.00    +0.345 C 
ATOM      6  C   UNL     1      36.793 -24.062 -14.233  0.00  0.00    +0.175 C 
ATOM      7  C   UNL     1      36.463 -25.236 -14.895  0.00  0.00    +0.152 C 
ATOM      8  C   UNL     1      37.753 -23.961 -13.234  0.00  0.00    +0.040 C 
ATOM      9  C   UNL     1      37.130 -26.419 -14.551  0.00  0.00    +0.088 C 
ATOM     10  C   UNL     1      38.410 -25.151 -12.902  0.00  0.00    -0.001 C 
ATOM     11  C   UNL     1      38.107 -26.357 -13.546  0.00  0.00    -0.018 C 
ATOM     12  H   UNL     1      34.344 -21.953 -16.120  0.00  0.00    +0.153 HD
ENDBRANCH   1   3
BRANCH   1  15
ATOM     13  O   UNL     1      34.003 -23.891 -19.701  0.00  0.00    -0.273 OA
ATOM     14  N   UNL     1      34.888 -21.970 -18.751  0.00  0.00    -0.301 N 
ATOM     15  C   UNL     1      34.137 -23.136 -18.740  0.00  0.00    +0.240 C 
ATOM     16  H   UNL     1      34.938 -21.427 -17.931  0.00  0.00    +0.150 HD
BRANCH  14  17
ATOM     17  C   UNL     1      35.598 -21.527 -19.926  0.00  0.00    +0.111 C 
BRANCH  17  18
ATOM     18  C   UNL     1      34.783 -20.548 -20.756  0.00  0.00    +0.109 C 
BRANCH  18  19
ATOM     19  N   UNL     1      35.622 -19.481 -21.246  0.00  0.00    -0.331 N 
ATOM     20  H   UNL     1      36.395 -19.208 -20.699  0.00  0.00    +0.147 HD
BRANCH  19  21
ATOM     21  C   UNL     1      35.403 -18.816 -22.442  0.00  0.00    +0.045 C 
ATOM     22  C   UNL     1      34.902 -19.499 -23.566  0.00  0.00    +0.017 C 
ATOM     23  C   UNL     1      35.677 -17.442 -22.566  0.00  0.00    +0.017 C 
ATOM     24  C   UNL     1      34.683 -18.831 -24.771  0.00  0.00    +0.038 C 
ATOM     25  C   UNL     1      35.458 -16.773 -23.771  0.00  0.00    +0.038 C 
ATOM     26  C   UNL     1      34.961 -17.468 -24.873  0.00  0.00    +0.139 C 
BRANCH  26  27
ATOM     27  O   UNL     1      34.746 -16.815 -26.047  0.00  0.00    -0.471 OA
ATOM     28  C   UNL     1      33.848 -15.707 -26.020  0.00  0.00    +0.252 C 
ENDBRANCH  26  27
ENDBRANCH  19  21
ENDBRANCH  18  19
ENDBRANCH  17  18
ENDBRANCH  14  17
ENDBRANCH   1  15
BRANCH   1  29
ATOM     29  C   UNL     1      32.139 -22.694 -17.301  0.00  0.00    +0.029 C 
BRANCH  29  30
ATOM     30  C   UNL     1      31.267 -23.236 -16.171  0.00  0.00    +0.002 C 
ATOM     31  C   UNL     1      31.680 -24.668 -15.807  0.00  0.00    +0.000 C 
ATOM     32  C   UNL     1      29.782 -23.177 -16.556  0.00  0.00    +0.000 C 
ATOM     33  C   UNL     1      30.787 -25.252 -14.714  0.00  0.00    +0.000 C 
ATOM     34  C   UNL     1      28.893 -23.764 -15.463  0.00  0.00    +0.000 C 
ATOM     35  C   UNL     1      29.312 -25.184 -15.097  0.00  0.00    +0.000 C 
ENDBRANCH  29  30
ENDBRANCH   1  29
TORSDOF 9
ENDMDL
MODEL 2
REMARK VINA RESULT:     -10.9      1.411      4.957
REMARK  Name = 6420159
REMARK  9 active torsions:
REMARK  status: ('A' for Active; 'I' for Inactive)
REMARK    1  A    between atoms: C_1  and  N_3
REMARK    2  A    between atoms: C_1  and  C_15
REMARK    3  A    between atoms: C_1  and  C_29
REMARK    4  A    between atoms: N_14  and  C_17
REMARK    5  A    between atoms: C_17  and  C_18
REMARK    6  A    between atoms: C_18  and  N_19
REMARK    7  A    between atoms: N_19  and  C_21
REMARK    8  A    between atoms: C_26  and  O_27
REMARK    9  A    between atoms: C_29  and  C_30
REMARK                            x       y       z     vdW  Elec       q    Type
REMARK                         _______ _______ _______ _____ _____    ______ ____
ROOT
ATOM      1  C   UNL     1      35.884 -22.702 -16.299  0.00  0.00    +0.151 C 
ENDROOT
BRANCH   1   3
ATOM      2  O   UNL     1      32.401 -23.692 -16.873  0.00  0.00    -0.414 OA
ATOM      3  N   UNL     1      34.586 -22.983 -16.874  0.00  0.00    -0.271 N 
ATOM      4  N   UNL     1      33.500 -23.815 -14.894  0.00  0.00    -0.356 NA
ATOM      5  C   UNL     1      33.525 -23.502 -16.152  0.00  0.00    +0.345 C 
ATOM      6  C   UNL     1      31.537 -24.196 -15.944  0.00  0.00    +0.175 C 
ATOM      7  C   UNL     1      32.213 -24.270 -14.734  0.00  0.00    +0.152 C 
ATOM      8  C   UNL     1      30.215 -24.578 -16.136  0.00  0.00    +0.040 C 
ATOM      9  C   UNL     1      31.537 -24.761 -13.609  0.00  0.00    +0.088 C 
ATOM     10  C   UNL     1      29.554 -25.066 -15.003  0.00  0.00    -0.001 C 
ATOM     11  C   UNL     1      30.200 -25.156 -13.764  0.00  0.00    -0.018 C 
ATOM     12  H   UNL     1      34.450 -22.796 -17.830  0.00  0.00    +0.153 HD
ENDBRANCH   1   3
BRANCH   1  15
ATOM     13  O   UNL     1      37.744 -21.323 -17.011  0.00  0.00    -0.273 OA
ATOM     14  N   UNL     1      36.111 -21.877 -18.560  0.00  0.00    -0.301 N 
ATOM     15  C   UNL     1      36.696 -21.895 -17.303  0.00  0.00    +0.240 C 
ATOM     16  H   UNL     1      35.269 -22.366 -18.702  0.00  0.00    +0.150 HD
BRANCH  14  17
ATOM     17  C   UNL     1      36.698 -21.163 -19.669  0.00  0.00    +0.111 C 
BRANCH  17  18
ATOM     18  C   UNL     1      35.659 -20.731 -20.691  0.00  0.00    +0.109 C 
BRANCH  18  19
ATOM     19  N   UNL     1      35.800 -19.326 -20.991  0.00  0.00    -0.331 N 
ATOM     20  H   UNL     1      36.126 -18.730 -20.278  0.00  0.00    +0.147 HD
BRANCH  19  21
ATOM     21  C   UNL     1      35.502 -18.769 -22.224  0.00  0.00    +0.045 C 
ATOM     22  C   UNL     1      34.967 -19.555 -23.262  0.00  0.00    +0.017 C 
ATOM     23  C   UNL     1      35.727 -17.402 -22.472  0.00  0.00    +0.017 C 
ATOM     24  C   UNL     1      34.668 -18.994 -24.504  0.00  0.00    +0.038 C 
ATOM     25  C   UNL     1      35.429 -16.841 -23.714  0.00  0.00    +0.038 C 
ATOM     26  C   UNL     1      34.900 -17.637 -24.730  0.00  0.00    +0.139 C 
BRANCH  26  27
ATOM     27  O   UNL     1      34.607 -17.089 -25.941  0.00  0.00    -0.471 OA
ATOM     28  C   UNL     1      33.976 -15.810 -25.940  0.00  0.00    +0.252 C 
ENDBRANCH  26  27
ENDBRANCH  19  21
ENDBRANCH  18  19
ENDBRANCH  17  18
ENDBRANCH  14  17
ENDBRANCH   1  15
BRANCH   1  29
ATOM     29  C   UNL     1      36.611 -24.005 -15.962  0.00  0.00    +0.029 C 
BRANCH  29  30
ATOM     30  C   UNL     1      37.508 -23.873 -14.733  0.00  0.00    +0.002 C 
ATOM     31  C   UNL     1      38.135 -25.226 -14.372  0.00  0.00    +0.000 C 
ATOM     32  C   UNL     1      36.722 -23.302 -13.545  0.00  0.00    +0.000 C 
ATOM     33  C   UNL     1      38.996 -25.131 -13.114  0.00  0.00    +0.000 C 
ATOM     34  C   UNL     1      37.584 -23.211 -12.289  0.00  0.00    +0.000 C 
ATOM     35  C   UNL     1      38.213 -24.555 -11.939  0.00  0.00    +0.000 C 
ENDBRANCH  29  30
ENDBRANCH   1  29
TORSDOF 9
ENDMDL
MODEL 3
REMARK VINA RESULT:     -10.7      3.178      7.542
REMARK  Name = 6420159
REMARK  9 active torsions:
REMARK  status: ('A' for Active; 'I' for Inactive)
REMARK    1  A    between atoms: C_1  and  N_3
REMARK    2  A    between atoms: C_1  and  C_15
REMARK    3  A    between atoms: C_1  and  C_29
REMARK    4  A    between atoms: N_14  and  C_17
REMARK    5  A    between atoms: C_17  and  C_18
REMARK    6  A    between atoms: C_18  and  N_19
REMARK    7  A    between atoms: N_19  and  C_21
REMARK    8  A    between atoms: C_26  and  O_27
REMARK    9  A    between atoms: C_29  and  C_30
REMARK                            x       y       z     vdW  Elec       q    Type
REMARK                         _______ _______ _______ _____ _____    ______ ____
ROOT
ATOM      1  C   UNL     1      34.004 -23.054 -17.188  0.00  0.00    +0.151 C 
ENDROOT
BRANCH   1   3
ATOM      2  O   UNL     1      36.100 -25.564 -15.530  0.00  0.00    -0.414 OA
ATOM      3  N   UNL     1      34.698 -24.265 -16.803  0.00  0.00    -0.271 N 
ATOM      4  N   UNL     1      35.876 -23.400 -14.893  0.00  0.00    -0.356 NA
ATOM      5  C   UNL     1      35.554 -24.344 -15.719  0.00  0.00    +0.345 C 
ATOM      6  C   UNL     1      36.881 -25.368 -14.427  0.00  0.00    +0.175 C 
ATOM      7  C   UNL     1      36.741 -24.042 -14.039  0.00  0.00    +0.152 C 
ATOM      8  C   UNL     1      37.682 -26.300 -13.781  0.00  0.00    +0.040 C 
ATOM      9  C   UNL     1      37.448 -23.586 -12.919  0.00  0.00    +0.088 C 
ATOM     10  C   UNL     1      38.381 -25.829 -12.664  0.00  0.00    -0.001 C 
ATOM     11  C   UNL     1      38.268 -24.499 -12.240  0.00  0.00    -0.018 C 
ATOM     12  H   UNL     1      34.552 -25.076 -17.342  0.00  0.00    +0.153 HD
ENDBRANCH   1   3
BRANCH   1  15
ATOM     13  O   UNL     1      31.595 -22.809 -17.140  0.00  0.00    -0.273 OA
ATOM     14  N   UNL     1      32.700 -23.329 -15.170  0.00  0.00    -0.301 N 
ATOM     15  C   UNL     1      32.632 -23.049 -16.526  0.00  0.00    +0.240 C 
ATOM     16  H   UNL     1      33.579 -23.509 -14.763  0.00  0.00    +0.150 HD
BRANCH  14  17
ATOM     17  C   UNL     1      31.524 -23.366 -14.335  0.00  0.00    +0.111 C 
BRANCH  17  18
ATOM     18  C   UNL     1      31.156 -24.782 -13.921  0.00  0.00    +0.109 C 
BRANCH  18  19
ATOM     19  N   UNL     1      29.810 -25.096 -14.337  0.00  0.00    -0.331 N 
ATOM     20  H   UNL     1      29.352 -25.849 -13.899  0.00  0.00    +0.147 HD
BRANCH  19  21
ATOM     21  C   UNL     1      29.126 -24.397 -15.319  0.00  0.00    +0.045 C 
ATOM     22  C   UNL     1      28.524 -23.156 -15.036  0.00  0.00    +0.017 C 
ATOM     23  C   UNL     1      29.012 -24.909 -16.624  0.00  0.00    +0.017 C 
ATOM     24  C   UNL     1      27.834 -22.453 -16.024  0.00  0.00    +0.038 C 
ATOM     25  C   UNL     1      28.322 -24.207 -17.612  0.00  0.00    +0.038 C 
ATOM     26  C   UNL     1      27.733 -22.979 -17.312  0.00  0.00    +0.139 C 
BRANCH  26  27
ATOM     27  O   UNL     1      27.061 -22.293 -18.276  0.00  0.00    -0.471 OA
ATOM     28  C   UNL     1      26.162 -21.273 -17.842  0.00  0.00    +0.252 C 
ENDBRANCH  26  27
ENDBRANCH  19  21
ENDBRANCH  18  19
ENDBRANCH  17  18
ENDBRANCH  14  17
ENDBRANCH   1  15
BRANCH   1  29
ATOM     29  C   UNL     1      33.853 -22.988 -18.709  0.00  0.00    +0.029 C 
BRANCH  29  30
ATOM     30  C   UNL     1      34.392 -21.684 -19.293  0.00  0.00    +0.002 C 
ATOM     31  C   UNL     1      33.478 -21.174 -20.416  0.00  0.00    +0.000 C 
ATOM     32  C   UNL     1      35.828 -21.870 -19.802  0.00  0.00    +0.000 C 
ATOM     33  C   UNL     1      34.025 -19.898 -21.052  0.00  0.00    +0.000 C 
ATOM     34  C   UNL     1      36.371 -20.594 -20.439  0.00  0.00    +0.000 C 
ATOM     35  C   UNL     1      35.455 -20.085 -21.548  0.00  0.00    +0.000 C 
ENDBRANCH  29  30
ENDBRANCH   1  29
TORSDOF 9
ENDMDL
MODEL 4
REMARK VINA RESULT:     -10.3      6.571     13.532
REMARK  Name = 6420159
REMARK  9 active torsions:
REMARK  status: ('A' for Active; 'I' for Inactive)
REMARK    1  A    between atoms: C_1  and  N_3
REMARK    2  A    between atoms: C_1  and  C_15
REMARK    3  A    between atoms: C_1  and  C_29
REMARK    4  A    between atoms: N_14  and  C_17
REMARK    5  A    between atoms: C_17  and  C_18
REMARK    6  A    between atoms: C_18  and  N_19
REMARK    7  A    between atoms: N_19  and  C_21
REMARK    8  A    between atoms: C_26  and  O_27
REMARK    9  A    between atoms: C_29  and  C_30
REMARK                            x       y       z     vdW  Elec       q    Type
REMARK                         _______ _______ _______ _____ _____    ______ ____
ROOT
ATOM      1  C   UNL     1      34.318 -11.974 -23.982  0.00  0.00    +0.151 C 
ENDROOT
BRANCH   1   3
ATOM      2  O   UNL     1      34.678  -8.334 -24.233  0.00  0.00    -0.414 OA
ATOM      3  N   UNL     1      34.807 -10.627 -24.186  0.00  0.00    -0.271 N 
ATOM      4  N   UNL     1      32.799  -9.435 -23.605  0.00  0.00    -0.356 NA
ATOM      5  C   UNL     1      34.035  -9.495 -23.988  0.00  0.00    +0.345 C 
ATOM      6  C   UNL     1      33.715  -7.403 -23.967  0.00  0.00    +0.175 C 
ATOM      7  C   UNL     1      32.566  -8.081 -23.583  0.00  0.00    +0.152 C 
ATOM      8  C   UNL     1      33.826  -6.022 -24.054  0.00  0.00    +0.040 C 
ATOM      9  C   UNL     1      31.422  -7.342 -23.253  0.00  0.00    +0.088 C 
ATOM     10  C   UNL     1      32.676  -5.298 -23.722  0.00  0.00    -0.001 C 
ATOM     11  C   UNL     1      31.496  -5.943 -23.329  0.00  0.00    -0.018 C 
ATOM     12  H   UNL     1      35.738 -10.510 -24.481  0.00  0.00    +0.153 HD
ENDBRANCH   1   3
BRANCH   1  15
ATOM     13  O   UNL     1      34.144 -11.993 -26.398  0.00  0.00    -0.273 OA
ATOM     14  N   UNL     1      33.832 -13.980 -25.244  0.00  0.00    -0.301 N 
ATOM     15  C   UNL     1      34.098 -12.622 -25.343  0.00  0.00    +0.240 C 
ATOM     16  H   UNL     1      33.816 -14.399 -24.353  0.00  0.00    +0.150 HD
BRANCH  14  17
ATOM     17  C   UNL     1      33.579 -14.798 -26.405  0.00  0.00    +0.111 C 
BRANCH  17  18
ATOM     18  C   UNL     1      33.818 -16.275 -26.131  0.00  0.00    +0.109 C 
BRANCH  18  19
ATOM     19  N   UNL     1      35.039 -16.458 -25.383  0.00  0.00    -0.331 N 
ATOM     20  H   UNL     1      35.843 -15.975 -25.681  0.00  0.00    +0.147 HD
BRANCH  19  21
ATOM     21  C   UNL     1      35.143 -17.276 -24.269  0.00  0.00    +0.045 C 
ATOM     22  C   UNL     1      35.569 -16.759 -23.031  0.00  0.00    +0.017 C 
ATOM     23  C   UNL     1      34.829 -18.645 -24.346  0.00  0.00    +0.017 C 
ATOM     24  C   UNL     1      35.676 -17.583 -21.910  0.00  0.00    +0.038 C 
ATOM     25  C   UNL     1      34.936 -19.469 -23.225  0.00  0.00    +0.038 C 
ATOM     26  C   UNL     1      35.360 -18.938 -22.008  0.00  0.00    +0.139 C 
BRANCH  26  27
ATOM     27  O   UNL     1      35.462 -19.741 -20.914  0.00  0.00    -0.471 OA
ATOM     28  C   UNL     1      34.350 -20.585 -20.621  0.00  0.00    +0.252 C 
ENDBRANCH  26  27
ENDBRANCH  19  21
ENDBRANCH  18  19
ENDBRANCH  17  18
ENDBRANCH  14  17
ENDBRANCH   1  15
BRANCH   1  29
ATOM     29  C   UNL     1      33.007 -11.951 -23.194  0.00  0.00    +0.029 C 
BRANCH  29  30
ATOM     30  C   UNL     1      33.152 -12.558 -21.800  0.00  0.00    +0.002 C 
ATOM     31  C   UNL     1      33.434 -14.064 -21.891  0.00  0.00    +0.000 C 
ATOM     32  C   UNL     1      31.898 -12.288 -20.957  0.00  0.00    +0.000 C 
ATOM     33  C   UNL     1      33.531 -14.704 -20.508  0.00  0.00    +0.000 C 
ATOM     34  C   UNL     1      31.998 -12.931 -19.577  0.00  0.00    +0.000 C 
ATOM     35  C   UNL     1      32.287 -14.426 -19.671  0.00  0.00    +0.000 C 
ENDBRANCH  29  30
ENDBRANCH   1  29
TORSDOF 9
ENDMDL
MODEL 5
REMARK VINA RESULT:     -10.1      2.143      4.962
REMARK  Name = 6420159
REMARK  9 active torsions:
REMARK  status: ('A' for Active; 'I' for Inactive)
REMARK    1  A    between atoms: C_1  and  N_3
REMARK    2  A    between atoms: C_1  and  C_15
REMARK    3  A    between atoms: C_1  and  C_29
REMARK    4  A    between atoms: N_14  and  C_17
REMARK    5  A    between atoms: C_17  and  C_18
REMARK    6  A    between atoms: C_18  and  N_19
REMARK    7  A    between atoms: N_19  and  C_21
REMARK    8  A    between atoms: C_26  and  O_27
REMARK    9  A    between atoms: C_29  and  C_30
REMARK                            x       y       z     vdW  Elec       q    Type
REMARK                         _______ _______ _______ _____ _____    ______ ____
ROOT
ATOM      1  C   UNL     1      33.669 -21.643 -18.855  0.00  0.00    +0.151 C 
ENDROOT
BRANCH   1   3
ATOM      2  O   UNL     1      30.900 -23.609 -17.474  0.00  0.00    -0.414 OA
ATOM      3  N   UNL     1      32.452 -22.403 -18.662  0.00  0.00    -0.271 N 
ATOM      4  N   UNL     1      32.693 -22.855 -16.311  0.00  0.00    -0.356 NA
ATOM      5  C   UNL     1      32.068 -22.934 -17.443  0.00  0.00    +0.345 C 
ATOM      6  C   UNL     1      30.761 -24.016 -16.178  0.00  0.00    +0.175 C 
ATOM      7  C   UNL     1      31.860 -23.552 -15.469  0.00  0.00    +0.152 C 
ATOM      8  C   UNL     1      29.724 -24.760 -15.631  0.00  0.00    +0.040 C 
ATOM      9  C   UNL     1      31.955 -23.841 -14.101  0.00  0.00    +0.088 C 
ATOM     10  C   UNL     1      29.833 -25.039 -14.264  0.00  0.00    -0.001 C 
ATOM     11  C   UNL     1      30.926 -24.590 -13.512  0.00  0.00    -0.018 C 
ATOM     12  H   UNL     1      31.866 -22.550 -19.439  0.00  0.00    +0.153 HD
ENDBRANCH   1   3
BRANCH   1  15
ATOM     13  O   UNL     1      32.578 -20.896 -20.885  0.00  0.00    -0.273 OA
ATOM     14  N   UNL     1      34.840 -20.468 -20.615  0.00  0.00    -0.301 N 
ATOM     15  C   UNL     1      33.609 -20.969 -20.219  0.00  0.00    +0.240 C 
ATOM     16  H   UNL     1      35.613 -20.573 -20.015  0.00  0.00    +0.150 HD
BRANCH  14  17
ATOM     17  C   UNL     1      35.025 -19.798 -21.880  0.00  0.00    +0.111 C 
BRANCH  17  18
ATOM     18  C   UNL     1      36.217 -18.854 -21.862  0.00  0.00    +0.109 C 
BRANCH  18  19
ATOM     19  N   UNL     1      35.782 -17.489 -22.047  0.00  0.00    -0.331 N 
ATOM     20  H   UNL     1      35.830 -16.878 -21.276  0.00  0.00    +0.147 HD
BRANCH  19  21
ATOM     21  C   UNL     1      35.299 -16.991 -23.247  0.00  0.00    +0.045 C 
ATOM     22  C   UNL     1      34.992 -15.625 -23.390  0.00  0.00    +0.017 C 
ATOM     23  C   UNL     1      35.102 -17.838 -24.353  0.00  0.00    +0.017 C 
ATOM     24  C   UNL     1      34.505 -15.124 -24.598  0.00  0.00    +0.038 C 
ATOM     25  C   UNL     1      34.615 -17.337 -25.560  0.00  0.00    +0.038 C 
ATOM     26  C   UNL     1      34.316 -15.980 -25.682  0.00  0.00    +0.139 C 
BRANCH  26  27
ATOM     27  O   UNL     1      33.843 -15.492 -26.861  0.00  0.00    -0.471 OA
ATOM     28  C   UNL     1      33.496 -14.108 -26.899  0.00  0.00    +0.252 C 
ENDBRANCH  26  27
ENDBRANCH  19  21
ENDBRANCH  18  19
ENDBRANCH  17  18
ENDBRANCH  14  17
ENDBRANCH   1  15
BRANCH   1  29
ATOM     29  C   UNL     1      34.889 -22.563 -18.778  0.00  0.00    +0.029 C 
BRANCH  29  30
ATOM     30  C   UNL     1      35.735 -22.309 -17.533  0.00  0.00    +0.002 C 
ATOM     31  C   UNL     1      37.175 -21.947 -17.920  0.00  0.00    +0.000 C 
ATOM     32  C   UNL     1      35.711 -23.529 -16.602  0.00  0.00    +0.000 C 
ATOM     33  C   UNL     1      38.055 -21.740 -16.689  0.00  0.00    +0.000 C 
ATOM     34  C   UNL     1      36.593 -23.319 -15.374  0.00  0.00    +0.000 C 
ATOM     35  C   UNL     1      38.021 -22.951 -15.763  0.00  0.00    +0.000 C 
ENDBRANCH  29  30
ENDBRANCH   1  29
TORSDOF 9
ENDMDL
MODEL 6
REMARK VINA RESULT:      -9.9      2.901      8.352
REMARK  Name = 6420159
REMARK  9 active torsions:
REMARK  status: ('A' for Active; 'I' for Inactive)
REMARK    1  A    between atoms: C_1  and  N_3
REMARK    2  A    between atoms: C_1  and  C_15
REMARK    3  A    between atoms: C_1  and  C_29
REMARK    4  A    between atoms: N_14  and  C_17
REMARK    5  A    between atoms: C_17  and  C_18
REMARK    6  A    between atoms: C_18  and  N_19
REMARK    7  A    between atoms: N_19  and  C_21
REMARK    8  A    between atoms: C_26  and  O_27
REMARK    9  A    between atoms: C_29  and  C_30
REMARK                            x       y       z     vdW  Elec       q    Type
REMARK                         _______ _______ _______ _____ _____    ______ ____
ROOT
ATOM      1  C   UNL     1      34.539 -24.277 -15.760  0.00  0.00    +0.151 C 
ENDROOT
BRANCH   1   3
ATOM      2  O   UNL     1      33.208 -22.373 -18.597  0.00  0.00    -0.414 OA
ATOM      3  N   UNL     1      33.687 -23.651 -16.750  0.00  0.00    -0.271 N 
ATOM      4  N   UNL     1      35.398 -22.554 -18.038  0.00  0.00    -0.356 NA
ATOM      5  C   UNL     1      34.166 -22.863 -17.781  0.00  0.00    +0.345 C 
ATOM      6  C   UNL     1      33.934 -21.651 -19.501  0.00  0.00    +0.175 C 
ATOM      7  C   UNL     1      35.273 -21.764 -19.155  0.00  0.00    +0.152 C 
ATOM      8  C   UNL     1      33.455 -20.922 -20.582  0.00  0.00    +0.040 C 
ATOM      9  C   UNL     1      36.233 -21.105 -19.937  0.00  0.00    +0.088 C 
ATOM     10  C   UNL     1      34.424 -20.272 -21.352  0.00  0.00    -0.001 C 
ATOM     11  C   UNL     1      35.786 -20.360 -21.038  0.00  0.00    -0.018 C 
ATOM     12  H   UNL     1      32.716 -23.795 -16.686  0.00  0.00    +0.153 HD
ENDBRANCH   1   3
BRANCH   1  15
ATOM     13  O   UNL     1      34.142 -23.961 -13.391  0.00  0.00    -0.273 OA
ATOM     14  N   UNL     1      32.573 -25.127 -14.637  0.00  0.00    -0.301 N 
ATOM     15  C   UNL     1      33.753 -24.419 -14.464  0.00  0.00    +0.240 C 
ATOM     16  H   UNL     1      32.342 -25.456 -15.536  0.00  0.00    +0.150 HD
BRANCH  14  17
ATOM     17  C   UNL     1      31.671 -25.395 -13.543  0.00  0.00    +0.111 C 
BRANCH  17  18
ATOM     18  C   UNL     1      30.791 -24.199 -13.216  0.00  0.00    +0.109 C 
BRANCH  18  19
ATOM     19  N   UNL     1      30.832 -23.234 -14.289  0.00  0.00    -0.331 N 
ATOM     20  H   UNL     1      31.597 -22.615 -14.328  0.00  0.00    +0.147 HD
BRANCH  19  21
ATOM     21  C   UNL     1      29.857 -23.129 -15.268  0.00  0.00    +0.045 C 
ATOM     22  C   UNL     1      28.635 -22.483 -15.003  0.00  0.00    +0.017 C 
ATOM     23  C   UNL     1      30.061 -23.666 -16.552  0.00  0.00    +0.017 C 
ATOM     24  C   UNL     1      27.652 -22.378 -15.987  0.00  0.00    +0.038 C 
ATOM     25  C   UNL     1      29.078 -23.562 -17.536  0.00  0.00    +0.038 C 
ATOM     26  C   UNL     1      27.874 -22.918 -17.254  0.00  0.00    +0.139 C 
BRANCH  26  27
ATOM     27  O   UNL     1      26.916 -22.815 -18.215  0.00  0.00    -0.471 OA
ATOM     28  C   UNL     1      26.223 -21.571 -18.313  0.00  0.00    +0.252 C 
ENDBRANCH  26  27
ENDBRANCH  19  21
ENDBRANCH  18  19
ENDBRANCH  17  18
ENDBRANCH  14  17
ENDBRANCH   1  15
BRANCH   1  29
ATOM     29  C   UNL     1      35.791 -23.431 -15.524  0.00  0.00    +0.029 C 
BRANCH  29  30
ATOM     30  C   UNL     1      37.013 -24.279 -15.177  0.00  0.00    +0.002 C 
ATOM     31  C   UNL     1      36.687 -25.774 -15.297  0.00  0.00    +0.000 C 
ATOM     32  C   UNL     1      37.523 -23.944 -13.769  0.00  0.00    +0.000 C 
ATOM     33  C   UNL     1      37.878 -26.644 -14.903  0.00  0.00    +0.000 C 
ATOM     34  C   UNL     1      38.712 -24.817 -13.377  0.00  0.00    +0.000 C 
ATOM     35  C   UNL     1      38.387 -26.302 -13.506  0.00  0.00    +0.000 C 
ENDBRANCH  29  30
ENDBRANCH   1  29
TORSDOF 9
ENDMDL
MODEL 7
REMARK VINA RESULT:      -9.9      5.432     13.196
REMARK  Name = 6420159
REMARK  9 active torsions:
REMARK  status: ('A' for Active; 'I' for Inactive)
REMARK    1  A    between atoms: C_1  and  N_3
REMARK    2  A    between atoms: C_1  and  C_15
REMARK    3  A    between atoms: C_1  and  C_29
REMARK    4  A    between atoms: N_14  and  C_17
REMARK    5  A    between atoms: C_17  and  C_18
REMARK    6  A    between atoms: C_18  and  N_19
REMARK    7  A    between atoms: N_19  and  C_21
REMARK    8  A    between atoms: C_26  and  O_27
REMARK    9  A    between atoms: C_29  and  C_30
REMARK                            x       y       z     vdW  Elec       q    Type
REMARK                         _______ _______ _______ _____ _____    ______ ____
ROOT
ATOM      1  C   UNL     1      32.997 -13.283 -22.079  0.00  0.00    +0.151 C 
ENDROOT
BRANCH   1   3
ATOM      2  O   UNL     1      32.498  -9.919 -20.709  0.00  0.00    -0.414 OA
ATOM      3  N   UNL     1      32.879 -12.126 -21.217  0.00  0.00    -0.271 N 
ATOM      4  N   UNL     1      32.315 -10.496 -22.894  0.00  0.00    -0.356 NA
ATOM      5  C   UNL     1      32.557 -10.861 -21.674  0.00  0.00    +0.345 C 
ATOM      6  C   UNL     1      32.171  -8.796 -21.415  0.00  0.00    +0.175 C 
ATOM      7  C   UNL     1      32.060  -9.153 -22.751  0.00  0.00    +0.152 C 
ATOM      8  C   UNL     1      31.976  -7.513 -20.921  0.00  0.00    +0.040 C 
ATOM      9  C   UNL     1      31.729  -8.167 -23.691  0.00  0.00    +0.088 C 
ATOM     10  C   UNL     1      31.646  -6.541 -21.870  0.00  0.00    -0.001 C 
ATOM     11  C   UNL     1      31.524  -6.859 -23.229  0.00  0.00    -0.018 C 
ATOM     12  H   UNL     1      33.036 -12.247 -20.253  0.00  0.00    +0.153 HD
ENDBRANCH   1   3
BRANCH   1  15
ATOM     13  O   UNL     1      32.735 -14.794 -20.204  0.00  0.00    -0.273 OA
ATOM     14  N   UNL     1      34.441 -15.190 -21.723  0.00  0.00    -0.301 N 
ATOM     15  C   UNL     1      33.351 -14.492 -21.225  0.00  0.00    +0.240 C 
ATOM     16  H   UNL     1      34.872 -14.874 -22.550  0.00  0.00    +0.150 HD
BRANCH  14  17
ATOM     17  C   UNL     1      34.963 -16.366 -21.070  0.00  0.00    +0.111 C 
BRANCH  17  18
ATOM     18  C   UNL     1      35.734 -17.262 -22.027  0.00  0.00    +0.109 C 
BRANCH  18  19
ATOM     19  N   UNL     1      35.000 -18.479 -22.278  0.00  0.00    -0.331 N 
ATOM     20  H   UNL     1      34.477 -18.544 -23.111  0.00  0.00    +0.147 HD
BRANCH  19  21
ATOM     21  C   UNL     1      34.989 -19.564 -21.415  0.00  0.00    +0.045 C 
ATOM     22  C   UNL     1      36.191 -20.114 -20.932  0.00  0.00    +0.017 C 
ATOM     23  C   UNL     1      33.777 -20.145 -21.001  0.00  0.00    +0.017 C 
ATOM     24  C   UNL     1      36.181 -21.206 -20.064  0.00  0.00    +0.038 C 
ATOM     25  C   UNL     1      33.766 -21.237 -20.134  0.00  0.00    +0.038 C 
ATOM     26  C   UNL     1      34.968 -21.768 -19.665  0.00  0.00    +0.139 C 
BRANCH  26  27
ATOM     27  O   UNL     1      34.957 -22.833 -18.818  0.00  0.00    -0.471 OA
ATOM     28  C   UNL     1      33.726 -23.127 -18.160  0.00  0.00    +0.252 C 
ENDBRANCH  26  27
ENDBRANCH  19  21
ENDBRANCH  18  19
ENDBRANCH  17  18
ENDBRANCH  14  17
ENDBRANCH   1  15
BRANCH   1  29
ATOM     29  C   UNL     1      34.079 -13.052 -23.135  0.00  0.00    +0.029 C 
BRANCH  29  30
ATOM     30  C   UNL     1      33.562 -13.258 -24.557  0.00  0.00    +0.002 C 
ATOM     31  C   UNL     1      33.883 -14.674 -25.051  0.00  0.00    +0.000 C 
ATOM     32  C   UNL     1      34.148 -12.203 -25.506  0.00  0.00    +0.000 C 
ATOM     33  C   UNL     1      33.422 -14.888 -26.491  0.00  0.00    +0.000 C 
ATOM     34  C   UNL     1      33.688 -12.421 -26.945  0.00  0.00    +0.000 C 
ATOM     35  C   UNL     1      34.001 -13.833 -27.429  0.00  0.00    +0.000 C 
ENDBRANCH  29  30
ENDBRANCH   1  29
TORSDOF 9
ENDMDL
MODEL 8
REMARK VINA RESULT:      -9.7     10.420     15.075
REMARK  Name = 6420159
REMARK  9 active torsions:
REMARK  status: ('A' for Active; 'I' for Inactive)
REMARK    1  A    between atoms: C_1  and  N_3
REMARK    2  A    between atoms: C_1  and  C_15
REMARK    3  A    between atoms: C_1  and  C_29
REMARK    4  A    between atoms: N_14  and  C_17
REMARK    5  A    between atoms: C_17  and  C_18
REMARK    6  A    between atoms: C_18  and  N_19
REMARK    7  A    between atoms: N_19  and  C_21
REMARK    8  A    between atoms: C_26  and  O_27
REMARK    9  A    between atoms: C_29  and  C_30
REMARK                            x       y       z     vdW  Elec       q    Type
REMARK                         _______ _______ _______ _____ _____    ______ ____
ROOT
ATOM      1  C   UNL     1      32.578  -7.347 -22.644  0.00  0.00    +0.151 C 
ENDROOT
BRANCH   1   3
ATOM      2  O   UNL     1      31.962  -9.788 -19.978  0.00  0.00    -0.414 OA
ATOM      3  N   UNL     1      32.275  -8.003 -21.389  0.00  0.00    -0.271 N 
ATOM      4  N   UNL     1      32.522 -10.283 -22.119  0.00  0.00    -0.356 NA
ATOM      5  C   UNL     1      32.270  -9.377 -21.226  0.00  0.00    +0.345 C 
ATOM      6  C   UNL     1      32.027 -11.148 -20.092  0.00  0.00    +0.175 C 
ATOM      7  C   UNL     1      32.370 -11.446 -21.403  0.00  0.00    +0.152 C 
ATOM      8  C   UNL     1      31.799 -12.092 -19.100  0.00  0.00    +0.040 C 
ATOM      9  C   UNL     1      32.503 -12.790 -21.780  0.00  0.00    +0.088 C 
ATOM     10  C   UNL     1      31.935 -13.428 -19.491  0.00  0.00    -0.001 C 
ATOM     11  C   UNL     1      32.280 -13.773 -20.804  0.00  0.00    -0.018 C 
ATOM     12  H   UNL     1      32.061  -7.441 -20.610  0.00  0.00    +0.153 HD
ENDBRANCH   1   3
BRANCH   1  15
ATOM     13  O   UNL     1      34.982  -7.066 -22.540  0.00  0.00    -0.273 OA
ATOM     14  N   UNL     1      34.109  -8.675 -23.963  0.00  0.00    -0.301 N 
ATOM     15  C   UNL     1      34.020  -7.662 -23.020  0.00  0.00    +0.240 C 
ATOM     16  H   UNL     1      33.283  -9.096 -24.292  0.00  0.00    +0.150 HD
BRANCH  14  17
ATOM     17  C   UNL     1      35.377  -9.132 -24.479  0.00  0.00    +0.111 C 
BRANCH  17  18
ATOM     18  C   UNL     1      35.245 -10.424 -25.269  0.00  0.00    +0.109 C 
BRANCH  18  19
ATOM     19  N   UNL     1      34.477 -11.394 -24.525  0.00  0.00    -0.331 N 
ATOM     20  H   UNL     1      34.079 -11.114 -23.669  0.00  0.00    +0.147 HD
BRANCH  19  21
ATOM     21  C   UNL     1      34.268 -12.698 -24.947  0.00  0.00    +0.045 C 
ATOM     22  C   UNL     1      34.588 -13.786 -24.113  0.00  0.00    +0.017 C 
ATOM     23  C   UNL     1      33.732 -12.968 -26.219  0.00  0.00    +0.017 C 
ATOM     24  C   UNL     1      34.379 -15.098 -24.538  0.00  0.00    +0.038 C 
ATOM     25  C   UNL     1      33.523 -14.281 -26.644  0.00  0.00    +0.038 C 
ATOM     26  C   UNL     1      33.847 -15.345 -25.804  0.00  0.00    +0.139 C 
BRANCH  26  27
ATOM     27  O   UNL     1      33.642 -16.625 -26.218  0.00  0.00    -0.471 OA
ATOM     28  C   UNL     1      34.368 -17.652 -25.544  0.00  0.00    +0.252 C 
ENDBRANCH  26  27
ENDBRANCH  19  21
ENDBRANCH  18  19
ENDBRANCH  17  18
ENDBRANCH  14  17
ENDBRANCH   1  15
BRANCH   1  29
ATOM     29  C   UNL     1      32.387  -5.835 -22.514  0.00  0.00    +0.029 C 
BRANCH  29  30
ATOM     30  C   UNL     1      32.113  -5.163 -23.857  0.00  0.00    +0.002 C 
ATOM     31  C   UNL     1      33.377  -5.151 -24.726  0.00  0.00    +0.000 C 
ATOM     32  C   UNL     1      31.578  -3.739 -23.652  0.00  0.00    +0.000 C 
ATOM     33  C   UNL     1      33.141  -4.436 -26.055  0.00  0.00    +0.000 C 
ATOM     34  C   UNL     1      31.346  -3.027 -24.982  0.00  0.00    +0.000 C 
ATOM     35  C   UNL     1      32.602  -3.025 -25.846  0.00  0.00    +0.000 C 
ENDBRANCH  29  30
ENDBRANCH   1  29
TORSDOF 9
ENDMDL
MODEL 9
REMARK VINA RESULT:      -9.7      8.324     15.112
REMARK  Name = 6420159
REMARK  9 active torsions:
REMARK  status: ('A' for Active; 'I' for Inactive)
REMARK    1  A    between atoms: C_1  and  N_3
REMARK    2  A    between atoms: C_1  and  C_15
REMARK    3  A    between atoms: C_1  and  C_29
REMARK    4  A    between atoms: N_14  and  C_17
REMARK    5  A    between atoms: C_17  and  C_18
REMARK    6  A    between atoms: C_18  and  N_19
REMARK    7  A    between atoms: N_19  and  C_21
REMARK    8  A    between atoms: C_26  and  O_27
REMARK    9  A    between atoms: C_29  and  C_30
REMARK                            x       y       z     vdW  Elec       q    Type
REMARK                         _______ _______ _______ _____ _____    ______ ____
ROOT
ATOM      1  C   UNL     1      33.633  -7.789 -23.803  0.00  0.00    +0.151 C 
ENDROOT
BRANCH   1   3
ATOM      2  O   UNL     1      32.820  -8.664 -20.337  0.00  0.00    -0.414 OA
ATOM      3  N   UNL     1      33.424  -7.784 -22.370  0.00  0.00    -0.271 N 
ATOM      4  N   UNL     1      32.608 -10.035 -22.130  0.00  0.00    -0.356 NA
ATOM      5  C   UNL     1      32.943  -8.873 -21.664  0.00  0.00    +0.345 C 
ATOM      6  C   UNL     1      32.340  -9.864 -19.895  0.00  0.00    +0.175 C 
ATOM      7  C   UNL     1      32.211 -10.700 -20.995  0.00  0.00    +0.152 C 
ATOM      8  C   UNL     1      32.025 -10.220 -18.590  0.00  0.00    +0.040 C 
ATOM      9  C   UNL     1      31.732 -12.003 -20.803  0.00  0.00    +0.088 C 
ATOM     10  C   UNL     1      31.548 -11.523 -18.415  0.00  0.00    -0.001 C 
ATOM     11  C   UNL     1      31.403 -12.399 -19.498  0.00  0.00    -0.018 C 
ATOM     12  H   UNL     1      33.635  -6.963 -21.872  0.00  0.00    +0.153 HD
ENDBRANCH   1   3
BRANCH   1  15
ATOM     13  O   UNL     1      35.793  -8.871 -23.974  0.00  0.00    -0.273 OA
ATOM     14  N   UNL     1      33.913 -10.018 -24.698  0.00  0.00    -0.301 N 
ATOM     15  C   UNL     1      34.579  -8.930 -24.153  0.00  0.00    +0.240 C 
ATOM     16  H   UNL     1      32.935  -9.976 -24.803  0.00  0.00    +0.150 HD
BRANCH  14  17
ATOM     17  C   UNL     1      34.608 -11.211 -25.116  0.00  0.00    +0.111 C 
BRANCH  17  18
ATOM     18  C   UNL     1      33.891 -12.479 -24.678  0.00  0.00    +0.109 C 
BRANCH  18  19
ATOM     19  N   UNL     1      34.152 -12.749 -23.284  0.00  0.00    -0.331 N 
ATOM     20  H   UNL     1      34.062 -12.008 -22.641  0.00  0.00    +0.147 HD
BRANCH  19  21
ATOM     21  C   UNL     1      34.523 -13.993 -22.798  0.00  0.00    +0.045 C 
ATOM     22  C   UNL     1      34.978 -15.002 -23.667  0.00  0.00    +0.017 C 
ATOM     23  C   UNL     1      34.454 -14.281 -21.422  0.00  0.00    +0.017 C 
ATOM     24  C   UNL     1      35.350 -16.254 -23.178  0.00  0.00    +0.038 C 
ATOM     25  C   UNL     1      34.826 -15.533 -20.933  0.00  0.00    +0.038 C 
ATOM     26  C   UNL     1      35.274 -16.520 -21.811  0.00  0.00    +0.139 C 
BRANCH  26  27
ATOM     27  O   UNL     1      35.638 -17.741 -21.333  0.00  0.00    -0.471 OA
ATOM     28  C   UNL     1      35.645 -18.826 -22.259  0.00  0.00    +0.252 C 
ENDBRANCH  26  27
ENDBRANCH  19  21
ENDBRANCH  18  19
ENDBRANCH  17  18
ENDBRANCH  14  17
ENDBRANCH   1  15
BRANCH   1  29
ATOM     29  C   UNL     1      34.229  -6.456 -24.258  0.00  0.00    +0.029 C 
BRANCH  29  30
ATOM     30  C   UNL     1      33.176  -5.508 -24.828  0.00  0.00    +0.002 C 
ATOM     31  C   UNL     1      33.801  -4.557 -25.856  0.00  0.00    +0.000 C 
ATOM     32  C   UNL     1      32.488  -4.722 -23.704  0.00  0.00    +0.000 C 
ATOM     33  C   UNL     1      32.777  -3.564 -26.402  0.00  0.00    +0.000 C 
ATOM     34  C   UNL     1      31.467  -3.729 -24.253  0.00  0.00    +0.000 C 
ATOM     35  C   UNL     1      32.091  -2.790 -25.281  0.00  0.00    +0.000 C 
ENDBRANCH  29  30
ENDBRANCH   1  29
TORSDOF 9
ENDMDL
