MODEL 1
REMARK VINA RESULT:     -12.7      0.000      0.000
REMARK  Name = 9808844
REMARK  5 active torsions:
REMARK  status: ('A' for Active; 'I' for Inactive)
REMARK    1  A    between atoms: N_2  and  C_13
REMARK    2  A    between atoms: C_8  and  O_19
REMARK    3  A    between atoms: O_19  and  C_20
REMARK    4  A    between atoms: C_20  and  C_22
REMARK    5  A    between atoms: C_25  and  C_29
REMARK                            x       y       z     vdW  Elec       q    Type
REMARK                         _______ _______ _______ _____ _____    ______ ____
ROOT
ATOM      1  O   UNL     1      35.664 -22.915 -17.382  0.00  0.00    -0.446 OA
ATOM      2  N   UNL     1      35.948 -19.899 -20.969  0.00  0.00    -0.296 N 
ATOM      3  N   UNL     1      33.908 -21.058 -20.519  0.00  0.00    -0.130 NA
ATOM      4  N   UNL     1      33.137 -21.952 -19.785  0.00  0.00    -0.106 NA
ATOM      5  C   UNL     1      35.760 -21.472 -19.117  0.00  0.00    +0.076 A 
ATOM      6  C   UNL     1      34.962 -22.358 -18.407  0.00  0.00    +0.202 A 
ATOM      7  C   UNL     1      35.199 -20.810 -20.204  0.00  0.00    +0.157 A 
ATOM      8  C   UNL     1      33.644 -22.612 -18.726  0.00  0.00    +0.279 A 
ATOM      9  C   UNL     1      37.027 -21.498 -18.477  0.00  0.00    +0.047 C 
ATOM     10  C   UNL     1      36.916 -22.386 -17.433  0.00  0.00    +0.180 C 
ATOM     11  H   UNL     1      36.876 -19.791 -20.657  0.00  0.00    +0.154 HD
ENDROOT
BRANCH   2  13
ATOM     12 CL   UNL     1      34.637 -16.578 -25.692  0.00  0.00    -0.082 Cl
ATOM     13  C   UNL     1      35.636 -19.107 -22.095  0.00  0.00    +0.049 C 
ATOM     14  C   UNL     1      35.149 -19.708 -23.255  0.00  0.00    +0.016 C 
ATOM     15  C   UNL     1      35.813 -17.725 -22.045  0.00  0.00    +0.016 C 
ATOM     16  C   UNL     1      34.840 -18.926 -24.368  0.00  0.00    +0.013 C 
ATOM     17  C   UNL     1      35.505 -16.943 -23.158  0.00  0.00    +0.013 C 
ATOM     18  C   UNL     1      35.018 -17.543 -24.319  0.00  0.00    +0.058 C 
ENDBRANCH   2  13
BRANCH   8  19
ATOM     19  O   UNL     1      32.849 -23.485 -18.031  0.00  0.00    -0.452 OA
BRANCH  19  20
ATOM     20  C   UNL     1      31.983 -22.922 -17.053  0.00  0.00    +0.234 C 
BRANCH  20  22
ATOM     21  N   UNL     1      32.428 -25.087 -13.380  0.00  0.00    -0.239 NA
ATOM     22  C   UNL     1      32.140 -23.680 -15.766  0.00  0.00    +0.024 C 
ATOM     23  C   UNL     1      33.332 -23.609 -15.065  0.00  0.00    +0.023 C 
ATOM     24  C   UNL     1      31.089 -24.449 -15.289  0.00  0.00    +0.020 C 
ATOM     25  C   UNL     1      33.425 -24.326 -13.884  0.00  0.00    +0.134 C 
ATOM     26  C   UNL     1      31.283 -25.129 -14.098  0.00  0.00    +0.099 C 
BRANCH  25  29
ATOM     27  O   UNL     1      34.753 -24.968 -12.060  0.00  0.00    -0.268 OA
ATOM     28  N   UNL     1      35.692 -23.493 -13.583  0.00  0.00    -0.298 N 
ATOM     29  C   UNL     1      34.648 -24.292 -13.101  0.00  0.00    +0.264 C 
ATOM     30  C   UNL     1      36.976 -23.374 -12.931  0.00  0.00    +0.111 C 
ATOM     31  H   UNL     1      35.543 -22.985 -14.413  0.00  0.00    +0.150 HD
ENDBRANCH  25  29
ENDBRANCH  20  22
ENDBRANCH  19  20
ENDBRANCH   8  19
TORSDOF 5
ENDMDL
MODEL 2
REMARK VINA RESULT:     -12.0      2.218      3.901
REMARK  Name = 9808844
REMARK  5 active torsions:
REMARK  status: ('A' for Active; 'I' for Inactive)
REMARK    1  A    between atoms: N_2  and  C_13
REMARK    2  A    between atoms: C_8  and  O_19
REMARK    3  A    between atoms: O_19  and  C_20
REMARK    4  A    between atoms: C_20  and  C_22
REMARK    5  A    between atoms: C_25  and  C_29
REMARK                            x       y       z     vdW  Elec       q    Type
REMARK                         _______ _______ _______ _____ _____    ______ ____
ROOT
ATOM      1  O   UNL     1      36.034 -22.841 -17.287  0.00  0.00    -0.446 OA
ATOM      2  N   UNL     1      36.085 -19.889 -20.937  0.00  0.00    -0.296 N 
ATOM      3  N   UNL     1      34.119 -21.146 -20.423  0.00  0.00    -0.130 NA
ATOM      4  N   UNL     1      33.412 -22.065 -19.656  0.00  0.00    -0.106 NA
ATOM      5  C   UNL     1      36.018 -21.431 -19.052  0.00  0.00    +0.076 A 
ATOM      6  C   UNL     1      35.283 -22.344 -18.308  0.00  0.00    +0.202 A 
ATOM      7  C   UNL     1      35.402 -20.823 -20.140  0.00  0.00    +0.157 A 
ATOM      8  C   UNL     1      33.975 -22.675 -18.594  0.00  0.00    +0.279 A 
ATOM      9  C   UNL     1      37.297 -21.376 -18.437  0.00  0.00    +0.047 C 
ATOM     10  C   UNL     1      37.254 -22.248 -17.373  0.00  0.00    +0.180 C 
ATOM     11  H   UNL     1      37.011 -19.726 -20.646  0.00  0.00    +0.154 HD
ENDROOT
BRANCH   2  13
ATOM     12 CL   UNL     1      34.504 -16.742 -25.697  0.00  0.00    -0.082 Cl
ATOM     13  C   UNL     1      35.709 -19.139 -22.072  0.00  0.00    +0.049 C 
ATOM     14  C   UNL     1      35.815 -17.749 -22.055  0.00  0.00    +0.016 C 
ATOM     15  C   UNL     1      35.231 -19.789 -23.210  0.00  0.00    +0.016 C 
ATOM     16  C   UNL     1      35.443 -17.008 -23.176  0.00  0.00    +0.013 C 
ATOM     17  C   UNL     1      34.858 -19.048 -24.331  0.00  0.00    +0.013 C 
ATOM     18  C   UNL     1      34.965 -17.657 -24.314  0.00  0.00    +0.058 C 
ENDBRANCH   2  13
BRANCH   8  19
ATOM     19  O   UNL     1      33.242 -23.575 -17.867  0.00  0.00    -0.452 OA
BRANCH  19  20
ATOM     20  C   UNL     1      33.015 -23.258 -16.498  0.00  0.00    +0.234 C 
BRANCH  20  22
ATOM     21  N   UNL     1      29.090 -24.577 -15.390  0.00  0.00    -0.239 NA
ATOM     22  C   UNL     1      31.640 -23.720 -16.111  0.00  0.00    +0.024 C 
ATOM     23  C   UNL     1      30.540 -23.292 -16.835  0.00  0.00    +0.023 C 
ATOM     24  C   UNL     1      31.480 -24.571 -15.028  0.00  0.00    +0.020 C 
ATOM     25  C   UNL     1      29.294 -23.747 -16.437  0.00  0.00    +0.134 C 
ATOM     26  C   UNL     1      30.192 -24.969 -14.711  0.00  0.00    +0.099 C 
BRANCH  25  29
ATOM     27  O   UNL     1      27.583 -24.085 -18.006  0.00  0.00    -0.268 OA
ATOM     28  N   UNL     1      27.558 -22.088 -16.829  0.00  0.00    -0.298 N 
ATOM     29  C   UNL     1      28.100 -23.337 -17.156  0.00  0.00    +0.264 C 
ATOM     30  C   UNL     1      26.362 -21.551 -17.438  0.00  0.00    +0.111 C 
ATOM     31  H   UNL     1      28.015 -21.546 -16.147  0.00  0.00    +0.150 HD
ENDBRANCH  25  29
ENDBRANCH  20  22
ENDBRANCH  19  20
ENDBRANCH   8  19
TORSDOF 5
ENDMDL
MODEL 3
REMARK VINA RESULT:     -11.8      2.257      3.631
REMARK  Name = 9808844
REMARK  5 active torsions:
REMARK  status: ('A' for Active; 'I' for Inactive)
REMARK    1  A    between atoms: N_2  and  C_13
REMARK    2  A    between atoms: C_8  and  O_19
REMARK    3  A    between atoms: O_19  and  C_20
REMARK    4  A    between atoms: C_20  and  C_22
REMARK    5  A    between atoms: C_25  and  C_29
REMARK                            x       y       z     vdW  Elec       q    Type
REMARK                         _______ _______ _______ _____ _____    ______ ____
ROOT
ATOM      1  O   UNL     1      35.702 -22.440 -18.381  0.00  0.00    -0.446 OA
ATOM      2  N   UNL     1      35.814 -19.260 -21.833  0.00  0.00    -0.296 N 
ATOM      3  N   UNL     1      33.765 -20.340 -21.246  0.00  0.00    -0.130 NA
ATOM      4  N   UNL     1      33.018 -21.232 -20.485  0.00  0.00    -0.106 NA
ATOM      5  C   UNL     1      35.714 -20.916 -20.048  0.00  0.00    +0.076 A 
ATOM      6  C   UNL     1      34.938 -21.797 -19.307  0.00  0.00    +0.202 A 
ATOM      7  C   UNL     1      35.091 -20.172 -21.044  0.00  0.00    +0.157 A 
ATOM      8  C   UNL     1      33.586 -21.970 -19.511  0.00  0.00    +0.279 A 
ATOM      9  C   UNL     1      37.032 -21.036 -19.533  0.00  0.00    +0.047 C 
ATOM     10  C   UNL     1      36.970 -21.972 -18.525  0.00  0.00    +0.180 C 
ATOM     11  H   UNL     1      36.771 -19.214 -21.606  0.00  0.00    +0.154 HD
ENDROOT
BRANCH   2  13
ATOM     12 CL   UNL     1      34.251 -15.639 -26.249  0.00  0.00    -0.082 Cl
ATOM     13  C   UNL     1      35.441 -18.397 -22.885  0.00  0.00    +0.049 C 
ATOM     14  C   UNL     1      34.953 -18.925 -24.080  0.00  0.00    +0.016 C 
ATOM     15  C   UNL     1      35.561 -17.016 -22.730  0.00  0.00    +0.016 C 
ATOM     16  C   UNL     1      34.585 -18.072 -25.120  0.00  0.00    +0.013 C 
ATOM     17  C   UNL     1      35.193 -16.163 -23.770  0.00  0.00    +0.013 C 
ATOM     18  C   UNL     1      34.705 -16.691 -24.965  0.00  0.00    +0.058 C 
ENDBRANCH   2  13
BRANCH   8  19
ATOM     19  O   UNL     1      32.813 -22.838 -18.786  0.00  0.00    -0.452 OA
BRANCH  19  20
ATOM     20  C   UNL     1      33.343 -23.283 -17.542  0.00  0.00    +0.234 C 
BRANCH  20  22
ATOM     21  N   UNL     1      30.235 -23.215 -14.591  0.00  0.00    -0.239 NA
ATOM     22  C   UNL     1      32.254 -23.258 -16.509  0.00  0.00    +0.024 C 
ATOM     23  C   UNL     1      30.959 -22.938 -16.881  0.00  0.00    +0.023 C 
ATOM     24  C   UNL     1      32.552 -23.557 -15.189  0.00  0.00    +0.020 C 
ATOM     25  C   UNL     1      29.991 -22.930 -15.890  0.00  0.00    +0.134 C 
ATOM     26  C   UNL     1      31.513 -23.521 -14.273  0.00  0.00    +0.099 C 
BRANCH  25  29
ATOM     27  O   UNL     1      27.829 -22.214 -15.328  0.00  0.00    -0.268 OA
ATOM     28  N   UNL     1      28.228 -22.722 -17.555  0.00  0.00    -0.298 N 
ATOM     29  C   UNL     1      28.613 -22.603 -16.213  0.00  0.00    +0.264 C 
ATOM     30  C   UNL     1      26.902 -22.411 -18.037  0.00  0.00    +0.111 C 
ATOM     31  H   UNL     1      28.898 -23.034 -18.205  0.00  0.00    +0.150 HD
ENDBRANCH  25  29
ENDBRANCH  20  22
ENDBRANCH  19  20
ENDBRANCH   8  19
TORSDOF 5
ENDMDL
MODEL 4
REMARK VINA RESULT:     -11.3      7.129     10.766
REMARK  Name = 9808844
REMARK  5 active torsions:
REMARK  status: ('A' for Active; 'I' for Inactive)
REMARK    1  A    between atoms: N_2  and  C_13
REMARK    2  A    between atoms: C_8  and  O_19
REMARK    3  A    between atoms: O_19  and  C_20
REMARK    4  A    between atoms: C_20  and  C_22
REMARK    5  A    between atoms: C_25  and  C_29
REMARK                            x       y       z     vdW  Elec       q    Type
REMARK                         _______ _______ _______ _____ _____    ______ ____
ROOT
ATOM      1  O   UNL     1      32.846 -14.337 -21.676  0.00  0.00    -0.446 OA
ATOM      2  N   UNL     1      32.701  -9.730 -22.570  0.00  0.00    -0.296 N 
ATOM      3  N   UNL     1      33.566 -11.253 -24.195  0.00  0.00    -0.130 NA
ATOM      4  N   UNL     1      33.897 -12.531 -24.630  0.00  0.00    -0.106 NA
ATOM      5  C   UNL     1      32.793 -12.128 -22.145  0.00  0.00    +0.076 A 
ATOM      6  C   UNL     1      33.135 -13.390 -22.611  0.00  0.00    +0.202 A 
ATOM      7  C   UNL     1      33.023 -11.037 -22.976  0.00  0.00    +0.157 A 
ATOM      8  C   UNL     1      33.689 -13.613 -23.853  0.00  0.00    +0.279 A 
ATOM      9  C   UNL     1      32.262 -12.329 -20.843  0.00  0.00    +0.047 C 
ATOM     10  C   UNL     1      32.316 -13.684 -20.608  0.00  0.00    +0.180 C 
ATOM     11  H   UNL     1      32.311  -9.682 -21.667  0.00  0.00    +0.154 HD
ENDROOT
BRANCH   2  13
ATOM     12 CL   UNL     1      33.217  -4.455 -25.209  0.00  0.00    -0.082 Cl
ATOM     13  C   UNL     1      32.824  -8.473 -23.199  0.00  0.00    +0.049 C 
ATOM     14  C   UNL     1      34.051  -7.811 -23.200  0.00  0.00    +0.016 C 
ATOM     15  C   UNL     1      31.718  -7.893 -23.820  0.00  0.00    +0.016 C 
ATOM     16  C   UNL     1      34.173  -6.569 -23.821  0.00  0.00    +0.013 C 
ATOM     17  C   UNL     1      31.840  -6.650 -24.442  0.00  0.00    +0.013 C 
ATOM     18  C   UNL     1      33.067  -5.989 -24.442  0.00  0.00    +0.058 C 
ENDBRANCH   2  13
BRANCH   8  19
ATOM     19  O   UNL     1      34.031 -14.854 -24.321  0.00  0.00    -0.452 OA
BRANCH  19  20
ATOM     20  C   UNL     1      35.323 -15.337 -23.972  0.00  0.00    +0.234 C 
BRANCH  20  22
ATOM     21  N   UNL     1      35.133 -19.589 -23.467  0.00  0.00    -0.239 NA
ATOM     22  C   UNL     1      35.257 -16.826 -23.794  0.00  0.00    +0.024 C 
ATOM     23  C   UNL     1      35.772 -17.407 -22.647  0.00  0.00    +0.023 C 
ATOM     24  C   UNL     1      34.682 -17.612 -24.781  0.00  0.00    +0.020 C 
ATOM     25  C   UNL     1      35.685 -18.785 -22.532  0.00  0.00    +0.134 C 
ATOM     26  C   UNL     1      34.645 -18.980 -24.571  0.00  0.00    +0.099 C 
BRANCH  25  29
ATOM     27  O   UNL     1      37.195 -19.001 -20.750  0.00  0.00    -0.268 OA
ATOM     28  N   UNL     1      35.531 -20.606 -20.925  0.00  0.00    -0.298 N 
ATOM     29  C   UNL     1      36.205 -19.455 -21.353  0.00  0.00    +0.264 C 
ATOM     30  C   UNL     1      35.912 -21.369 -19.758  0.00  0.00    +0.111 C 
ATOM     31  H   UNL     1      34.755 -20.912 -21.447  0.00  0.00    +0.150 HD
ENDBRANCH  25  29
ENDBRANCH  20  22
ENDBRANCH  19  20
ENDBRANCH   8  19
TORSDOF 5
ENDMDL
MODEL 5
REMARK VINA RESULT:     -11.3      7.464     11.845
REMARK  Name = 9808844
REMARK  5 active torsions:
REMARK  status: ('A' for Active; 'I' for Inactive)
REMARK    1  A    between atoms: N_2  and  C_13
REMARK    2  A    between atoms: C_8  and  O_19
REMARK    3  A    between atoms: O_19  and  C_20
REMARK    4  A    between atoms: C_20  and  C_22
REMARK    5  A    between atoms: C_25  and  C_29
REMARK                            x       y       z     vdW  Elec       q    Type
REMARK                         _______ _______ _______ _____ _____    ______ ____
ROOT
ATOM      1  O   UNL     1      33.841 -13.951 -25.453  0.00  0.00    -0.446 OA
ATOM      2  N   UNL     1      35.332 -17.817 -23.246  0.00  0.00    -0.296 N 
ATOM      3  N   UNL     1      34.730 -15.867 -22.002  0.00  0.00    -0.130 NA
ATOM      4  N   UNL     1      34.278 -14.556 -21.913  0.00  0.00    -0.106 NA
ATOM      5  C   UNL     1      34.553 -15.791 -24.354  0.00  0.00    +0.076 A 
ATOM      6  C   UNL     1      34.105 -14.483 -24.228  0.00  0.00    +0.202 A 
ATOM      7  C   UNL     1      34.872 -16.490 -23.195  0.00  0.00    +0.157 A 
ATOM      8  C   UNL     1      33.960 -13.847 -23.013  0.00  0.00    +0.279 A 
ATOM      9  C   UNL     1      34.559 -16.063 -25.747  0.00  0.00    +0.047 C 
ATOM     10  C   UNL     1      34.119 -14.917 -26.368  0.00  0.00    +0.180 C 
ATOM     11  H   UNL     1      35.399 -18.176 -24.160  0.00  0.00    +0.154 HD
ENDROOT
BRANCH   2  13
ATOM     12 CL   UNL     1      36.944 -21.682 -19.061  0.00  0.00    -0.082 Cl
ATOM     13  C   UNL     1      35.716 -18.738 -22.249  0.00  0.00    +0.049 C 
ATOM     14  C   UNL     1      37.019 -18.724 -21.752  0.00  0.00    +0.016 C 
ATOM     15  C   UNL     1      34.792 -19.662 -21.760  0.00  0.00    +0.016 C 
ATOM     16  C   UNL     1      37.399 -19.634 -20.766  0.00  0.00    +0.013 C 
ATOM     17  C   UNL     1      35.172 -20.572 -20.774  0.00  0.00    +0.013 C 
ATOM     18  C   UNL     1      36.475 -20.558 -20.277  0.00  0.00    +0.058 C 
ENDBRANCH   2  13
BRANCH   8  19
ATOM     19  O   UNL     1      33.519 -12.556 -22.879  0.00  0.00    -0.452 OA
BRANCH  19  20
ATOM     20  C   UNL     1      32.183 -12.381 -22.422  0.00  0.00    +0.234 C 
BRANCH  20  22
ATOM     21  N   UNL     1      32.160  -9.508 -19.241  0.00  0.00    -0.239 NA
ATOM     22  C   UNL     1      32.175 -11.374 -21.309  0.00  0.00    +0.024 C 
ATOM     23  C   UNL     1      32.364 -10.032 -21.592  0.00  0.00    +0.023 C 
ATOM     24  C   UNL     1      31.979 -11.795 -20.002  0.00  0.00    +0.020 C 
ATOM     25  C   UNL     1      32.348  -9.143 -20.529  0.00  0.00    +0.134 C 
ATOM     26  C   UNL     1      31.980 -10.828 -19.010  0.00  0.00    +0.099 C 
BRANCH  25  29
ATOM     27  O   UNL     1      33.269  -7.051 -20.006  0.00  0.00    -0.268 OA
ATOM     28  N   UNL     1      31.890  -7.162 -21.866  0.00  0.00    -0.298 N 
ATOM     29  C   UNL     1      32.539  -7.722 -20.758  0.00  0.00    +0.264 C 
ATOM     30  C   UNL     1      32.001  -5.771 -22.239  0.00  0.00    +0.111 C 
ATOM     31  H   UNL     1      31.327  -7.749 -22.421  0.00  0.00    +0.150 HD
ENDBRANCH  25  29
ENDBRANCH  20  22
ENDBRANCH  19  20
ENDBRANCH   8  19
TORSDOF 5
ENDMDL
MODEL 6
REMARK VINA RESULT:     -10.9      8.124     11.615
REMARK  Name = 9808844
REMARK  5 active torsions:
REMARK  status: ('A' for Active; 'I' for Inactive)
REMARK    1  A    between atoms: N_2  and  C_13
REMARK    2  A    between atoms: C_8  and  O_19
REMARK    3  A    between atoms: O_19  and  C_20
REMARK    4  A    between atoms: C_20  and  C_22
REMARK    5  A    between atoms: C_25  and  C_29
REMARK                            x       y       z     vdW  Elec       q    Type
REMARK                         _______ _______ _______ _____ _____    ______ ____
ROOT
ATOM      1  O   UNL     1      31.838 -12.419 -19.613  0.00  0.00    -0.446 OA
ATOM      2  N   UNL     1      32.106  -8.244 -21.742  0.00  0.00    -0.296 N 
ATOM      3  N   UNL     1      32.787 -10.231 -22.881  0.00  0.00    -0.130 NA
ATOM      4  N   UNL     1      32.986 -11.605 -22.945  0.00  0.00    -0.106 NA
ATOM      5  C   UNL     1      31.982 -10.430 -20.672  0.00  0.00    +0.076 A 
ATOM      6  C   UNL     1      32.194 -11.798 -20.771  0.00  0.00    +0.202 A 
ATOM      7  C   UNL     1      32.294  -9.637 -21.771  0.00  0.00    +0.157 A 
ATOM      8  C   UNL     1      32.696 -12.407 -21.902  0.00  0.00    +0.279 A 
ATOM      9  C   UNL     1      31.465 -10.213 -19.368  0.00  0.00    +0.047 C 
ATOM     10  C   UNL     1      31.396 -11.450 -18.768  0.00  0.00    +0.180 C 
ATOM     11  H   UNL     1      31.743  -7.913 -20.889  0.00  0.00    +0.154 HD
ENDROOT
BRANCH   2  13
ATOM     12 CL   UNL     1      33.056  -3.973 -25.731  0.00  0.00    -0.082 Cl
ATOM     13  C   UNL     1      32.332  -7.226 -22.693  0.00  0.00    +0.049 C 
ATOM     14  C   UNL     1      33.618  -7.006 -23.186  0.00  0.00    +0.016 C 
ATOM     15  C   UNL     1      31.270  -6.440 -23.139  0.00  0.00    +0.016 C 
ATOM     16  C   UNL     1      33.842  -6.001 -24.126  0.00  0.00    +0.013 C 
ATOM     17  C   UNL     1      31.494  -5.434 -24.079  0.00  0.00    +0.013 C 
ATOM     18  C   UNL     1      32.779  -5.215 -24.572  0.00  0.00    +0.058 C 
ENDBRANCH   2  13
BRANCH   8  19
ATOM     19  O   UNL     1      32.909 -13.756 -22.008  0.00  0.00    -0.452 OA
BRANCH  19  20
ATOM     20  C   UNL     1      34.022 -14.286 -21.298  0.00  0.00    +0.234 C 
BRANCH  20  22
ATOM     21  N   UNL     1      35.823 -17.388 -23.644  0.00  0.00    -0.239 NA
ATOM     22  C   UNL     1      34.653 -15.373 -22.119  0.00  0.00    +0.024 C 
ATOM     23  C   UNL     1      35.205 -16.478 -21.492  0.00  0.00    +0.023 C 
ATOM     24  C   UNL     1      34.680 -15.263 -23.501  0.00  0.00    +0.020 C 
ATOM     25  C   UNL     1      35.775 -17.452 -22.295  0.00  0.00    +0.134 C 
ATOM     26  C   UNL     1      35.273 -16.292 -24.214  0.00  0.00    +0.099 C 
BRANCH  25  29
ATOM     27  O   UNL     1      37.605 -18.795 -21.706  0.00  0.00    -0.268 OA
ATOM     28  N   UNL     1      35.499 -19.559 -21.109  0.00  0.00    -0.298 N 
ATOM     29  C   UNL     1      36.370 -18.636 -21.700  0.00  0.00    +0.264 C 
ATOM     30  C   UNL     1      35.939 -20.772 -20.457  0.00  0.00    +0.111 C 
ATOM     31  H   UNL     1      34.533 -19.372 -21.139  0.00  0.00    +0.150 HD
ENDBRANCH  25  29
ENDBRANCH  20  22
ENDBRANCH  19  20
ENDBRANCH   8  19
TORSDOF 5
ENDMDL
MODEL 7
REMARK VINA RESULT:     -10.9      5.396      8.898
REMARK  Name = 9808844
REMARK  5 active torsions:
REMARK  status: ('A' for Active; 'I' for Inactive)
REMARK    1  A    between atoms: N_2  and  C_13
REMARK    2  A    between atoms: C_8  and  O_19
REMARK    3  A    between atoms: O_19  and  C_20
REMARK    4  A    between atoms: C_20  and  C_22
REMARK    5  A    between atoms: C_25  and  C_29
REMARK                            x       y       z     vdW  Elec       q    Type
REMARK                         _______ _______ _______ _____ _____    ______ ____
ROOT
ATOM      1  O   UNL     1      34.577 -16.018 -26.168  0.00  0.00    -0.446 OA
ATOM      2  N   UNL     1      32.790 -12.594 -23.498  0.00  0.00    -0.296 N 
ATOM      3  N   UNL     1      34.173 -14.287 -22.533  0.00  0.00    -0.130 NA
ATOM      4  N   UNL     1      34.950 -15.436 -22.617  0.00  0.00    -0.106 NA
ATOM      5  C   UNL     1      33.737 -14.387 -24.849  0.00  0.00    +0.076 A 
ATOM      6  C   UNL     1      34.519 -15.533 -24.896  0.00  0.00    +0.202 A 
ATOM      7  C   UNL     1      33.569 -13.758 -23.621  0.00  0.00    +0.157 A 
ATOM      8  C   UNL     1      35.136 -16.074 -23.789  0.00  0.00    +0.279 A 
ATOM      9  C   UNL     1      33.294 -14.168 -26.180  0.00  0.00    +0.047 C 
ATOM     10  C   UNL     1      33.831 -15.183 -26.939  0.00  0.00    +0.180 C 
ATOM     11  H   UNL     1      32.395 -12.293 -24.348  0.00  0.00    +0.154 HD
ENDROOT
BRANCH   2  13
ATOM     12 CL   UNL     1      31.413  -9.143 -18.888  0.00  0.00    -0.082 Cl
ATOM     13  C   UNL     1      32.462 -11.771 -22.399  0.00  0.00    +0.049 C 
ATOM     14  C   UNL     1      32.110 -12.347 -21.178  0.00  0.00    +0.016 C 
ATOM     15  C   UNL     1      32.490 -10.384 -22.534  0.00  0.00    +0.016 C 
ATOM     16  C   UNL     1      31.785 -11.534 -20.093  0.00  0.00    +0.013 C 
ATOM     17  C   UNL     1      32.166  -9.571 -21.449  0.00  0.00    +0.013 C 
ATOM     18  C   UNL     1      31.814 -10.146 -20.228  0.00  0.00    +0.058 C 
ENDBRANCH   2  13
BRANCH   8  19
ATOM     19  O   UNL     1      35.910 -17.204 -23.826  0.00  0.00    -0.452 OA
BRANCH  19  20
ATOM     20  C   UNL     1      35.225 -18.451 -23.773  0.00  0.00    +0.234 C 
BRANCH  20  22
ATOM     21  N   UNL     1      36.205 -20.425 -20.097  0.00  0.00    -0.239 NA
ATOM     22  C   UNL     1      35.567 -19.143 -22.485  0.00  0.00    +0.024 C 
ATOM     23  C   UNL     1      34.607 -19.896 -21.832  0.00  0.00    +0.023 C 
ATOM     24  C   UNL     1      36.844 -19.022 -21.958  0.00  0.00    +0.020 C 
ATOM     25  C   UNL     1      34.974 -20.515 -20.648  0.00  0.00    +0.134 C 
ATOM     26  C   UNL     1      37.110 -19.679 -20.768  0.00  0.00    +0.099 C 
BRANCH  25  29
ATOM     27  O   UNL     1      32.790 -21.147 -20.069  0.00  0.00    -0.268 OA
ATOM     28  N   UNL     1      34.528 -22.302 -19.057  0.00  0.00    -0.298 N 
ATOM     29  C   UNL     1      34.013 -21.321 -19.914  0.00  0.00    +0.264 C 
ATOM     30  C   UNL     1      33.702 -23.197 -18.278  0.00  0.00    +0.111 C 
ATOM     31  H   UNL     1      35.505 -22.387 -18.981  0.00  0.00    +0.150 HD
ENDBRANCH  25  29
ENDBRANCH  20  22
ENDBRANCH  19  20
ENDBRANCH   8  19
TORSDOF 5
ENDMDL
MODEL 8
REMARK VINA RESULT:     -10.8      9.019     12.638
REMARK  Name = 9808844
REMARK  5 active torsions:
REMARK  status: ('A' for Active; 'I' for Inactive)
REMARK    1  A    between atoms: N_2  and  C_13
REMARK    2  A    between atoms: C_8  and  O_19
REMARK    3  A    between atoms: O_19  and  C_20
REMARK    4  A    between atoms: C_20  and  C_22
REMARK    5  A    between atoms: C_25  and  C_29
REMARK                            x       y       z     vdW  Elec       q    Type
REMARK                         _______ _______ _______ _____ _____    ______ ____
ROOT
ATOM      1  O   UNL     1      31.840 -12.357 -19.032  0.00  0.00    -0.446 OA
ATOM      2  N   UNL     1      32.159  -8.472 -21.649  0.00  0.00    -0.296 N 
ATOM      3  N   UNL     1      32.716 -10.605 -22.572  0.00  0.00    -0.130 NA
ATOM      4  N   UNL     1      32.863 -11.984 -22.482  0.00  0.00    -0.106 NA
ATOM      5  C   UNL     1      32.006 -10.512 -20.324  0.00  0.00    +0.076 A 
ATOM      6  C   UNL     1      32.164 -11.890 -20.269  0.00  0.00    +0.202 A 
ATOM      7  C   UNL     1      32.296  -9.865 -21.521  0.00  0.00    +0.157 A 
ATOM      8  C   UNL     1      32.592 -12.646 -21.340  0.00  0.00    +0.279 A 
ATOM      9  C   UNL     1      31.557 -10.124 -19.034  0.00  0.00    +0.047 C 
ATOM     10  C   UNL     1      31.472 -11.279 -18.290  0.00  0.00    +0.180 C 
ATOM     11  H   UNL     1      31.848  -8.030 -20.827  0.00  0.00    +0.154 HD
ENDROOT
BRANCH   2  13
ATOM     12 CL   UNL     1      33.078  -4.736 -26.149  0.00  0.00    -0.082 Cl
ATOM     13  C   UNL     1      32.378  -7.582 -22.722  0.00  0.00    +0.049 C 
ATOM     14  C   UNL     1      33.623  -6.974 -22.880  0.00  0.00    +0.016 C 
ATOM     15  C   UNL     1      31.349  -7.311 -23.624  0.00  0.00    +0.016 C 
ATOM     16  C   UNL     1      33.840  -6.094 -23.940  0.00  0.00    +0.013 C 
ATOM     17  C   UNL     1      31.566  -6.431 -24.684  0.00  0.00    +0.013 C 
ATOM     18  C   UNL     1      32.811  -5.823 -24.841  0.00  0.00    +0.058 C 
ENDBRANCH   2  13
BRANCH   8  19
ATOM     19  O   UNL     1      32.752 -14.006 -21.295  0.00  0.00    -0.452 OA
BRANCH  19  20
ATOM     20  C   UNL     1      34.079 -14.490 -21.130  0.00  0.00    +0.234 C 
BRANCH  20  22
ATOM     21  N   UNL     1      35.237 -16.632 -24.658  0.00  0.00    -0.239 NA
ATOM     22  C   UNL     1      34.484 -15.240 -22.366  0.00  0.00    +0.024 C 
ATOM     23  C   UNL     1      34.028 -14.822 -23.605  0.00  0.00    +0.023 C 
ATOM     24  C   UNL     1      35.312 -16.347 -22.259  0.00  0.00    +0.020 C 
ATOM     25  C   UNL     1      34.432 -15.548 -24.715  0.00  0.00    +0.134 C 
ATOM     26  C   UNL     1      35.657 -17.005 -23.428  0.00  0.00    +0.099 C 
BRANCH  25  29
ATOM     27  O   UNL     1      33.805 -16.022 -26.925  0.00  0.00    -0.268 OA
ATOM     28  N   UNL     1      33.763 -13.799 -26.268  0.00  0.00    -0.298 N 
ATOM     29  C   UNL     1      33.989 -15.162 -26.043  0.00  0.00    +0.264 C 
ATOM     30  C   UNL     1      33.299 -13.262 -27.527  0.00  0.00    +0.111 C 
ATOM     31  H   UNL     1      33.927 -13.172 -25.528  0.00  0.00    +0.150 HD
ENDBRANCH  25  29
ENDBRANCH  20  22
ENDBRANCH  19  20
ENDBRANCH   8  19
TORSDOF 5
ENDMDL
MODEL 9
REMARK VINA RESULT:     -10.8      6.757     11.410
REMARK  Name = 9808844
REMARK  5 active torsions:
REMARK  status: ('A' for Active; 'I' for Inactive)
REMARK    1  A    between atoms: N_2  and  C_13
REMARK    2  A    between atoms: C_8  and  O_19
REMARK    3  A    between atoms: O_19  and  C_20
REMARK    4  A    between atoms: C_20  and  C_22
REMARK    5  A    between atoms: C_25  and  C_29
REMARK                            x       y       z     vdW  Elec       q    Type
REMARK                         _______ _______ _______ _____ _____    ______ ____
ROOT
ATOM      1  O   UNL     1      34.905 -15.545 -25.012  0.00  0.00    -0.446 OA
ATOM      2  N   UNL     1      35.255 -19.316 -22.238  0.00  0.00    -0.296 N 
ATOM      3  N   UNL     1      35.091 -17.128 -21.293  0.00  0.00    -0.130 NA
ATOM      4  N   UNL     1      34.977 -15.747 -21.401  0.00  0.00    -0.106 NA
ATOM      5  C   UNL     1      35.071 -17.334 -23.643  0.00  0.00    +0.076 A 
ATOM      6  C   UNL     1      34.958 -15.952 -23.714  0.00  0.00    +0.202 A 
ATOM      7  C   UNL     1      35.139 -17.923 -22.385  0.00  0.00    +0.157 A 
ATOM      8  C   UNL     1      34.909 -15.139 -22.601  0.00  0.00    +0.279 A 
ATOM      9  C   UNL     1      35.088 -17.788 -24.988  0.00  0.00    +0.047 C 
ATOM     10  C   UNL     1      34.984 -16.665 -25.778  0.00  0.00    +0.180 C 
ATOM     11  H   UNL     1      35.281 -19.802 -23.094  0.00  0.00    +0.154 HD
ENDROOT
BRANCH   2  13
ATOM     12 CL   UNL     1      35.611 -22.844 -17.496  0.00  0.00    -0.082 Cl
ATOM     13  C   UNL     1      35.340 -20.157 -21.108  0.00  0.00    +0.049 C 
ATOM     14  C   UNL     1      34.190 -20.765 -20.603  0.00  0.00    +0.016 C 
ATOM     15  C   UNL     1      36.573 -20.381 -20.497  0.00  0.00    +0.016 C 
ATOM     16  C   UNL     1      34.274 -21.596 -19.487  0.00  0.00    +0.013 C 
ATOM     17  C   UNL     1      36.657 -21.212 -19.380  0.00  0.00    +0.013 C 
ATOM     18  C   UNL     1      35.508 -21.819 -18.875  0.00  0.00    +0.058 C 
ENDBRANCH   2  13
BRANCH   8  19
ATOM     19  O   UNL     1      34.798 -13.775 -22.661  0.00  0.00    -0.452 OA
BRANCH  19  20
ATOM     20  C   UNL     1      33.707 -13.254 -23.412  0.00  0.00    +0.234 C 
BRANCH  20  22
ATOM     21  N   UNL     1      31.376 -10.690 -20.889  0.00  0.00    -0.239 NA
ATOM     22  C   UNL     1      32.891 -12.355 -22.528  0.00  0.00    +0.024 C 
ATOM     23  C   UNL     1      32.821 -10.999 -22.801  0.00  0.00    +0.023 C 
ATOM     24  C   UNL     1      32.212 -12.889 -21.444  0.00  0.00    +0.020 C 
ATOM     25  C   UNL     1      32.054 -10.214 -21.956  0.00  0.00    +0.134 C 
ATOM     26  C   UNL     1      31.473 -12.019 -20.659  0.00  0.00    +0.099 C 
BRANCH  25  29
ATOM     27  O   UNL     1      31.335  -8.351 -23.187  0.00  0.00    -0.268 OA
ATOM     28  N   UNL     1      32.511  -7.936 -21.232  0.00  0.00    -0.298 N 
ATOM     29  C   UNL     1      31.939  -8.784 -22.188  0.00  0.00    +0.264 C 
ATOM     30  C   UNL     1      32.459  -6.493 -21.310  0.00  0.00    +0.111 C 
ATOM     31  H   UNL     1      32.973  -8.344 -20.465  0.00  0.00    +0.150 HD
ENDBRANCH  25  29
ENDBRANCH  20  22
ENDBRANCH  19  20
ENDBRANCH   8  19
TORSDOF 5
ENDMDL
