MODEL 1
REMARK VINA RESULT:     -11.3      0.000      0.000
REMARK  Name = 9799284
REMARK  5 active torsions:
REMARK  status: ('A' for Active; 'I' for Inactive)
REMARK    1  A    between atoms: N_1  and  C_19
REMARK    2  A    between atoms: C_2  and  C_8
REMARK    3  A    between atoms: C_8  and  N_10
REMARK    4  A    between atoms: C_19  and  C_21
REMARK    5  A    between atoms: C_21  and  C_23
REMARK                            x       y       z     vdW  Elec       q    Type
REMARK                         _______ _______ _______ _____ _____    ______ ____
ROOT
ATOM      1  N   UNL     1      34.298 -13.786 -23.673  0.00  0.00    +0.392 N 
ATOM      2  C   UNL     1      34.979 -16.630 -23.460  0.00  0.00    +0.016 C 
ATOM      3  C   UNL     1      34.913 -15.898 -24.805  0.00  0.00    -0.021 C 
ATOM      4  C   UNL     1      35.273 -15.628 -22.339  0.00  0.00    -0.021 C 
ATOM      5  C   UNL     1      33.940 -14.719 -24.750  0.00  0.00    -0.077 C 
ATOM      6  C   UNL     1      34.289 -14.457 -22.365  0.00  0.00    -0.077 C 
ATOM      7  H   UNL     1      35.246 -13.452 -23.848  0.00  0.00    -0.079 HD
ENDROOT
BRANCH   2   8
ATOM      8  C   UNL     1      36.024 -17.743 -23.491  0.00  0.00    +0.094 C 
BRANCH   8  10
ATOM      9  O   UNL     1      37.877 -19.076 -21.515  0.00  0.00    -0.270 OA
ATOM     10  N   UNL     1      35.749 -18.732 -22.492  0.00  0.00    -0.272 N 
ATOM     11  C   UNL     1      34.402 -19.271 -22.285  0.00  0.00    +0.121 C 
ATOM     12  C   UNL     1      36.684 -19.295 -21.615  0.00  0.00    +0.249 C 
ATOM     13  C   UNL     1      34.610 -20.238 -21.170  0.00  0.00    +0.002 C 
ATOM     14  C   UNL     1      35.949 -20.250 -20.780  0.00  0.00    +0.051 C 
ATOM     15  C   UNL     1      33.691 -21.055 -20.539  0.00  0.00    -0.002 C 
ATOM     16  C   UNL     1      36.423 -21.059 -19.765  0.00  0.00    +0.004 C 
ATOM     17  C   UNL     1      34.144 -21.883 -19.507  0.00  0.00    -0.000 C 
ATOM     18  C   UNL     1      35.499 -21.885 -19.124  0.00  0.00    +0.000 C 
ENDBRANCH   8  10
ENDBRANCH   2   8
BRANCH   1  19
ATOM     19  C   UNL     1      33.391 -12.639 -23.666  0.00  0.00    -0.006 C 
BRANCH  19  21
ATOM     20  O   UNL     1      34.740 -11.628 -25.393  0.00  0.00    -0.294 OA
ATOM     21  C   UNL     1      34.054 -11.478 -24.384  0.00  0.00    +0.152 C 
BRANCH  21  23
ATOM     22  F   UNL     1      33.333  -6.333 -22.340  0.00  0.00    -0.204 F 
ATOM     23  C   UNL     1      33.861 -10.101 -23.838  0.00  0.00    +0.033 C 
ATOM     24  C   UNL     1      32.728  -9.838 -23.102  0.00  0.00    +0.005 C 
ATOM     25  C   UNL     1      34.822  -9.151 -24.091  0.00  0.00    +0.005 C 
ATOM     26  C   UNL     1      32.548  -8.553 -22.590  0.00  0.00    +0.030 C 
ATOM     27  C   UNL     1      34.643  -7.867 -23.580  0.00  0.00    +0.030 C 
ATOM     28  C   UNL     1      33.506  -7.567 -22.830  0.00  0.00    +0.140 C 
ENDBRANCH  21  23
ENDBRANCH  19  21
ENDBRANCH   1  19
TORSDOF 5
ENDMDL
MODEL 2
REMARK VINA RESULT:     -11.2      3.590     10.133
REMARK  Name = 9799284
REMARK  5 active torsions:
REMARK  status: ('A' for Active; 'I' for Inactive)
REMARK    1  A    between atoms: N_1  and  C_19
REMARK    2  A    between atoms: C_2  and  C_8
REMARK    3  A    between atoms: C_8  and  N_10
REMARK    4  A    between atoms: C_19  and  C_21
REMARK    5  A    between atoms: C_21  and  C_23
REMARK                            x       y       z     vdW  Elec       q    Type
REMARK                         _______ _______ _______ _____ _____    ______ ____
ROOT
ATOM      1  N   UNL     1      34.598 -15.613 -23.369  0.00  0.00    +0.392 N 
ATOM      2  C   UNL     1      33.318 -13.079 -22.637  0.00  0.00    +0.016 C 
ATOM      3  C   UNL     1      33.105 -13.744 -24.001  0.00  0.00    -0.021 C 
ATOM      4  C   UNL     1      33.698 -14.139 -21.597  0.00  0.00    -0.021 C 
ATOM      5  C   UNL     1      34.308 -14.603 -24.395  0.00  0.00    -0.077 C 
ATOM      6  C   UNL     1      34.881 -14.985 -22.071  0.00  0.00    -0.077 C 
ATOM      7  H   UNL     1      33.769 -16.198 -23.261  0.00  0.00    -0.079 HD
ENDROOT
BRANCH   2   8
ATOM      8  C   UNL     1      32.076 -12.305 -22.203  0.00  0.00    +0.094 C 
BRANCH   8  10
ATOM      9  O   UNL     1      31.385 -10.204 -20.148  0.00  0.00    -0.270 OA
ATOM     10  N   UNL     1      32.322 -10.895 -22.209  0.00  0.00    -0.272 N 
ATOM     11  C   UNL     1      33.009 -10.232 -23.321  0.00  0.00    +0.121 C 
ATOM     12  C   UNL     1      31.960  -9.994 -21.200  0.00  0.00    +0.249 C 
ATOM     13  C   UNL     1      33.032  -8.808 -22.883  0.00  0.00    +0.002 C 
ATOM     14  C   UNL     1      32.416  -8.671 -21.639  0.00  0.00    +0.051 C 
ATOM     15  C   UNL     1      33.556  -7.703 -23.528  0.00  0.00    -0.002 C 
ATOM     16  C   UNL     1      32.297  -7.455 -20.995  0.00  0.00    +0.004 C 
ATOM     17  C   UNL     1      33.448  -6.459 -22.898  0.00  0.00    -0.000 C 
ATOM     18  C   UNL     1      32.825  -6.336 -21.642  0.00  0.00    +0.000 C 
ENDBRANCH   8  10
ENDBRANCH   2   8
BRANCH   1  19
ATOM     19  C   UNL     1      35.716 -16.459 -23.784  0.00  0.00    -0.006 C 
BRANCH  19  21
ATOM     20  O   UNL     1      34.609 -18.409 -24.676  0.00  0.00    -0.294 OA
ATOM     21  C   UNL     1      35.273 -17.911 -23.770  0.00  0.00    +0.152 C 
BRANCH  21  23
ATOM     22  F   UNL     1      36.732 -21.089 -19.418  0.00  0.00    -0.204 F 
ATOM     23  C   UNL     1      35.663 -18.762 -22.607  0.00  0.00    +0.033 C 
ATOM     24  C   UNL     1      36.935 -18.634 -22.095  0.00  0.00    +0.005 C 
ATOM     25  C   UNL     1      34.737 -19.638 -22.091  0.00  0.00    +0.005 C 
ATOM     26  C   UNL     1      37.299 -19.428 -21.007  0.00  0.00    +0.030 C 
ATOM     27  C   UNL     1      35.101 -20.432 -21.004  0.00  0.00    +0.030 C 
ATOM     28  C   UNL     1      36.382 -20.327 -20.462  0.00  0.00    +0.140 C 
ENDBRANCH  21  23
ENDBRANCH  19  21
ENDBRANCH   1  19
TORSDOF 5
ENDMDL
MODEL 3
REMARK VINA RESULT:     -11.1      4.040      6.986
REMARK  Name = 9799284
REMARK  5 active torsions:
REMARK  status: ('A' for Active; 'I' for Inactive)
REMARK    1  A    between atoms: N_1  and  C_19
REMARK    2  A    between atoms: C_2  and  C_8
REMARK    3  A    between atoms: C_8  and  N_10
REMARK    4  A    between atoms: C_19  and  C_21
REMARK    5  A    between atoms: C_21  and  C_23
REMARK                            x       y       z     vdW  Elec       q    Type
REMARK                         _______ _______ _______ _____ _____    ______ ____
ROOT
ATOM      1  N   UNL     1      35.468 -19.852 -21.473  0.00  0.00    +0.392 N 
ATOM      2  C   UNL     1      34.611 -21.822 -19.479  0.00  0.00    +0.016 C 
ATOM      3  C   UNL     1      33.655 -21.243 -20.526  0.00  0.00    -0.021 C 
ATOM      4  C   UNL     1      36.052 -21.748 -19.995  0.00  0.00    -0.021 C 
ATOM      5  C   UNL     1      34.090 -19.844 -20.964  0.00  0.00    -0.077 C 
ATOM      6  C   UNL     1      36.408 -20.331 -20.451  0.00  0.00    -0.077 C 
ATOM      7  H   UNL     1      35.508 -20.495 -22.264  0.00  0.00    -0.079 HD
ENDROOT
BRANCH   2   8
ATOM      8  C   UNL     1      34.231 -23.256 -19.119  0.00  0.00    +0.094 C 
BRANCH   8  10
ATOM      9  O   UNL     1      35.385 -24.100 -16.460  0.00  0.00    -0.270 OA
ATOM     10  N   UNL     1      33.618 -23.315 -17.826  0.00  0.00    -0.272 N 
ATOM     11  C   UNL     1      32.219 -22.934 -17.612  0.00  0.00    +0.121 C 
ATOM     12  C   UNL     1      34.242 -23.724 -16.641  0.00  0.00    +0.249 C 
ATOM     13  C   UNL     1      32.045 -23.155 -16.149  0.00  0.00    +0.002 C 
ATOM     14  C   UNL     1      33.233 -23.618 -15.581  0.00  0.00    +0.051 C 
ATOM     15  C   UNL     1      30.925 -22.965 -15.363  0.00  0.00    -0.002 C 
ATOM     16  C   UNL     1      33.355 -23.906 -14.236  0.00  0.00    +0.004 C 
ATOM     17  C   UNL     1      31.020 -23.249 -13.997  0.00  0.00    -0.000 C 
ATOM     18  C   UNL     1      32.225 -23.715 -13.438  0.00  0.00    +0.000 C 
ENDBRANCH   8  10
ENDBRANCH   2   8
BRANCH   1  19
ATOM     19  C   UNL     1      35.851 -18.518 -21.936  0.00  0.00    -0.006 C 
BRANCH  19  21
ATOM     20  O   UNL     1      35.737 -19.367 -24.192  0.00  0.00    -0.294 OA
ATOM     21  C   UNL     1      35.590 -18.416 -23.428  0.00  0.00    +0.152 C 
BRANCH  21  23
ATOM     22  F   UNL     1      33.884 -13.519 -25.496  0.00  0.00    -0.204 F 
ATOM     23  C   UNL     1      35.134 -17.106 -23.981  0.00  0.00    +0.033 C 
ATOM     24  C   UNL     1      34.651 -17.068 -25.269  0.00  0.00    +0.005 C 
ATOM     25  C   UNL     1      35.215 -15.990 -23.182  0.00  0.00    +0.005 C 
ATOM     26  C   UNL     1      34.224 -15.845 -25.786  0.00  0.00    +0.030 C 
ATOM     27  C   UNL     1      34.788 -14.767 -23.698  0.00  0.00    +0.030 C 
ATOM     28  C   UNL     1      34.293 -14.694 -25.000  0.00  0.00    +0.140 C 
ENDBRANCH  21  23
ENDBRANCH  19  21
ENDBRANCH   1  19
TORSDOF 5
ENDMDL
MODEL 4
REMARK VINA RESULT:     -11.0      3.762      6.891
REMARK  Name = 9799284
REMARK  5 active torsions:
REMARK  status: ('A' for Active; 'I' for Inactive)
REMARK    1  A    between atoms: N_1  and  C_19
REMARK    2  A    between atoms: C_2  and  C_8
REMARK    3  A    between atoms: C_8  and  N_10
REMARK    4  A    between atoms: C_19  and  C_21
REMARK    5  A    between atoms: C_21  and  C_23
REMARK                            x       y       z     vdW  Elec       q    Type
REMARK                         _______ _______ _______ _____ _____    ______ ____
ROOT
ATOM      1  N   UNL     1      35.834 -19.868 -21.347  0.00  0.00    +0.392 N 
ATOM      2  C   UNL     1      34.387 -21.672 -19.544  0.00  0.00    +0.016 C 
ATOM      3  C   UNL     1      33.688 -20.892 -20.662  0.00  0.00    -0.021 C 
ATOM      4  C   UNL     1      35.864 -21.875 -19.899  0.00  0.00    -0.021 C 
ATOM      5  C   UNL     1      34.435 -19.598 -20.988  0.00  0.00    -0.077 C 
ATOM      6  C   UNL     1      36.539 -20.548 -20.251  0.00  0.00    -0.077 C 
ATOM      7  H   UNL     1      35.837 -20.489 -22.156  0.00  0.00    -0.079 HD
ENDROOT
BRANCH   2   8
ATOM      8  C   UNL     1      33.696 -23.010 -19.291  0.00  0.00    +0.094 C 
BRANCH   8  10
ATOM      9  O   UNL     1      31.221 -22.365 -17.687  0.00  0.00    -0.270 OA
ATOM     10  N   UNL     1      33.428 -23.193 -17.897  0.00  0.00    -0.272 N 
ATOM     11  C   UNL     1      34.418 -23.776 -16.987  0.00  0.00    +0.121 C 
ATOM     12  C   UNL     1      32.238 -22.860 -17.239  0.00  0.00    +0.249 C 
ATOM     13  C   UNL     1      33.701 -23.766 -15.680  0.00  0.00    +0.002 C 
ATOM     14  C   UNL     1      32.423 -23.228 -15.831  0.00  0.00    +0.051 C 
ATOM     15  C   UNL     1      34.135 -24.197 -14.441  0.00  0.00    -0.002 C 
ATOM     16  C   UNL     1      31.539 -23.098 -14.777  0.00  0.00    +0.004 C 
ATOM     17  C   UNL     1      33.260 -24.078 -13.357  0.00  0.00    -0.000 C 
ATOM     18  C   UNL     1      31.973 -23.533 -13.524  0.00  0.00    +0.000 C 
ENDBRANCH   8  10
ENDBRANCH   2   8
BRANCH   1  19
ATOM     19  C   UNL     1      36.520 -18.628 -21.706  0.00  0.00    -0.006 C 
BRANCH  19  21
ATOM     20  O   UNL     1      35.760 -18.684 -23.996  0.00  0.00    -0.294 OA
ATOM     21  C   UNL     1      35.875 -18.047 -22.951  0.00  0.00    +0.152 C 
BRANCH  21  23
ATOM     22  F   UNL     1      33.955 -12.808 -22.753  0.00  0.00    -0.204 F 
ATOM     23  C   UNL     1      35.362 -16.645 -22.898  0.00  0.00    +0.033 C 
ATOM     24  C   UNL     1      35.172 -15.969 -24.081  0.00  0.00    +0.005 C 
ATOM     25  C   UNL     1      35.099 -16.086 -21.670  0.00  0.00    +0.005 C 
ATOM     26  C   UNL     1      34.691 -14.660 -24.032  0.00  0.00    +0.030 C 
ATOM     27  C   UNL     1      34.619 -14.778 -21.619  0.00  0.00    +0.030 C 
ATOM     28  C   UNL     1      34.415 -14.065 -22.801  0.00  0.00    +0.140 C 
ENDBRANCH  21  23
ENDBRANCH  19  21
ENDBRANCH   1  19
TORSDOF 5
ENDMDL
MODEL 5
REMARK VINA RESULT:     -11.0      3.678      9.477
REMARK  Name = 9799284
REMARK  5 active torsions:
REMARK  status: ('A' for Active; 'I' for Inactive)
REMARK    1  A    between atoms: N_1  and  C_19
REMARK    2  A    between atoms: C_2  and  C_8
REMARK    3  A    between atoms: C_8  and  N_10
REMARK    4  A    between atoms: C_19  and  C_21
REMARK    5  A    between atoms: C_21  and  C_23
REMARK                            x       y       z     vdW  Elec       q    Type
REMARK                         _______ _______ _______ _____ _____    ______ ____
ROOT
ATOM      1  N   UNL     1      35.890 -17.575 -23.509  0.00  0.00    +0.392 N 
ATOM      2  C   UNL     1      34.268 -15.151 -23.809  0.00  0.00    +0.016 C 
ATOM      3  C   UNL     1      35.152 -15.403 -22.583  0.00  0.00    -0.021 C 
ATOM      4  C   UNL     1      34.816 -15.928 -25.011  0.00  0.00    -0.021 C 
ATOM      5  C   UNL     1      35.337 -16.900 -22.328  0.00  0.00    -0.077 C 
ATOM      6  C   UNL     1      35.012 -17.408 -24.675  0.00  0.00    -0.077 C 
ATOM      7  H   UNL     1      36.788 -17.143 -23.727  0.00  0.00    -0.079 HD
ENDROOT
BRANCH   2   8
ATOM      8  C   UNL     1      34.169 -13.660 -24.119  0.00  0.00    +0.094 C 
BRANCH   8  10
ATOM      9  O   UNL     1      33.368 -10.756 -23.916  0.00  0.00    -0.270 OA
ATOM     10  N   UNL     1      33.499 -12.960 -23.064  0.00  0.00    -0.272 N 
ATOM     11  C   UNL     1      33.077 -13.633 -21.833  0.00  0.00    +0.121 C 
ATOM     12  C   UNL     1      33.168 -11.600 -23.062  0.00  0.00    +0.249 C 
ATOM     13  C   UNL     1      32.442 -12.527 -21.062  0.00  0.00    +0.002 C 
ATOM     14  C   UNL     1      32.497 -11.335 -21.786  0.00  0.00    +0.051 C 
ATOM     15  C   UNL     1      31.854 -12.558 -19.812  0.00  0.00    -0.002 C 
ATOM     16  C   UNL     1      31.980 -10.147 -21.307  0.00  0.00    +0.004 C 
ATOM     17  C   UNL     1      31.323 -11.368 -19.303  0.00  0.00    -0.000 C 
ATOM     18  C   UNL     1      31.386 -10.173 -20.044  0.00  0.00    +0.000 C 
ENDBRANCH   8  10
ENDBRANCH   2   8
BRANCH   1  19
ATOM     19  C   UNL     1      36.109 -18.994 -23.233  0.00  0.00    -0.006 C 
BRANCH  19  21
ATOM     20  O   UNL     1      37.298 -18.562 -21.177  0.00  0.00    -0.294 OA
ATOM     21  C   UNL     1      36.401 -19.172 -21.754  0.00  0.00    +0.152 C 
BRANCH  21  23
ATOM     22  F   UNL     1      33.256 -22.744 -18.835  0.00  0.00    -0.204 F 
ATOM     23  C   UNL     1      35.559 -20.128 -20.974  0.00  0.00    +0.033 C 
ATOM     24  C   UNL     1      36.186 -21.043 -20.159  0.00  0.00    +0.005 C 
ATOM     25  C   UNL     1      34.192 -20.056 -21.099  0.00  0.00    +0.005 C 
ATOM     26  C   UNL     1      35.401 -21.936 -19.429  0.00  0.00    +0.030 C 
ATOM     27  C   UNL     1      33.406 -20.947 -20.369  0.00  0.00    +0.030 C 
ATOM     28  C   UNL     1      34.010 -21.888 -19.535  0.00  0.00    +0.140 C 
ENDBRANCH  21  23
ENDBRANCH  19  21
ENDBRANCH   1  19
TORSDOF 5
ENDMDL
MODEL 6
REMARK VINA RESULT:     -11.0      4.606     10.689
REMARK  Name = 9799284
REMARK  5 active torsions:
REMARK  status: ('A' for Active; 'I' for Inactive)
REMARK    1  A    between atoms: N_1  and  C_19
REMARK    2  A    between atoms: C_2  and  C_8
REMARK    3  A    between atoms: C_8  and  N_10
REMARK    4  A    between atoms: C_19  and  C_21
REMARK    5  A    between atoms: C_21  and  C_23
REMARK                            x       y       z     vdW  Elec       q    Type
REMARK                         _______ _______ _______ _____ _____    ______ ____
ROOT
ATOM      1  N   UNL     1      35.610 -21.199 -20.202  0.00  0.00    +0.392 N 
ATOM      2  C   UNL     1      35.627 -19.066 -22.213  0.00  0.00    +0.016 C 
ATOM      3  C   UNL     1      36.908 -19.763 -21.742  0.00  0.00    -0.021 C 
ATOM      4  C   UNL     1      34.427 -19.997 -22.012  0.00  0.00    -0.021 C 
ATOM      5  C   UNL     1      36.761 -20.293 -20.315  0.00  0.00    -0.077 C 
ATOM      6  C   UNL     1      34.362 -20.520 -20.576  0.00  0.00    -0.077 C 
ATOM      7  H   UNL     1      35.754 -21.973 -20.851  0.00  0.00    -0.079 HD
ENDROOT
BRANCH   2   8
ATOM      8  C   UNL     1      35.743 -18.627 -23.670  0.00  0.00    +0.094 C 
BRANCH   8  10
ATOM      9  O   UNL     1      34.635 -17.226 -26.104  0.00  0.00    -0.270 OA
ATOM     10  N   UNL     1      35.307 -17.274 -23.835  0.00  0.00    -0.272 N 
ATOM     11  C   UNL     1      35.347 -16.306 -22.735  0.00  0.00    +0.121 C 
ATOM     12  C   UNL     1      34.803 -16.711 -25.014  0.00  0.00    +0.249 C 
ATOM     13  C   UNL     1      34.806 -15.072 -23.371  0.00  0.00    +0.002 C 
ATOM     14  C   UNL     1      34.488 -15.312 -24.708  0.00  0.00    +0.051 C 
ATOM     15  C   UNL     1      34.605 -13.821 -22.819  0.00  0.00    -0.002 C 
ATOM     16  C   UNL     1      33.967 -14.338 -25.537  0.00  0.00    +0.004 C 
ATOM     17  C   UNL     1      34.078 -12.816 -23.637  0.00  0.00    -0.000 C 
ATOM     18  C   UNL     1      33.762 -13.073 -24.984  0.00  0.00    +0.000 C 
ENDBRANCH   8  10
ENDBRANCH   2   8
BRANCH   1  19
ATOM     19  C   UNL     1      35.514 -21.738 -18.846  0.00  0.00    -0.006 C 
BRANCH  19  21
ATOM     20  O   UNL     1      34.272 -23.580 -19.789  0.00  0.00    -0.294 OA
ATOM     21  C   UNL     1      34.477 -22.846 -18.825  0.00  0.00    +0.152 C 
BRANCH  21  23
ATOM     22  F   UNL     1      31.486 -23.601 -14.171  0.00  0.00    -0.204 F 
ATOM     23  C   UNL     1      33.677 -23.047 -17.579  0.00  0.00    +0.033 C 
ATOM     24  C   UNL     1      32.322 -22.811 -17.622  0.00  0.00    +0.005 C 
ATOM     25  C   UNL     1      34.325 -23.461 -16.440  0.00  0.00    +0.005 C 
ATOM     26  C   UNL     1      31.574 -23.000 -16.460  0.00  0.00    +0.030 C 
ATOM     27  C   UNL     1      33.579 -23.651 -15.278  0.00  0.00    +0.030 C 
ATOM     28  C   UNL     1      32.203 -23.420 -15.287  0.00  0.00    +0.140 C 
ENDBRANCH  21  23
ENDBRANCH  19  21
ENDBRANCH   1  19
TORSDOF 5
ENDMDL
MODEL 7
REMARK VINA RESULT:     -10.7      1.708      2.202
REMARK  Name = 9799284
REMARK  5 active torsions:
REMARK  status: ('A' for Active; 'I' for Inactive)
REMARK    1  A    between atoms: N_1  and  C_19
REMARK    2  A    between atoms: C_2  and  C_8
REMARK    3  A    between atoms: C_8  and  N_10
REMARK    4  A    between atoms: C_19  and  C_21
REMARK    5  A    between atoms: C_21  and  C_23
REMARK                            x       y       z     vdW  Elec       q    Type
REMARK                         _______ _______ _______ _____ _____    ______ ____
ROOT
ATOM      1  N   UNL     1      34.236 -14.392 -24.390  0.00  0.00    +0.392 N 
ATOM      2  C   UNL     1      35.121 -17.075 -23.609  0.00  0.00    +0.016 C 
ATOM      3  C   UNL     1      35.061 -16.623 -25.072  0.00  0.00    -0.021 C 
ATOM      4  C   UNL     1      35.288 -15.856 -22.696  0.00  0.00    -0.021 C 
ATOM      5  C   UNL     1      34.000 -15.540 -25.276  0.00  0.00    -0.077 C 
ATOM      6  C   UNL     1      34.219 -14.799 -22.978  0.00  0.00    -0.077 C 
ATOM      7  H   UNL     1      35.163 -14.019 -24.599  0.00  0.00    -0.079 HD
ENDROOT
BRANCH   2   8
ATOM      8  C   UNL     1      36.248 -18.082 -23.392  0.00  0.00    +0.094 C 
BRANCH   8  10
ATOM      9  O   UNL     1      37.962 -19.316 -21.234  0.00  0.00    -0.270 OA
ATOM     10  N   UNL     1      35.905 -19.023 -22.368  0.00  0.00    -0.272 N 
ATOM     11  C   UNL     1      34.546 -19.553 -22.225  0.00  0.00    +0.121 C 
ATOM     12  C   UNL     1      36.778 -19.541 -21.403  0.00  0.00    +0.249 C 
ATOM     13  C   UNL     1      34.678 -20.465 -21.054  0.00  0.00    +0.002 C 
ATOM     14  C   UNL     1      35.988 -20.456 -20.574  0.00  0.00    +0.051 C 
ATOM     15  C   UNL     1      33.717 -21.252 -20.447  0.00  0.00    -0.002 C 
ATOM     16  C   UNL     1      36.391 -21.214 -19.492  0.00  0.00    +0.004 C 
ATOM     17  C   UNL     1      34.099 -22.029 -19.349  0.00  0.00    -0.000 C 
ATOM     18  C   UNL     1      35.424 -22.010 -18.875  0.00  0.00    +0.000 C 
ENDBRANCH   8  10
ENDBRANCH   2   8
BRANCH   1  19
ATOM     19  C   UNL     1      33.246 -13.344 -24.633  0.00  0.00    -0.006 C 
BRANCH  19  21
ATOM     20  O   UNL     1      34.632 -11.424 -24.168  0.00  0.00    -0.294 OA
ATOM     21  C   UNL     1      33.646 -12.095 -23.870  0.00  0.00    +0.152 C 
BRANCH  21  23
ATOM     22  F   UNL     1      30.498 -10.503 -19.542  0.00  0.00    -0.204 F 
ATOM     23  C   UNL     1      32.805 -11.669 -22.712  0.00  0.00    +0.033 C 
ATOM     24  C   UNL     1      32.389 -10.359 -22.647  0.00  0.00    +0.005 C 
ATOM     25  C   UNL     1      32.478 -12.603 -21.757  0.00  0.00    +0.005 C 
ATOM     26  C   UNL     1      31.602  -9.961 -21.566  0.00  0.00    +0.030 C 
ATOM     27  C   UNL     1      31.691 -12.206 -20.676  0.00  0.00    +0.030 C 
ATOM     28  C   UNL     1      31.253 -10.885 -20.580  0.00  0.00    +0.140 C 
ENDBRANCH  21  23
ENDBRANCH  19  21
ENDBRANCH   1  19
TORSDOF 5
ENDMDL
MODEL 8
REMARK VINA RESULT:     -10.6      5.316     10.977
REMARK  Name = 9799284
REMARK  5 active torsions:
REMARK  status: ('A' for Active; 'I' for Inactive)
REMARK    1  A    between atoms: N_1  and  C_19
REMARK    2  A    between atoms: C_2  and  C_8
REMARK    3  A    between atoms: C_8  and  N_10
REMARK    4  A    between atoms: C_19  and  C_21
REMARK    5  A    between atoms: C_21  and  C_23
REMARK                            x       y       z     vdW  Elec       q    Type
REMARK                         _______ _______ _______ _____ _____    ______ ____
ROOT
ATOM      1  N   UNL     1      34.381 -21.603 -19.406  0.00  0.00    +0.392 N 
ATOM      2  C   UNL     1      35.892 -20.032 -21.366  0.00  0.00    +0.016 C 
ATOM      3  C   UNL     1      34.475 -19.652 -20.924  0.00  0.00    -0.021 C 
ATOM      4  C   UNL     1      36.576 -20.852 -20.267  0.00  0.00    -0.021 C 
ATOM      5  C   UNL     1      33.683 -20.882 -20.479  0.00  0.00    -0.077 C 
ATOM      6  C   UNL     1      35.714 -22.043 -19.843  0.00  0.00    -0.077 C 
ATOM      7  H   UNL     1      34.503 -20.962 -18.623  0.00  0.00    -0.079 HD
ENDROOT
BRANCH   2   8
ATOM      8  C   UNL     1      36.711 -18.791 -21.714  0.00  0.00    +0.094 C 
BRANCH   8  10
ATOM      9  O   UNL     1      35.638 -19.432 -24.462  0.00  0.00    -0.270 OA
ATOM     10  N   UNL     1      36.011 -17.960 -22.647  0.00  0.00    -0.272 N 
ATOM     11  C   UNL     1      35.697 -16.558 -22.354  0.00  0.00    +0.121 C 
ATOM     12  C   UNL     1      35.549 -18.351 -23.909  0.00  0.00    +0.249 C 
ATOM     13  C   UNL     1      34.982 -16.123 -23.587  0.00  0.00    +0.002 C 
ATOM     14  C   UNL     1      34.897 -17.177 -24.498  0.00  0.00    +0.051 C 
ATOM     15  C   UNL     1      34.442 -14.889 -23.894  0.00  0.00    -0.002 C 
ATOM     16  C   UNL     1      34.283 -17.051 -25.729  0.00  0.00    +0.004 C 
ATOM     17  C   UNL     1      33.815 -14.734 -25.135  0.00  0.00    -0.000 C 
ATOM     18  C   UNL     1      33.736 -15.806 -26.044  0.00  0.00    +0.000 C 
ENDBRANCH   8  10
ENDBRANCH   2   8
BRANCH   1  19
ATOM     19  C   UNL     1      33.588 -22.746 -18.956  0.00  0.00    -0.006 C 
BRANCH  19  21
ATOM     20  O   UNL     1      35.214 -23.259 -17.248  0.00  0.00    -0.294 OA
ATOM     21  C   UNL     1      34.031 -23.138 -17.558  0.00  0.00    +0.152 C 
BRANCH  21  23
ATOM     22  F   UNL     1      30.111 -24.067 -13.692  0.00  0.00    -0.204 F 
ATOM     23  C   UNL     1      32.983 -23.386 -16.524  0.00  0.00    +0.033 C 
ATOM     24  C   UNL     1      31.672 -23.109 -16.836  0.00  0.00    +0.005 C 
ATOM     25  C   UNL     1      33.369 -23.882 -15.300  0.00  0.00    +0.005 C 
ATOM     26  C   UNL     1      30.692 -23.342 -15.871  0.00  0.00    +0.030 C 
ATOM     27  C   UNL     1      32.390 -24.115 -14.335  0.00  0.00    +0.030 C 
ATOM     28  C   UNL     1      31.052 -23.844 -14.620  0.00  0.00    +0.140 C 
ENDBRANCH  21  23
ENDBRANCH  19  21
ENDBRANCH   1  19
TORSDOF 5
ENDMDL
MODEL 9
REMARK VINA RESULT:     -10.5      7.878     13.613
REMARK  Name = 9799284
REMARK  5 active torsions:
REMARK  status: ('A' for Active; 'I' for Inactive)
REMARK    1  A    between atoms: N_1  and  C_19
REMARK    2  A    between atoms: C_2  and  C_8
REMARK    3  A    between atoms: C_8  and  N_10
REMARK    4  A    between atoms: C_19  and  C_21
REMARK    5  A    between atoms: C_21  and  C_23
REMARK                            x       y       z     vdW  Elec       q    Type
REMARK                         _______ _______ _______ _____ _____    ______ ____
ROOT
ATOM      1  N   UNL     1      35.003 -23.969 -14.073  0.00  0.00    +0.392 N 
ATOM      2  C   UNL     1      34.198 -23.062 -16.742  0.00  0.00    +0.016 C 
ATOM      3  C   UNL     1      35.664 -23.285 -16.356  0.00  0.00    -0.021 C 
ATOM      4  C   UNL     1      33.293 -23.930 -15.860  0.00  0.00    -0.021 C 
ATOM      5  C   UNL     1      35.881 -23.089 -14.855  0.00  0.00    -0.077 C 
ATOM      6  C   UNL     1      33.588 -23.712 -14.375  0.00  0.00    -0.077 C 
ATOM      7  H   UNL     1      35.210 -24.933 -14.334  0.00  0.00    -0.079 HD
ENDROOT
BRANCH   2   8
ATOM      8  C   UNL     1      33.968 -23.357 -18.222  0.00  0.00    +0.094 C 
BRANCH   8  10
ATOM      9  O   UNL     1      32.709 -21.622 -20.348  0.00  0.00    -0.270 OA
ATOM     10  N   UNL     1      34.549 -22.340 -19.044  0.00  0.00    -0.272 N 
ATOM     11  C   UNL     1      35.966 -21.977 -18.944  0.00  0.00    +0.121 C 
ATOM     12  C   UNL     1      33.878 -21.582 -20.011  0.00  0.00    +0.249 C 
ATOM     13  C   UNL     1      36.097 -20.902 -19.967  0.00  0.00    +0.002 C 
ATOM     14  C   UNL     1      34.870 -20.672 -20.592  0.00  0.00    +0.051 C 
ATOM     15  C   UNL     1      37.212 -20.171 -20.330  0.00  0.00    -0.002 C 
ATOM     16  C   UNL     1      34.704 -19.725 -21.583  0.00  0.00    +0.004 C 
ATOM     17  C   UNL     1      37.071 -19.205 -21.332  0.00  0.00    -0.000 C 
ATOM     18  C   UNL     1      35.828 -18.984 -21.953  0.00  0.00    +0.000 C 
ENDBRANCH   8  10
ENDBRANCH   2   8
BRANCH   1  19
ATOM     19  C   UNL     1      35.258 -23.807 -12.642  0.00  0.00    -0.006 C 
BRANCH  19  21
ATOM     20  O   UNL     1      35.848 -25.585 -11.120  0.00  0.00    -0.294 OA
ATOM     21  C   UNL     1      36.102 -24.971 -12.154  0.00  0.00    +0.152 C 
BRANCH  21  23
ATOM     22  F   UNL     1      40.531 -26.502 -15.189  0.00  0.00    -0.204 F 
ATOM     23  C   UNL     1      37.287 -25.380 -12.967  0.00  0.00    +0.033 C 
ATOM     24  C   UNL     1      38.482 -24.730 -12.761  0.00  0.00    +0.005 C 
ATOM     25  C   UNL     1      37.137 -26.391 -13.887  0.00  0.00    +0.005 C 
ATOM     26  C   UNL     1      39.589 -25.113 -13.519  0.00  0.00    +0.030 C 
ATOM     27  C   UNL     1      38.242 -26.774 -14.644  0.00  0.00    +0.030 C 
ATOM     28  C   UNL     1      39.469 -26.135 -14.461  0.00  0.00    +0.140 C 
ENDBRANCH  21  23
ENDBRANCH  19  21
ENDBRANCH   1  19
TORSDOF 5
ENDMDL
