MODEL 1
REMARK VINA RESULT:     -11.5      0.000      0.000
REMARK  Name = 6918151
REMARK  4 active torsions:
REMARK  status: ('A' for Active; 'I' for Inactive)
REMARK    1  A    between atoms: C_2  and  C_11
REMARK    2  A    between atoms: C_7  and  C_18
REMARK    3  A    between atoms: C_11  and  C_12
REMARK    4  A    between atoms: C_18  and  C_23
REMARK                            x       y       z     vdW  Elec       q    Type
REMARK                         _______ _______ _______ _____ _____    ______ ____
ROOT
ATOM      1  O   UNL     1      36.197 -20.099 -20.716  0.00  0.00    -0.479 OA
ATOM      2  C   UNL     1      35.410 -19.137 -21.435  0.00  0.00    +0.171 C 
ATOM      3  C   UNL     1      34.230 -19.802 -22.141  0.00  0.00    +0.049 C 
ATOM      4  C   UNL     1      33.306 -20.418 -21.097  0.00  0.00    +0.033 C 
ATOM      5  C   UNL     1      34.101 -21.176 -20.074  0.00  0.00    +0.012 C 
ATOM      6  C   UNL     1      35.480 -20.968 -19.934  0.00  0.00    +0.134 C 
ATOM      7  C   UNL     1      34.188 -22.797 -18.270  0.00  0.00    -0.021 C 
ATOM      8  C   UNL     1      33.459 -22.086 -19.224  0.00  0.00    -0.006 C 
ATOM      9  C   UNL     1      36.210 -21.690 -18.987  0.00  0.00    +0.036 C 
ATOM     10  C   UNL     1      35.562 -22.602 -18.154  0.00  0.00    -0.001 C 
ENDROOT
BRANCH   2  11
ATOM     11  C   UNL     1      36.332 -18.462 -22.443  0.00  0.00    +0.070 C 
BRANCH  11  12
ATOM     12  C   UNL     1      35.672 -17.276 -23.094  0.00  0.00    -0.019 C 
ATOM     13  C   UNL     1      35.340 -16.170 -22.324  0.00  0.00    -0.004 C 
ATOM     14  C   UNL     1      35.405 -17.305 -24.456  0.00  0.00    -0.004 C 
ATOM     15  C   UNL     1      34.728 -15.071 -22.927  0.00  0.00    -0.000 C 
ATOM     16  C   UNL     1      34.794 -16.206 -25.059  0.00  0.00    -0.000 C 
ATOM     17  C   UNL     1      34.455 -15.090 -24.295  0.00  0.00    -0.000 C 
ENDBRANCH  11  12
ENDBRANCH   2  11
BRANCH   7  18
ATOM     18  C   UNL     1      33.495 -23.769 -17.375  0.00  0.00    +0.047 C 
BRANCH  18  23
ATOM     19  S   UNL     1      33.297 -23.948 -14.628  0.00  0.00    -0.048 S 
ATOM     20  O   UNL     1      30.697 -22.683 -17.185  0.00  0.00    -0.274 OA
ATOM     21  O   UNL     1      31.314 -24.795 -13.124  0.00  0.00    -0.263 OA
ATOM     22  N   UNL     1      30.801 -23.741 -15.131  0.00  0.00    -0.246 N 
ATOM     23  C   UNL     1      32.853 -23.089 -16.168  0.00  0.00    +0.137 C 
ATOM     24  C   UNL     1      31.344 -23.135 -16.245  0.00  0.00    +0.239 C 
ATOM     25  C   UNL     1      31.635 -24.234 -14.160  0.00  0.00    +0.279 C 
ATOM     26  H   UNL     1      29.825 -23.820 -15.034  0.00  0.00    +0.158 HD
ENDBRANCH  18  23
ENDBRANCH   7  18
TORSDOF 4
ENDMDL
MODEL 2
REMARK VINA RESULT:     -11.1      1.074      1.464
REMARK  Name = 6918151
REMARK  4 active torsions:
REMARK  status: ('A' for Active; 'I' for Inactive)
REMARK    1  A    between atoms: C_2  and  C_11
REMARK    2  A    between atoms: C_7  and  C_18
REMARK    3  A    between atoms: C_11  and  C_12
REMARK    4  A    between atoms: C_18  and  C_23
REMARK                            x       y       z     vdW  Elec       q    Type
REMARK                         _______ _______ _______ _____ _____    ______ ____
ROOT
ATOM      1  O   UNL     1      36.341 -19.913 -20.983  0.00  0.00    -0.479 OA
ATOM      2  C   UNL     1      35.476 -19.016 -21.696  0.00  0.00    +0.171 C 
ATOM      3  C   UNL     1      34.287 -19.757 -22.305  0.00  0.00    +0.049 C 
ATOM      4  C   UNL     1      33.449 -20.360 -21.184  0.00  0.00    +0.033 C 
ATOM      5  C   UNL     1      34.330 -21.040 -20.177  0.00  0.00    +0.012 C 
ATOM      6  C   UNL     1      35.704 -20.773 -20.126  0.00  0.00    +0.134 C 
ATOM      7  C   UNL     1      34.583 -22.575 -18.314  0.00  0.00    -0.021 C 
ATOM      8  C   UNL     1      33.774 -21.936 -19.254  0.00  0.00    -0.006 C 
ATOM      9  C   UNL     1      36.515 -21.423 -19.192  0.00  0.00    +0.036 C 
ATOM     10  C   UNL     1      35.953 -22.321 -18.285  0.00  0.00    -0.001 C 
ENDROOT
BRANCH   2  11
ATOM     11  C   UNL     1      36.313 -18.350 -22.783  0.00  0.00    +0.070 C 
BRANCH  11  12
ATOM     12  C   UNL     1      35.579 -17.206 -23.428  0.00  0.00    -0.019 C 
ATOM     13  C   UNL     1      35.188 -17.307 -24.757  0.00  0.00    -0.004 C 
ATOM     14  C   UNL     1      35.303 -16.065 -22.688  0.00  0.00    -0.004 C 
ATOM     15  C   UNL     1      34.508 -16.247 -25.356  0.00  0.00    -0.000 C 
ATOM     16  C   UNL     1      34.622 -15.005 -23.287  0.00  0.00    -0.000 C 
ATOM     17  C   UNL     1      34.225 -15.096 -24.620  0.00  0.00    -0.000 C 
ENDBRANCH  11  12
ENDBRANCH   2  11
BRANCH   7  18
ATOM     18  C   UNL     1      33.982 -23.531 -17.340  0.00  0.00    +0.047 C 
BRANCH  18  23
ATOM     19  S   UNL     1      35.109 -23.735 -14.829  0.00  0.00    -0.048 S 
ATOM     20  O   UNL     1      31.483 -22.849 -15.812  0.00  0.00    -0.274 OA
ATOM     21  O   UNL     1      34.176 -24.852 -12.640  0.00  0.00    -0.263 OA
ATOM     22  N   UNL     1      32.662 -23.882 -14.111  0.00  0.00    -0.246 N 
ATOM     23  C   UNL     1      33.896 -22.948 -15.932  0.00  0.00    +0.137 C 
ATOM     24  C   UNL     1      32.543 -23.206 -15.308  0.00  0.00    +0.239 C 
ATOM     25  C   UNL     1      33.905 -24.252 -13.668  0.00  0.00    +0.279 C 
ATOM     26  H   UNL     1      31.861 -24.097 -13.580  0.00  0.00    +0.158 HD
ENDBRANCH  18  23
ENDBRANCH   7  18
TORSDOF 4
ENDMDL
MODEL 3
REMARK VINA RESULT:     -10.9      1.055      1.894
REMARK  Name = 6918151
REMARK  4 active torsions:
REMARK  status: ('A' for Active; 'I' for Inactive)
REMARK    1  A    between atoms: C_2  and  C_11
REMARK    2  A    between atoms: C_7  and  C_18
REMARK    3  A    between atoms: C_11  and  C_12
REMARK    4  A    between atoms: C_18  and  C_23
REMARK                            x       y       z     vdW  Elec       q    Type
REMARK                         _______ _______ _______ _____ _____    ______ ____
ROOT
ATOM      1  O   UNL     1      34.899 -19.339 -21.377  0.00  0.00    -0.479 OA
ATOM      2  C   UNL     1      36.250 -19.357 -21.861  0.00  0.00    +0.171 C 
ATOM      3  C   UNL     1      37.244 -19.594 -20.726  0.00  0.00    +0.049 C 
ATOM      4  C   UNL     1      36.989 -20.969 -20.120  0.00  0.00    +0.033 C 
ATOM      5  C   UNL     1      35.519 -21.180 -19.896  0.00  0.00    +0.012 C 
ATOM      6  C   UNL     1      34.570 -20.373 -20.538  0.00  0.00    +0.134 C 
ATOM      7  C   UNL     1      33.718 -22.418 -18.841  0.00  0.00    -0.021 C 
ATOM      8  C   UNL     1      35.082 -22.213 -19.057  0.00  0.00    -0.006 C 
ATOM      9  C   UNL     1      33.206 -20.572 -20.310  0.00  0.00    +0.036 C 
ATOM     10  C   UNL     1      32.782 -21.596 -19.464  0.00  0.00    -0.001 C 
ENDROOT
BRANCH   2  11
ATOM     11  C   UNL     1      36.506 -18.012 -22.532  0.00  0.00    +0.070 C 
BRANCH  11  12
ATOM     12  C   UNL     1      35.582 -17.786 -23.699  0.00  0.00    -0.019 C 
ATOM     13  C   UNL     1      35.373 -16.495 -24.166  0.00  0.00    -0.004 C 
ATOM     14  C   UNL     1      34.952 -18.871 -24.292  0.00  0.00    -0.004 C 
ATOM     15  C   UNL     1      34.517 -16.286 -25.247  0.00  0.00    -0.000 C 
ATOM     16  C   UNL     1      34.096 -18.661 -25.374  0.00  0.00    -0.000 C 
ATOM     17  C   UNL     1      33.879 -17.369 -25.850  0.00  0.00    -0.000 C 
ENDBRANCH  11  12
ENDBRANCH   2  11
BRANCH   7  18
ATOM     18  C   UNL     1      33.264 -23.516 -17.940  0.00  0.00    +0.047 C 
BRANCH  18  23
ATOM     19  S   UNL     1      33.544 -23.941 -15.228  0.00  0.00    -0.048 S 
ATOM     20  O   UNL     1      30.470 -22.690 -17.198  0.00  0.00    -0.274 OA
ATOM     21  O   UNL     1      31.905 -25.075 -13.513  0.00  0.00    -0.263 OA
ATOM     22  N   UNL     1      30.990 -23.904 -15.299  0.00  0.00    -0.246 N 
ATOM     23  C   UNL     1      32.788 -22.997 -16.586  0.00  0.00    +0.137 C 
ATOM     24  C   UNL     1      31.294 -23.163 -16.423  0.00  0.00    +0.239 C 
ATOM     25  C   UNL     1      32.007 -24.405 -14.528  0.00  0.00    +0.279 C 
ATOM     26  H   UNL     1      30.052 -24.073 -15.054  0.00  0.00    +0.158 HD
ENDBRANCH  18  23
ENDBRANCH   7  18
TORSDOF 4
ENDMDL
MODEL 4
REMARK VINA RESULT:     -10.7      4.604      9.661
REMARK  Name = 6918151
REMARK  4 active torsions:
REMARK  status: ('A' for Active; 'I' for Inactive)
REMARK    1  A    between atoms: C_2  and  C_11
REMARK    2  A    between atoms: C_7  and  C_18
REMARK    3  A    between atoms: C_11  and  C_12
REMARK    4  A    between atoms: C_18  and  C_23
REMARK                            x       y       z     vdW  Elec       q    Type
REMARK                         _______ _______ _______ _____ _____    ______ ____
ROOT
ATOM      1  O   UNL     1      34.946 -23.129 -17.306  0.00  0.00    -0.479 OA
ATOM      2  C   UNL     1      35.693 -23.039 -16.083  0.00  0.00    +0.171 C 
ATOM      3  C   UNL     1      37.197 -23.059 -16.347  0.00  0.00    +0.049 C 
ATOM      4  C   UNL     1      37.574 -21.833 -17.171  0.00  0.00    +0.033 C 
ATOM      5  C   UNL     1      36.609 -21.644 -18.304  0.00  0.00    +0.012 C 
ATOM      6  C   UNL     1      35.362 -22.284 -18.303  0.00  0.00    +0.134 C 
ATOM      7  C   UNL     1      36.050 -20.614 -20.430  0.00  0.00    -0.021 C 
ATOM      8  C   UNL     1      36.940 -20.797 -19.370  0.00  0.00    -0.006 C 
ATOM      9  C   UNL     1      34.478 -22.109 -19.370  0.00  0.00    +0.036 C 
ATOM     10  C   UNL     1      34.822 -21.272 -20.432  0.00  0.00    -0.001 C 
ENDROOT
BRANCH   2  11
ATOM     11  C   UNL     1      35.281 -24.223 -15.215  0.00  0.00    +0.070 C 
BRANCH  11  12
ATOM     12  C   UNL     1      36.256 -24.456 -14.093  0.00  0.00    -0.019 C 
ATOM     13  C   UNL     1      36.442 -23.470 -13.133  0.00  0.00    -0.004 C 
ATOM     14  C   UNL     1      36.956 -25.653 -14.032  0.00  0.00    -0.004 C 
ATOM     15  C   UNL     1      37.345 -23.686 -12.092  0.00  0.00    -0.000 C 
ATOM     16  C   UNL     1      37.859 -25.869 -12.991  0.00  0.00    -0.000 C 
ATOM     17  C   UNL     1      38.054 -24.885 -12.022  0.00  0.00    -0.000 C 
ENDBRANCH  11  12
ENDBRANCH   2  11
BRANCH   7  18
ATOM     18  C   UNL     1      36.415 -19.715 -21.562  0.00  0.00    +0.047 C 
BRANCH  18  23
ATOM     19  S   UNL     1      35.012 -19.435 -23.923  0.00  0.00    -0.048 S 
ATOM     20  O   UNL     1      35.531 -16.883 -21.075  0.00  0.00    -0.274 OA
ATOM     21  O   UNL     1      34.938 -17.430 -25.622  0.00  0.00    -0.263 OA
ATOM     22  N   UNL     1      35.232 -16.951 -23.367  0.00  0.00    -0.246 N 
ATOM     23  C   UNL     1      35.198 -19.015 -22.163  0.00  0.00    +0.137 C 
ATOM     24  C   UNL     1      35.343 -17.511 -22.111  0.00  0.00    +0.239 C 
ATOM     25  C   UNL     1      35.052 -17.768 -24.454  0.00  0.00    +0.279 C 
ATOM     26  H   UNL     1      35.282 -15.975 -23.482  0.00  0.00    +0.158 HD
ENDBRANCH  18  23
ENDBRANCH   7  18
TORSDOF 4
ENDMDL
MODEL 5
REMARK VINA RESULT:     -10.6      3.710      9.192
REMARK  Name = 6918151
REMARK  4 active torsions:
REMARK  status: ('A' for Active; 'I' for Inactive)
REMARK    1  A    between atoms: C_2  and  C_11
REMARK    2  A    between atoms: C_7  and  C_18
REMARK    3  A    between atoms: C_11  and  C_12
REMARK    4  A    between atoms: C_18  and  C_23
REMARK                            x       y       z     vdW  Elec       q    Type
REMARK                         _______ _______ _______ _____ _____    ______ ____
ROOT
ATOM      1  O   UNL     1      34.657 -23.142 -17.397  0.00  0.00    -0.479 OA
ATOM      2  C   UNL     1      35.372 -23.060 -16.155  0.00  0.00    +0.171 C 
ATOM      3  C   UNL     1      36.882 -23.113 -16.378  0.00  0.00    +0.049 C 
ATOM      4  C   UNL     1      37.308 -21.900 -17.197  0.00  0.00    +0.033 C 
ATOM      5  C   UNL     1      36.377 -21.697 -18.358  0.00  0.00    +0.012 C 
ATOM      6  C   UNL     1      35.118 -22.310 -18.387  0.00  0.00    +0.134 C 
ATOM      7  C   UNL     1      35.899 -20.668 -20.503  0.00  0.00    -0.021 C 
ATOM      8  C   UNL     1      36.755 -20.863 -19.419  0.00  0.00    -0.006 C 
ATOM      9  C   UNL     1      34.267 -22.124 -19.479  0.00  0.00    +0.036 C 
ATOM     10  C   UNL     1      34.658 -21.300 -20.535  0.00  0.00    -0.001 C 
ENDROOT
BRANCH   2  11
ATOM     11  C   UNL     1      34.911 -24.230 -15.293  0.00  0.00    +0.070 C 
BRANCH  11  12
ATOM     12  C   UNL     1      33.467 -24.092 -14.892  0.00  0.00    -0.019 C 
ATOM     13  C   UNL     1      32.751 -22.970 -15.291  0.00  0.00    -0.004 C 
ATOM     14  C   UNL     1      32.870 -25.086 -14.130  0.00  0.00    -0.004 C 
ATOM     15  C   UNL     1      31.413 -22.842 -14.920  0.00  0.00    -0.000 C 
ATOM     16  C   UNL     1      31.531 -24.958 -13.761  0.00  0.00    -0.000 C 
ATOM     17  C   UNL     1      30.803 -23.836 -14.155  0.00  0.00    -0.000 C 
ENDBRANCH  11  12
ENDBRANCH   2  11
BRANCH   7  18
ATOM     18  C   UNL     1      36.314 -19.783 -21.630  0.00  0.00    +0.047 C 
BRANCH  18  23
ATOM     19  S   UNL     1      34.956 -19.372 -23.998  0.00  0.00    -0.048 S 
ATOM     20  O   UNL     1      35.554 -16.929 -21.070  0.00  0.00    -0.274 OA
ATOM     21  O   UNL     1      34.997 -17.318 -25.638  0.00  0.00    -0.263 OA
ATOM     22  N   UNL     1      35.282 -16.918 -23.367  0.00  0.00    -0.246 N 
ATOM     23  C   UNL     1      35.138 -19.012 -22.224  0.00  0.00    +0.137 C 
ATOM     24  C   UNL     1      35.351 -17.518 -22.127  0.00  0.00    +0.239 C 
ATOM     25  C   UNL     1      35.079 -17.694 -24.479  0.00  0.00    +0.279 C 
ATOM     26  H   UNL     1      35.379 -15.942 -23.453  0.00  0.00    +0.158 HD
ENDBRANCH  18  23
ENDBRANCH   7  18
TORSDOF 4
ENDMDL
MODEL 6
REMARK VINA RESULT:     -10.6      5.792     10.020
REMARK  Name = 6918151
REMARK  4 active torsions:
REMARK  status: ('A' for Active; 'I' for Inactive)
REMARK    1  A    between atoms: C_2  and  C_11
REMARK    2  A    between atoms: C_7  and  C_18
REMARK    3  A    between atoms: C_11  and  C_12
REMARK    4  A    between atoms: C_18  and  C_23
REMARK                            x       y       z     vdW  Elec       q    Type
REMARK                         _______ _______ _______ _____ _____    ______ ____
ROOT
ATOM      1  O   UNL     1      35.926 -17.613 -21.167  0.00  0.00    -0.479 OA
ATOM      2  C   UNL     1      36.713 -18.525 -21.948  0.00  0.00    +0.171 C 
ATOM      3  C   UNL     1      35.962 -18.977 -23.199  0.00  0.00    +0.049 C 
ATOM      4  C   UNL     1      35.700 -17.767 -24.088  0.00  0.00    +0.033 C 
ATOM      5  C   UNL     1      35.188 -16.617 -23.271  0.00  0.00    +0.012 C 
ATOM      6  C   UNL     1      35.338 -16.599 -21.878  0.00  0.00    +0.134 C 
ATOM      7  C   UNL     1      34.091 -14.454 -23.157  0.00  0.00    -0.021 C 
ATOM      8  C   UNL     1      34.573 -15.529 -23.905  0.00  0.00    -0.006 C 
ATOM      9  C   UNL     1      34.844 -15.528 -21.129  0.00  0.00    +0.036 C 
ATOM     10  C   UNL     1      34.224 -14.455 -21.770  0.00  0.00    -0.001 C 
ENDROOT
BRANCH   2  11
ATOM     11  C   UNL     1      37.043 -19.715 -21.055  0.00  0.00    +0.070 C 
BRANCH  11  12
ATOM     12  C   UNL     1      35.801 -20.441 -20.613  0.00  0.00    -0.019 C 
ATOM     13  C   UNL     1      34.556 -19.974 -21.015  0.00  0.00    -0.004 C 
ATOM     14  C   UNL     1      35.915 -21.567 -19.809  0.00  0.00    -0.004 C 
ATOM     15  C   UNL     1      33.405 -20.646 -20.606  0.00  0.00    -0.000 C 
ATOM     16  C   UNL     1      34.763 -22.239 -19.401  0.00  0.00    -0.000 C 
ATOM     17  C   UNL     1      33.509 -21.778 -19.798  0.00  0.00    -0.000 C 
ENDBRANCH  11  12
ENDBRANCH   2  11
BRANCH   7  18
ATOM     18  C   UNL     1      33.433 -13.305 -23.842  0.00  0.00    +0.047 C 
BRANCH  18  23
ATOM     19  S   UNL     1      32.284 -11.392 -22.217  0.00  0.00    -0.048 S 
ATOM     20  O   UNL     1      34.926 -10.965 -24.997  0.00  0.00    -0.274 OA
ATOM     21  O   UNL     1      31.370  -8.998 -22.804  0.00  0.00    -0.263 OA
ATOM     22  N   UNL     1      33.179  -9.812 -24.013  0.00  0.00    -0.246 N 
ATOM     23  C   UNL     1      33.729 -11.973 -23.155  0.00  0.00    +0.137 C 
ATOM     24  C   UNL     1      34.031 -10.887 -24.162  0.00  0.00    +0.239 C 
ATOM     25  C   UNL     1      32.197  -9.860 -23.058  0.00  0.00    +0.279 C 
ATOM     26  H   UNL     1      33.276  -9.018 -24.587  0.00  0.00    +0.158 HD
ENDBRANCH  18  23
ENDBRANCH   7  18
TORSDOF 4
ENDMDL
MODEL 7
REMARK VINA RESULT:     -10.4      4.255      9.226
REMARK  Name = 6918151
REMARK  4 active torsions:
REMARK  status: ('A' for Active; 'I' for Inactive)
REMARK    1  A    between atoms: C_2  and  C_11
REMARK    2  A    between atoms: C_7  and  C_18
REMARK    3  A    between atoms: C_11  and  C_12
REMARK    4  A    between atoms: C_18  and  C_23
REMARK                            x       y       z     vdW  Elec       q    Type
REMARK                         _______ _______ _______ _____ _____    ______ ____
ROOT
ATOM      1  O   UNL     1      35.550 -22.905 -17.001  0.00  0.00    -0.479 OA
ATOM      2  C   UNL     1      34.565 -23.806 -16.472  0.00  0.00    +0.171 C 
ATOM      3  C   UNL     1      33.183 -23.158 -16.432  0.00  0.00    +0.049 C 
ATOM      4  C   UNL     1      32.744 -22.832 -17.855  0.00  0.00    +0.033 C 
ATOM      5  C   UNL     1      33.864 -22.182 -18.614  0.00  0.00    +0.012 C 
ATOM      6  C   UNL     1      35.186 -22.264 -18.158  0.00  0.00    +0.134 C 
ATOM      7  C   UNL     1      34.628 -20.894 -20.524  0.00  0.00    -0.021 C 
ATOM      8  C   UNL     1      33.595 -21.503 -19.810  0.00  0.00    -0.006 C 
ATOM      9  C   UNL     1      36.217 -21.642 -18.867  0.00  0.00    +0.036 C 
ATOM     10  C   UNL     1      35.937 -20.961 -20.051  0.00  0.00    -0.001 C 
ENDROOT
BRANCH   2  11
ATOM     11  C   UNL     1      35.020 -24.198 -15.070  0.00  0.00    +0.070 C 
BRANCH  11  12
ATOM     12  C   UNL     1      36.347 -24.908 -15.093  0.00  0.00    -0.019 C 
ATOM     13  C   UNL     1      37.512 -24.186 -14.874  0.00  0.00    -0.004 C 
ATOM     14  C   UNL     1      36.387 -26.275 -15.332  0.00  0.00    -0.004 C 
ATOM     15  C   UNL     1      38.742 -24.843 -14.895  0.00  0.00    -0.000 C 
ATOM     16  C   UNL     1      37.618 -26.932 -15.353  0.00  0.00    -0.000 C 
ATOM     17  C   UNL     1      38.794 -26.217 -15.135  0.00  0.00    -0.000 C 
ENDBRANCH  11  12
ENDBRANCH   2  11
BRANCH   7  18
ATOM     18  C   UNL     1      34.330 -20.169 -21.793  0.00  0.00    +0.047 C 
BRANCH  18  23
ATOM     19  S   UNL     1      35.574 -17.711 -21.620  0.00  0.00    -0.048 S 
ATOM     20  O   UNL     1      35.396 -20.152 -24.604  0.00  0.00    -0.274 OA
ATOM     21  O   UNL     1      35.633 -15.718 -23.334  0.00  0.00    -0.263 OA
ATOM     22  N   UNL     1      35.527 -17.884 -24.168  0.00  0.00    -0.246 N 
ATOM     23  C   UNL     1      35.537 -19.392 -22.314  0.00  0.00    +0.137 C 
ATOM     24  C   UNL     1      35.476 -19.217 -23.814  0.00  0.00    +0.239 C 
ATOM     25  C   UNL     1      35.585 -16.930 -23.186  0.00  0.00    +0.279 C 
ATOM     26  H   UNL     1      35.520 -17.622 -25.117  0.00  0.00    +0.158 HD
ENDBRANCH  18  23
ENDBRANCH   7  18
TORSDOF 4
ENDMDL
MODEL 8
REMARK VINA RESULT:     -10.4      3.489      9.190
REMARK  Name = 6918151
REMARK  4 active torsions:
REMARK  status: ('A' for Active; 'I' for Inactive)
REMARK    1  A    between atoms: C_2  and  C_11
REMARK    2  A    between atoms: C_7  and  C_18
REMARK    3  A    between atoms: C_11  and  C_12
REMARK    4  A    between atoms: C_18  and  C_23
REMARK                            x       y       z     vdW  Elec       q    Type
REMARK                         _______ _______ _______ _____ _____    ______ ____
ROOT
ATOM      1  O   UNL     1      33.343 -23.436 -16.581  0.00  0.00    -0.479 OA
ATOM      2  C   UNL     1      33.918 -23.407 -15.266  0.00  0.00    +0.171 C 
ATOM      3  C   UNL     1      35.372 -23.875 -15.284  0.00  0.00    +0.049 C 
ATOM      4  C   UNL     1      36.194 -22.911 -16.132  0.00  0.00    +0.033 C 
ATOM      5  C   UNL     1      35.482 -22.602 -17.417  0.00  0.00    +0.012 C 
ATOM      6  C   UNL     1      34.114 -22.867 -17.563  0.00  0.00    +0.134 C 
ATOM      7  C   UNL     1      35.529 -21.726 -19.680  0.00  0.00    -0.021 C 
ATOM      8  C   UNL     1      36.181 -22.016 -18.481  0.00  0.00    -0.006 C 
ATOM      9  C   UNL     1      33.466 -22.587 -18.769  0.00  0.00    +0.036 C 
ATOM     10  C   UNL     1      34.173 -22.014 -19.825  0.00  0.00    -0.001 C 
ENDROOT
BRANCH   2  11
ATOM     11  C   UNL     1      33.070 -24.315 -14.383  0.00  0.00    +0.070 C 
BRANCH  11  12
ATOM     12  C   UNL     1      31.611 -24.243 -14.748  0.00  0.00    -0.019 C 
ATOM     13  C   UNL     1      30.851 -25.405 -14.762  0.00  0.00    -0.004 C 
ATOM     14  C   UNL     1      31.046 -23.016 -15.066  0.00  0.00    -0.004 C 
ATOM     15  C   UNL     1      29.500 -25.338 -15.100  0.00  0.00    -0.000 C 
ATOM     16  C   UNL     1      29.694 -22.949 -15.404  0.00  0.00    -0.000 C 
ATOM     17  C   UNL     1      28.921 -24.110 -15.421  0.00  0.00    -0.000 C 
ENDBRANCH  11  12
ENDBRANCH   2  11
BRANCH   7  18
ATOM     18  C   UNL     1      36.284 -21.108 -20.808  0.00  0.00    +0.047 C 
BRANCH  18  23
ATOM     19  S   UNL     1      34.770 -19.622 -22.573  0.00  0.00    -0.048 S 
ATOM     20  O   UNL     1      37.947 -18.609 -20.629  0.00  0.00    -0.274 OA
ATOM     21  O   UNL     1      35.522 -18.016 -24.514  0.00  0.00    -0.263 OA
ATOM     22  N   UNL     1      36.871 -18.170 -22.629  0.00  0.00    -0.246 N 
ATOM     23  C   UNL     1      35.830 -19.679 -21.096  0.00  0.00    +0.137 C 
ATOM     24  C   UNL     1      37.004 -18.775 -21.396  0.00  0.00    +0.239 C 
ATOM     25  C   UNL     1      35.782 -18.463 -23.408  0.00  0.00    +0.279 C 
ATOM     26  H   UNL     1      37.553 -17.534 -22.946  0.00  0.00    +0.158 HD
ENDBRANCH  18  23
ENDBRANCH   7  18
TORSDOF 4
ENDMDL
MODEL 9
REMARK VINA RESULT:     -10.3      4.381      9.551
REMARK  Name = 6918151
REMARK  4 active torsions:
REMARK  status: ('A' for Active; 'I' for Inactive)
REMARK    1  A    between atoms: C_2  and  C_11
REMARK    2  A    between atoms: C_7  and  C_18
REMARK    3  A    between atoms: C_11  and  C_12
REMARK    4  A    between atoms: C_18  and  C_23
REMARK                            x       y       z     vdW  Elec       q    Type
REMARK                         _______ _______ _______ _____ _____    ______ ____
ROOT
ATOM      1  O   UNL     1      35.600 -23.098 -15.736  0.00  0.00    -0.479 OA
ATOM      2  C   UNL     1      34.533 -24.015 -15.450  0.00  0.00    +0.171 C 
ATOM      3  C   UNL     1      33.202 -23.510 -16.005  0.00  0.00    +0.049 C 
ATOM      4  C   UNL     1      33.297 -23.423 -17.523  0.00  0.00    +0.033 C 
ATOM      5  C   UNL     1      34.585 -22.771 -17.933  0.00  0.00    +0.012 C 
ATOM      6  C   UNL     1      35.653 -22.658 -17.034  0.00  0.00    +0.134 C 
ATOM      7  C   UNL     1      35.932 -21.680 -19.632  0.00  0.00    -0.021 C 
ATOM      8  C   UNL     1      34.739 -22.289 -19.240  0.00  0.00    -0.006 C 
ATOM      9  C   UNL     1      36.842 -22.036 -17.424  0.00  0.00    +0.036 C 
ATOM     10  C   UNL     1      36.981 -21.551 -18.724  0.00  0.00    -0.001 C 
ENDROOT
BRANCH   2  11
ATOM     11  C   UNL     1      34.464 -24.168 -13.934  0.00  0.00    +0.070 C 
BRANCH  11  12
ATOM     12  C   UNL     1      35.821 -24.424 -13.338  0.00  0.00    -0.019 C 
ATOM     13  C   UNL     1      36.554 -25.528 -13.756  0.00  0.00    -0.004 C 
ATOM     14  C   UNL     1      36.323 -23.555 -12.379  0.00  0.00    -0.004 C 
ATOM     15  C   UNL     1      37.813 -25.765 -13.203  0.00  0.00    -0.000 C 
ATOM     16  C   UNL     1      37.582 -23.793 -11.827  0.00  0.00    -0.000 C 
ATOM     17  C   UNL     1      38.326 -24.898 -12.239  0.00  0.00    -0.000 C 
ENDBRANCH  11  12
ENDBRANCH   2  11
BRANCH   7  18
ATOM     18  C   UNL     1      36.083 -21.165 -21.024  0.00  0.00    +0.047 C 
BRANCH  18  23
ATOM     19  S   UNL     1      34.584 -19.459 -22.592  0.00  0.00    -0.048 S 
ATOM     20  O   UNL     1      37.818 -18.745 -20.610  0.00  0.00    -0.274 OA
ATOM     21  O   UNL     1      35.351 -17.675 -24.365  0.00  0.00    -0.263 OA
ATOM     22  N   UNL     1      36.725 -18.066 -22.532  0.00  0.00    -0.246 N 
ATOM     23  C   UNL     1      35.665 -19.702 -21.150  0.00  0.00    +0.137 C 
ATOM     24  C   UNL     1      36.860 -18.803 -21.373  0.00  0.00    +0.239 C 
ATOM     25  C   UNL     1      35.616 -18.245 -23.317  0.00  0.00    +0.279 C 
ATOM     26  H   UNL     1      37.419 -17.418 -22.792  0.00  0.00    +0.158 HD
ENDBRANCH  18  23
ENDBRANCH   7  18
TORSDOF 4
ENDMDL
