MODEL 1
REMARK VINA RESULT:     -11.1      0.000      0.000
REMARK  Name = 60149
REMARK  5 active torsions:
REMARK  status: ('A' for Active; 'I' for Inactive)
REMARK    1  A    between atoms: N_2  and  C_12
REMARK    2  A    between atoms: C_3  and  C_19
REMARK    3  A    between atoms: N_18  and  C_25
REMARK    4  A    between atoms: C_25  and  C_26
REMARK    5  A    between atoms: C_26  and  N_28
REMARK                            x       y       z     vdW  Elec       q    Type
REMARK                         _______ _______ _______ _____ _____    ______ ____
ROOT
ATOM      1 CL   UNL     1      31.425 -11.870 -17.589  0.00  0.00    -0.082 Cl
ATOM      2  N   UNL     1      32.857  -9.856 -22.883  0.00  0.00    -0.265 N 
ATOM      3  C   UNL     1      33.043 -12.049 -22.639  0.00  0.00    -0.006 C 
ATOM      4  C   UNL     1      32.589 -11.507 -21.407  0.00  0.00    +0.012 C 
ATOM      5  C   UNL     1      33.199 -11.014 -23.527  0.00  0.00    +0.065 C 
ATOM      6  C   UNL     1      32.479 -10.127 -21.587  0.00  0.00    +0.055 C 
ATOM      7  C   UNL     1      32.259 -12.056 -20.152  0.00  0.00    +0.012 C 
ATOM      8  C   UNL     1      32.054  -9.265 -20.570  0.00  0.00    +0.016 C 
ATOM      9  C   UNL     1      31.832 -11.206 -19.126  0.00  0.00    +0.058 C 
ATOM     10  C   UNL     1      31.732  -9.831 -19.334  0.00  0.00    +0.013 C 
ENDROOT
BRANCH   2  12
ATOM     11  F   UNL     1      32.987  -4.867 -25.223  0.00  0.00    -0.204 F 
ATOM     12  C   UNL     1      32.890  -8.591 -23.476  0.00  0.00    +0.056 C 
ATOM     13  C   UNL     1      34.093  -7.906 -23.558  0.00  0.00    +0.017 C 
ATOM     14  C   UNL     1      31.718  -8.041 -23.974  0.00  0.00    +0.017 C 
ATOM     15  C   UNL     1      34.126  -6.643 -24.149  0.00  0.00    +0.031 C 
ATOM     16  C   UNL     1      31.750  -6.777 -24.566  0.00  0.00    +0.031 C 
ATOM     17  C   UNL     1      32.955  -6.079 -24.654  0.00  0.00    +0.140 C 
ENDBRANCH   2  12
BRANCH   3  19
ATOM     18  N   UNL     1      35.027 -15.735 -23.769  0.00  0.00    +0.388 N 
ATOM     19  C   UNL     1      33.312 -13.508 -22.931  0.00  0.00    +0.019 C 
ATOM     20  C   UNL     1      33.675 -13.762 -24.403  0.00  0.00    -0.018 C 
ATOM     21  C   UNL     1      34.393 -14.107 -22.017  0.00  0.00    -0.018 C 
ATOM     22  C   UNL     1      33.963 -15.244 -24.656  0.00  0.00    -0.077 C 
ATOM     23  C   UNL     1      34.656 -15.576 -22.357  0.00  0.00    -0.077 C 
ATOM     24  H   UNL     1      35.863 -15.176 -23.940  0.00  0.00    -0.080 HD
BRANCH  18  25
ATOM     25  C   UNL     1      35.330 -17.136 -24.063  0.00  0.00    -0.055 C 
BRANCH  25  26
ATOM     26  C   UNL     1      36.474 -17.624 -23.186  0.00  0.00    +0.077 C 
BRANCH  26  28
ATOM     27  O   UNL     1      37.787 -18.753 -20.729  0.00  0.00    -0.252 OA
ATOM     28  N   UNL     1      36.049 -18.693 -22.324  0.00  0.00    -0.243 N 
ATOM     29  N   UNL     1      35.939 -20.186 -20.629  0.00  0.00    -0.266 N 
ATOM     30  C   UNL     1      34.780 -19.378 -22.502  0.00  0.00    +0.085 C 
ATOM     31  C   UNL     1      34.772 -20.455 -21.428  0.00  0.00    +0.082 C 
ATOM     32  C   UNL     1      36.722 -19.158 -21.177  0.00  0.00    +0.311 C 
ATOM     33  H   UNL     1      36.161 -20.665 -19.797  0.00  0.00    +0.157 HD
ENDBRANCH  26  28
ENDBRANCH  25  26
ENDBRANCH  18  25
ENDBRANCH   3  19
TORSDOF 5
ENDMDL
MODEL 2
REMARK VINA RESULT:     -10.8      6.758     12.551
REMARK  Name = 60149
REMARK  5 active torsions:
REMARK  status: ('A' for Active; 'I' for Inactive)
REMARK    1  A    between atoms: N_2  and  C_12
REMARK    2  A    between atoms: C_3  and  C_19
REMARK    3  A    between atoms: N_18  and  C_25
REMARK    4  A    between atoms: C_25  and  C_26
REMARK    5  A    between atoms: C_26  and  N_28
REMARK                            x       y       z     vdW  Elec       q    Type
REMARK                         _______ _______ _______ _____ _____    ______ ____
ROOT
ATOM      1 CL   UNL     1      38.604 -23.418 -15.571  0.00  0.00    -0.082 Cl
ATOM      2  N   UNL     1      33.011 -23.086 -17.228  0.00  0.00    -0.265 N 
ATOM      3  C   UNL     1      34.460 -22.220 -18.661  0.00  0.00    -0.006 C 
ATOM      4  C   UNL     1      35.188 -22.721 -17.549  0.00  0.00    +0.012 C 
ATOM      5  C   UNL     1      33.127 -22.457 -18.438  0.00  0.00    +0.065 C 
ATOM      6  C   UNL     1      34.254 -23.261 -16.663  0.00  0.00    +0.055 C 
ATOM      7  C   UNL     1      36.555 -22.769 -17.208  0.00  0.00    +0.012 C 
ATOM      8  C   UNL     1      34.620 -23.850 -15.447  0.00  0.00    +0.016 C 
ATOM      9  C   UNL     1      36.934 -23.354 -15.995  0.00  0.00    +0.058 C 
ATOM     10  C   UNL     1      35.981 -23.886 -15.129  0.00  0.00    +0.013 C 
ENDROOT
BRANCH   2  12
ATOM     11  F   UNL     1      28.217 -24.670 -15.018  0.00  0.00    -0.204 F 
ATOM     12  C   UNL     1      31.795 -23.488 -16.667  0.00  0.00    +0.056 C 
ATOM     13  C   UNL     1      30.652 -22.741 -16.910  0.00  0.00    +0.017 C 
ATOM     14  C   UNL     1      31.752 -24.628 -15.878  0.00  0.00    +0.017 C 
ATOM     15  C   UNL     1      29.439 -23.141 -16.349  0.00  0.00    +0.031 C 
ATOM     16  C   UNL     1      30.539 -25.028 -15.317  0.00  0.00    +0.031 C 
ATOM     17  C   UNL     1      29.382 -24.285 -15.554  0.00  0.00    +0.140 C 
ENDBRANCH   2  12
BRANCH   3  19
ATOM     18  N   UNL     1      35.960 -19.192 -21.378  0.00  0.00    +0.388 N 
ATOM     19  C   UNL     1      35.042 -21.541 -19.880  0.00  0.00    +0.019 C 
ATOM     20  C   UNL     1      34.069 -20.540 -20.524  0.00  0.00    -0.018 C 
ATOM     21  C   UNL     1      36.384 -20.851 -19.592  0.00  0.00    -0.018 C 
ATOM     22  C   UNL     1      34.700 -19.856 -21.739  0.00  0.00    -0.077 C 
ATOM     23  C   UNL     1      36.931 -20.154 -20.840  0.00  0.00    -0.077 C 
ATOM     24  H   UNL     1      35.759 -18.508 -20.650  0.00  0.00    -0.080 HD
BRANCH  18  25
ATOM     25  C   UNL     1      36.520 -18.495 -22.537  0.00  0.00    -0.055 C 
BRANCH  25  26
ATOM     26  C   UNL     1      35.484 -18.400 -23.647  0.00  0.00    +0.077 C 
BRANCH  26  28
ATOM     27  O   UNL     1      34.644 -17.137 -26.242  0.00  0.00    -0.252 OA
ATOM     28  N   UNL     1      35.163 -17.030 -23.942  0.00  0.00    -0.243 N 
ATOM     29  N   UNL     1      34.525 -15.145 -25.017  0.00  0.00    -0.266 N 
ATOM     30  C   UNL     1      35.128 -16.001 -22.917  0.00  0.00    +0.085 C 
ATOM     31  C   UNL     1      34.813 -14.719 -23.671  0.00  0.00    +0.082 C 
ATOM     32  C   UNL     1      34.765 -16.517 -25.192  0.00  0.00    +0.311 C 
ATOM     33  H   UNL     1      34.199 -14.546 -25.728  0.00  0.00    +0.157 HD
ENDBRANCH  26  28
ENDBRANCH  25  26
ENDBRANCH  18  25
ENDBRANCH   3  19
TORSDOF 5
ENDMDL
MODEL 3
REMARK VINA RESULT:     -10.4      4.512      9.967
REMARK  Name = 60149
REMARK  5 active torsions:
REMARK  status: ('A' for Active; 'I' for Inactive)
REMARK    1  A    between atoms: N_2  and  C_12
REMARK    2  A    between atoms: C_3  and  C_19
REMARK    3  A    between atoms: N_18  and  C_25
REMARK    4  A    between atoms: C_25  and  C_26
REMARK    5  A    between atoms: C_26  and  N_28
REMARK                            x       y       z     vdW  Elec       q    Type
REMARK                         _______ _______ _______ _____ _____    ______ ____
ROOT
ATOM      1 CL   UNL     1      31.191 -11.221 -18.402  0.00  0.00    -0.082 Cl
ATOM      2  N   UNL     1      33.450 -12.600 -23.611  0.00  0.00    -0.265 N 
ATOM      3  C   UNL     1      33.007 -10.449 -23.327  0.00  0.00    -0.006 C 
ATOM      4  C   UNL     1      32.644 -11.132 -22.136  0.00  0.00    +0.012 C 
ATOM      5  C   UNL     1      33.498 -11.372 -24.215  0.00  0.00    +0.065 C 
ATOM      6  C   UNL     1      32.933 -12.482 -22.340  0.00  0.00    +0.055 C 
ATOM      7  C   UNL     1      32.096 -10.734 -20.900  0.00  0.00    +0.012 C 
ATOM      8  C   UNL     1      32.702 -13.459 -21.364  0.00  0.00    +0.016 C 
ATOM      9  C   UNL     1      31.859 -11.700 -19.917  0.00  0.00    +0.058 C 
ATOM     10  C   UNL     1      32.158 -13.042 -20.147  0.00  0.00    +0.013 C 
ENDROOT
BRANCH   2  12
ATOM     11  F   UNL     1      35.121 -17.282 -25.990  0.00  0.00    -0.204 F 
ATOM     12  C   UNL     1      33.874 -13.787 -24.214  0.00  0.00    +0.056 C 
ATOM     13  C   UNL     1      33.333 -14.162 -25.435  0.00  0.00    +0.017 C 
ATOM     14  C   UNL     1      34.828 -14.570 -23.582  0.00  0.00    +0.017 C 
ATOM     15  C   UNL     1      33.755 -15.348 -26.037  0.00  0.00    +0.031 C 
ATOM     16  C   UNL     1      35.250 -15.756 -24.183  0.00  0.00    +0.031 C 
ATOM     17  C   UNL     1      34.715 -16.145 -25.412  0.00  0.00    +0.140 C 
ENDBRANCH   2  12
BRANCH   3  19
ATOM     18  N   UNL     1      32.362  -6.200 -22.745  0.00  0.00    +0.388 N 
ATOM     19  C   UNL     1      32.876  -8.964 -23.583  0.00  0.00    +0.019 C 
ATOM     20  C   UNL     1      31.460  -8.435 -23.304  0.00  0.00    -0.018 C 
ATOM     21  C   UNL     1      33.905  -8.134 -22.800  0.00  0.00    -0.018 C 
ATOM     22  C   UNL     1      31.371  -6.928 -23.550  0.00  0.00    -0.077 C 
ATOM     23  C   UNL     1      33.728  -6.636 -23.064  0.00  0.00    -0.077 C 
ATOM     24  H   UNL     1      32.186  -6.411 -21.763  0.00  0.00    -0.080 HD
BRANCH  18  25
ATOM     25  C   UNL     1      32.226  -4.757 -22.948  0.00  0.00    -0.055 C 
BRANCH  25  26
ATOM     26  C   UNL     1      31.488  -4.475 -24.248  0.00  0.00    +0.077 C 
BRANCH  26  28
ATOM     27  O   UNL     1      33.470  -5.358 -26.328  0.00  0.00    -0.252 OA
ATOM     28  N   UNL     1      32.294  -3.690 -25.144  0.00  0.00    -0.243 N 
ATOM     29  N   UNL     1      33.740  -3.075 -26.770  0.00  0.00    -0.266 N 
ATOM     30  C   UNL     1      32.192  -2.243 -25.216  0.00  0.00    +0.085 C 
ATOM     31  C   UNL     1      33.251  -1.834 -26.228  0.00  0.00    +0.082 C 
ATOM     32  C   UNL     1      33.198  -4.185 -26.103  0.00  0.00    +0.311 C 
ATOM     33  H   UNL     1      34.378  -3.137 -27.518  0.00  0.00    +0.157 HD
ENDBRANCH  26  28
ENDBRANCH  25  26
ENDBRANCH  18  25
ENDBRANCH   3  19
TORSDOF 5
ENDMDL
MODEL 4
REMARK VINA RESULT:     -10.2      4.475     10.015
REMARK  Name = 60149
REMARK  5 active torsions:
REMARK  status: ('A' for Active; 'I' for Inactive)
REMARK    1  A    between atoms: N_2  and  C_12
REMARK    2  A    between atoms: C_3  and  C_19
REMARK    3  A    between atoms: N_18  and  C_25
REMARK    4  A    between atoms: C_25  and  C_26
REMARK    5  A    between atoms: C_26  and  N_28
REMARK                            x       y       z     vdW  Elec       q    Type
REMARK                         _______ _______ _______ _____ _____    ______ ____
ROOT
ATOM      1 CL   UNL     1      31.356 -11.478 -18.671  0.00  0.00    -0.082 Cl
ATOM      2  N   UNL     1      33.675 -13.411 -23.673  0.00  0.00    -0.265 N 
ATOM      3  C   UNL     1      33.318 -11.227 -23.594  0.00  0.00    -0.006 C 
ATOM      4  C   UNL     1      32.898 -11.785 -22.357  0.00  0.00    +0.012 C 
ATOM      5  C   UNL     1      33.790 -12.246 -24.383  0.00  0.00    +0.065 C 
ATOM      6  C   UNL     1      33.134 -13.159 -22.432  0.00  0.00    +0.055 C 
ATOM      7  C   UNL     1      32.339 -11.255 -21.177  0.00  0.00    +0.012 C 
ATOM      8  C   UNL     1      32.838 -14.034 -21.381  0.00  0.00    +0.016 C 
ATOM      9  C   UNL     1      32.038 -12.119 -20.118  0.00  0.00    +0.058 C 
ATOM     10  C   UNL     1      32.284 -13.487 -20.220  0.00  0.00    +0.013 C 
ENDROOT
BRANCH   2  12
ATOM     11  F   UNL     1      35.197 -18.352 -25.582  0.00  0.00    -0.204 F 
ATOM     12  C   UNL     1      34.061 -14.664 -24.157  0.00  0.00    +0.056 C 
ATOM     13  C   UNL     1      33.602 -15.088 -25.395  0.00  0.00    +0.017 C 
ATOM     14  C   UNL     1      34.896 -15.463 -23.390  0.00  0.00    +0.017 C 
ATOM     15  C   UNL     1      33.986 -16.339 -25.878  0.00  0.00    +0.031 C 
ATOM     16  C   UNL     1      35.281 -16.714 -23.873  0.00  0.00    +0.031 C 
ATOM     17  C   UNL     1      34.827 -17.152 -25.117  0.00  0.00    +0.140 C 
ENDBRANCH   2  12
BRANCH   3  19
ATOM     18  N   UNL     1      33.486  -6.897 -23.421  0.00  0.00    +0.388 N 
ATOM     19  C   UNL     1      33.257  -9.767 -23.984  0.00  0.00    +0.019 C 
ATOM     20  C   UNL     1      32.181  -8.989 -23.209  0.00  0.00    -0.018 C 
ATOM     21  C   UNL     1      34.614  -9.058 -23.844  0.00  0.00    -0.018 C 
ATOM     22  C   UNL     1      32.165  -7.513 -23.612  0.00  0.00    -0.077 C 
ATOM     23  C   UNL     1      34.510  -7.579 -24.223  0.00  0.00    -0.077 C 
ATOM     24  H   UNL     1      33.739  -6.994 -22.438  0.00  0.00    -0.080 HD
BRANCH  18  25
ATOM     25  C   UNL     1      33.439  -5.473 -23.755  0.00  0.00    -0.055 C 
BRANCH  25  26
ATOM     26  C   UNL     1      32.130  -5.138 -24.456  0.00  0.00    +0.077 C 
BRANCH  26  28
ATOM     27  O   UNL     1      30.314  -5.003 -22.066  0.00  0.00    -0.252 OA
ATOM     28  N   UNL     1      31.491  -4.003 -23.850  0.00  0.00    -0.243 N 
ATOM     29  N   UNL     1      30.281  -2.695 -22.457  0.00  0.00    -0.266 N 
ATOM     30  C   UNL     1      31.719  -2.644 -24.310  0.00  0.00    +0.085 C 
ATOM     31  C   UNL     1      30.810  -1.787 -23.442  0.00  0.00    +0.082 C 
ATOM     32  C   UNL     1      30.656  -4.023 -22.716  0.00  0.00    +0.311 C 
ATOM     33  H   UNL     1      29.722  -2.417 -21.695  0.00  0.00    +0.157 HD
ENDBRANCH  26  28
ENDBRANCH  25  26
ENDBRANCH  18  25
ENDBRANCH   3  19
TORSDOF 5
ENDMDL
MODEL 5
REMARK VINA RESULT:     -10.2      4.900     10.215
REMARK  Name = 60149
REMARK  5 active torsions:
REMARK  status: ('A' for Active; 'I' for Inactive)
REMARK    1  A    between atoms: N_2  and  C_12
REMARK    2  A    between atoms: C_3  and  C_19
REMARK    3  A    between atoms: N_18  and  C_25
REMARK    4  A    between atoms: C_25  and  C_26
REMARK    5  A    between atoms: C_26  and  N_28
REMARK                            x       y       z     vdW  Elec       q    Type
REMARK                         _______ _______ _______ _____ _____    ______ ____
ROOT
ATOM      1 CL   UNL     1      31.284 -11.462 -18.365  0.00  0.00    -0.082 Cl
ATOM      2  N   UNL     1      33.467 -12.874 -23.597  0.00  0.00    -0.265 N 
ATOM      3  C   UNL     1      33.007 -10.724 -23.328  0.00  0.00    -0.006 C 
ATOM      4  C   UNL     1      32.671 -11.398 -22.124  0.00  0.00    +0.012 C 
ATOM      5  C   UNL     1      33.492 -11.653 -24.215  0.00  0.00    +0.065 C 
ATOM      6  C   UNL     1      32.971 -12.748 -22.319  0.00  0.00    +0.055 C 
ATOM      7  C   UNL     1      32.141 -10.993 -20.883  0.00  0.00    +0.012 C 
ATOM      8  C   UNL     1      32.766 -13.717 -21.329  0.00  0.00    +0.016 C 
ATOM      9  C   UNL     1      31.930 -11.951 -19.886  0.00  0.00    +0.058 C 
ATOM     10  C   UNL     1      32.238 -13.292 -20.107  0.00  0.00    +0.013 C 
ENDROOT
BRANCH   2  12
ATOM     11  F   UNL     1      35.143 -17.565 -25.954  0.00  0.00    -0.204 F 
ATOM     12  C   UNL     1      33.892 -14.063 -24.195  0.00  0.00    +0.056 C 
ATOM     13  C   UNL     1      34.832 -14.853 -23.549  0.00  0.00    +0.017 C 
ATOM     14  C   UNL     1      33.367 -14.434 -25.424  0.00  0.00    +0.017 C 
ATOM     15  C   UNL     1      35.258 -16.040 -24.147  0.00  0.00    +0.031 C 
ATOM     16  C   UNL     1      33.792 -15.621 -26.021  0.00  0.00    +0.031 C 
ATOM     17  C   UNL     1      34.737 -16.425 -25.382  0.00  0.00    +0.140 C 
ENDBRANCH   2  12
BRANCH   3  19
ATOM     18  N   UNL     1      32.779  -6.430 -22.773  0.00  0.00    +0.388 N 
ATOM     19  C   UNL     1      32.857  -9.244 -23.598  0.00  0.00    +0.019 C 
ATOM     20  C   UNL     1      31.648  -8.628 -22.875  0.00  0.00    -0.018 C 
ATOM     21  C   UNL     1      34.127  -8.447 -23.259  0.00  0.00    -0.018 C 
ATOM     22  C   UNL     1      31.542  -7.127 -23.150  0.00  0.00    -0.077 C 
ATOM     23  C   UNL     1      33.931  -6.952 -23.520  0.00  0.00    -0.077 C 
ATOM     24  H   UNL     1      32.945  -6.598 -21.781  0.00  0.00    -0.080 HD
BRANCH  18  25
ATOM     25  C   UNL     1      32.640  -4.989 -22.988  0.00  0.00    -0.055 C 
BRANCH  25  26
ATOM     26  C   UNL     1      31.451  -4.703 -23.893  0.00  0.00    +0.077 C 
BRANCH  26  28
ATOM     27  O   UNL     1      30.033  -2.124 -24.502  0.00  0.00    -0.252 OA
ATOM     28  N   UNL     1      31.765  -3.686 -24.859  0.00  0.00    -0.243 N 
ATOM     29  N   UNL     1      31.723  -1.787 -26.086  0.00  0.00    -0.266 N 
ATOM     30  C   UNL     1      32.955  -3.743 -25.690  0.00  0.00    +0.085 C 
ATOM     31  C   UNL     1      32.854  -2.522 -26.590  0.00  0.00    +0.082 C 
ATOM     32  C   UNL     1      31.049  -2.492 -25.077  0.00  0.00    +0.311 C 
ATOM     33  H   UNL     1      31.454  -0.896 -26.411  0.00  0.00    +0.157 HD
ENDBRANCH  26  28
ENDBRANCH  25  26
ENDBRANCH  18  25
ENDBRANCH   3  19
TORSDOF 5
ENDMDL
MODEL 6
REMARK VINA RESULT:     -10.1      4.692     10.146
REMARK  Name = 60149
REMARK  5 active torsions:
REMARK  status: ('A' for Active; 'I' for Inactive)
REMARK    1  A    between atoms: N_2  and  C_12
REMARK    2  A    between atoms: C_3  and  C_19
REMARK    3  A    between atoms: N_18  and  C_25
REMARK    4  A    between atoms: C_25  and  C_26
REMARK    5  A    between atoms: C_26  and  N_28
REMARK                            x       y       z     vdW  Elec       q    Type
REMARK                         _______ _______ _______ _____ _____    ______ ____
ROOT
ATOM      1 CL   UNL     1      33.934 -14.773 -27.398  0.00  0.00    -0.082 Cl
ATOM      2  N   UNL     1      35.089 -16.941 -22.097  0.00  0.00    -0.265 N 
ATOM      3  C   UNL     1      34.297 -14.873 -22.105  0.00  0.00    -0.006 C 
ATOM      4  C   UNL     1      34.384 -15.315 -23.452  0.00  0.00    +0.012 C 
ATOM      5  C   UNL     1      34.736 -15.890 -21.295  0.00  0.00    +0.065 C 
ATOM      6  C   UNL     1      34.884 -16.618 -23.420  0.00  0.00    +0.055 C 
ATOM      7  C   UNL     1      34.085 -14.733 -24.701  0.00  0.00    +0.012 C 
ATOM      8  C   UNL     1      35.101 -17.373 -24.579  0.00  0.00    +0.016 C 
ATOM      9  C   UNL     1      34.298 -15.476 -25.867  0.00  0.00    +0.058 C 
ATOM     10  C   UNL     1      34.798 -16.776 -25.805  0.00  0.00    +0.013 C 
ENDROOT
BRANCH   2  12
ATOM     11  F   UNL     1      37.031 -21.744 -20.217  0.00  0.00    -0.204 F 
ATOM     12  C   UNL     1      35.581 -18.159 -21.620  0.00  0.00    +0.056 C 
ATOM     13  C   UNL     1      36.945 -18.313 -21.423  0.00  0.00    +0.017 C 
ATOM     14  C   UNL     1      34.697 -19.194 -21.352  0.00  0.00    +0.017 C 
ATOM     15  C   UNL     1      37.437 -19.530 -20.948  0.00  0.00    +0.031 C 
ATOM     16  C   UNL     1      35.189 -20.410 -20.877  0.00  0.00    +0.031 C 
ATOM     17  C   UNL     1      36.559 -20.578 -20.674  0.00  0.00    +0.140 C 
ENDBRANCH   2  12
BRANCH   3  19
ATOM     18  N   UNL     1      31.728 -11.506 -21.172  0.00  0.00    +0.388 N 
ATOM     19  C   UNL     1      33.810 -13.520 -21.636  0.00  0.00    +0.019 C 
ATOM     20  C   UNL     1      33.206 -12.680 -22.773  0.00  0.00    -0.018 C 
ATOM     21  C   UNL     1      32.809 -13.620 -20.474  0.00  0.00    -0.018 C 
ATOM     22  C   UNL     1      32.703 -11.329 -22.258  0.00  0.00    -0.077 C 
ATOM     23  C   UNL     1      32.319 -12.235 -20.043  0.00  0.00    -0.077 C 
ATOM     24  H   UNL     1      30.952 -12.060 -21.533  0.00  0.00    -0.080 HD
BRANCH  18  25
ATOM     25  C   UNL     1      31.214 -10.209 -20.731  0.00  0.00    -0.055 C 
BRANCH  25  26
ATOM     26  C   UNL     1      32.363  -9.294 -20.333  0.00  0.00    +0.077 C 
BRANCH  26  28
ATOM     27  O   UNL     1      33.518  -6.619 -19.595  0.00  0.00    -0.252 OA
ATOM     28  N   UNL     1      32.291  -8.037 -21.027  0.00  0.00    -0.243 N 
ATOM     29  N   UNL     1      32.578  -5.869 -21.603  0.00  0.00    -0.266 N 
ATOM     30  C   UNL     1      31.656  -7.902 -22.327  0.00  0.00    +0.085 C 
ATOM     31  C   UNL     1      31.753  -6.419 -22.649  0.00  0.00    +0.082 C 
ATOM     32  C   UNL     1      32.873  -6.822 -20.616  0.00  0.00    +0.311 C 
ATOM     33  H   UNL     1      32.896  -4.937 -21.584  0.00  0.00    +0.157 HD
ENDBRANCH  26  28
ENDBRANCH  25  26
ENDBRANCH  18  25
ENDBRANCH   3  19
TORSDOF 5
ENDMDL
MODEL 7
REMARK VINA RESULT:      -9.5      1.575      2.370
REMARK  Name = 60149
REMARK  5 active torsions:
REMARK  status: ('A' for Active; 'I' for Inactive)
REMARK    1  A    between atoms: N_2  and  C_12
REMARK    2  A    between atoms: C_3  and  C_19
REMARK    3  A    between atoms: N_18  and  C_25
REMARK    4  A    between atoms: C_25  and  C_26
REMARK    5  A    between atoms: C_26  and  N_28
REMARK                            x       y       z     vdW  Elec       q    Type
REMARK                         _______ _______ _______ _____ _____    ______ ____
ROOT
ATOM      1 CL   UNL     1      31.692 -11.433 -18.415  0.00  0.00    -0.082 Cl
ATOM      2  N   UNL     1      32.821  -8.397 -23.277  0.00  0.00    -0.265 N 
ATOM      3  C   UNL     1      33.292 -10.557 -23.397  0.00  0.00    -0.006 C 
ATOM      4  C   UNL     1      32.778 -10.292 -22.100  0.00  0.00    +0.012 C 
ATOM      5  C   UNL     1      33.307  -9.377 -24.098  0.00  0.00    +0.065 C 
ATOM      6  C   UNL     1      32.489  -8.927 -22.050  0.00  0.00    +0.055 C 
ATOM      7  C   UNL     1      32.529 -11.080 -20.959  0.00  0.00    +0.012 C 
ATOM      8  C   UNL     1      31.960  -8.308 -20.911  0.00  0.00    +0.016 C 
ATOM      9  C   UNL     1      32.001 -10.475 -19.814  0.00  0.00    +0.058 C 
ATOM     10  C   UNL     1      31.722  -9.110 -19.792  0.00  0.00    +0.013 C 
ENDROOT
BRANCH   2  12
ATOM     11  F   UNL     1      32.287  -3.113 -24.753  0.00  0.00    -0.204 F 
ATOM     12  C   UNL     1      32.686  -7.057 -23.652  0.00  0.00    +0.056 C 
ATOM     13  C   UNL     1      31.509  -6.382 -23.359  0.00  0.00    +0.017 C 
ATOM     14  C   UNL     1      33.730  -6.424 -24.310  0.00  0.00    +0.017 C 
ATOM     15  C   UNL     1      31.374  -5.045 -23.734  0.00  0.00    +0.031 C 
ATOM     16  C   UNL     1      33.594  -5.087 -24.685  0.00  0.00    +0.031 C 
ATOM     17  C   UNL     1      32.417  -4.397 -24.396  0.00  0.00    +0.140 C 
ENDBRANCH   2  12
BRANCH   3  19
ATOM     18  N   UNL     1      33.313 -14.453 -25.301  0.00  0.00    +0.388 N 
ATOM     19  C   UNL     1      33.747 -11.900 -23.923  0.00  0.00    +0.019 C 
ATOM     20  C   UNL     1      33.004 -13.076 -23.268  0.00  0.00    -0.018 C 
ATOM     21  C   UNL     1      33.643 -12.005 -25.453  0.00  0.00    -0.018 C 
ATOM     22  C   UNL     1      33.472 -14.416 -23.841  0.00  0.00    -0.077 C 
ATOM     23  C   UNL     1      34.087 -13.384 -25.947  0.00  0.00    -0.077 C 
ATOM     24  H   UNL     1      32.328 -14.300 -25.514  0.00  0.00    -0.080 HD
BRANCH  18  25
ATOM     25  C   UNL     1      33.711 -15.760 -25.826  0.00  0.00    -0.055 C 
BRANCH  25  26
ATOM     26  C   UNL     1      35.100 -16.128 -25.328  0.00  0.00    +0.077 C 
BRANCH  26  28
ATOM     27  O   UNL     1      35.888 -16.613 -22.468  0.00  0.00    -0.252 OA
ATOM     28  N   UNL     1      35.072 -17.343 -24.559  0.00  0.00    -0.243 N 
ATOM     29  N   UNL     1      35.236 -18.826 -22.860  0.00  0.00    -0.266 N 
ATOM     30  C   UNL     1      34.544 -18.587 -25.089  0.00  0.00    +0.085 C 
ATOM     31  C   UNL     1      34.767 -19.603 -23.980  0.00  0.00    +0.082 C 
ATOM     32  C   UNL     1      35.452 -17.484 -23.210  0.00  0.00    +0.311 C 
ATOM     33  H   UNL     1      35.386 -19.194 -21.959  0.00  0.00    +0.157 HD
ENDBRANCH  26  28
ENDBRANCH  25  26
ENDBRANCH  18  25
ENDBRANCH   3  19
TORSDOF 5
ENDMDL
MODEL 8
REMARK VINA RESULT:      -9.3      4.608     10.000
REMARK  Name = 60149
REMARK  5 active torsions:
REMARK  status: ('A' for Active; 'I' for Inactive)
REMARK    1  A    between atoms: N_2  and  C_12
REMARK    2  A    between atoms: C_3  and  C_19
REMARK    3  A    between atoms: N_18  and  C_25
REMARK    4  A    between atoms: C_25  and  C_26
REMARK    5  A    between atoms: C_26  and  N_28
REMARK                            x       y       z     vdW  Elec       q    Type
REMARK                         _______ _______ _______ _____ _____    ______ ____
ROOT
ATOM      1 CL   UNL     1      31.288 -11.575 -18.052  0.00  0.00    -0.082 Cl
ATOM      2  N   UNL     1      33.462 -12.612 -23.375  0.00  0.00    -0.265 N 
ATOM      3  C   UNL     1      33.064 -10.480 -22.931  0.00  0.00    -0.006 C 
ATOM      4  C   UNL     1      32.701 -11.241 -21.788  0.00  0.00    +0.012 C 
ATOM      5  C   UNL     1      33.528 -11.345 -23.889  0.00  0.00    +0.065 C 
ATOM      6  C   UNL     1      32.961 -12.578 -22.093  0.00  0.00    +0.055 C 
ATOM      7  C   UNL     1      32.175 -10.924 -20.520  0.00  0.00    +0.012 C 
ATOM      8  C   UNL     1      32.721 -13.620 -21.189  0.00  0.00    +0.016 C 
ATOM      9  C   UNL     1      31.930 -11.955 -19.606  0.00  0.00    +0.058 C 
ATOM     10  C   UNL     1      32.199 -13.282 -19.938  0.00  0.00    +0.013 C 
ENDROOT
BRANCH   2  12
ATOM     11  F   UNL     1      35.012 -17.139 -26.110  0.00  0.00    -0.204 F 
ATOM     12  C   UNL     1      33.855 -13.760 -24.069  0.00  0.00    +0.056 C 
ATOM     13  C   UNL     1      34.843 -14.574 -23.536  0.00  0.00    +0.017 C 
ATOM     14  C   UNL     1      33.250 -14.066 -25.279  0.00  0.00    +0.017 C 
ATOM     15  C   UNL     1      35.237 -15.720 -24.229  0.00  0.00    +0.031 C 
ATOM     16  C   UNL     1      33.644 -15.212 -25.972  0.00  0.00    +0.031 C 
ATOM     17  C   UNL     1      34.636 -16.039 -25.446  0.00  0.00    +0.140 C 
ENDBRANCH   2  12
BRANCH   3  19
ATOM     18  N   UNL     1      32.680  -6.515 -24.644  0.00  0.00    +0.388 N 
ATOM     19  C   UNL     1      32.961  -8.978 -23.076  0.00  0.00    +0.019 C 
ATOM     20  C   UNL     1      34.121  -8.378 -23.886  0.00  0.00    -0.018 C 
ATOM     21  C   UNL     1      31.619  -8.531 -23.678  0.00  0.00    -0.018 C 
ATOM     22  C   UNL     1      33.971  -6.862 -24.033  0.00  0.00    -0.077 C 
ATOM     23  C   UNL     1      31.560  -7.009 -23.834  0.00  0.00    -0.077 C 
ATOM     24  H   UNL     1      32.632  -6.966 -25.557  0.00  0.00    -0.080 HD
BRANCH  18  25
ATOM     25  C   UNL     1      32.577  -5.067 -24.830  0.00  0.00    -0.055 C 
BRANCH  25  26
ATOM     26  C   UNL     1      33.838  -4.527 -25.487  0.00  0.00    +0.077 C 
BRANCH  26  28
ATOM     27  O   UNL     1      35.132  -4.619 -28.198  0.00  0.00    -0.252 OA
ATOM     28  N   UNL     1      33.528  -3.788 -26.680  0.00  0.00    -0.243 N 
ATOM     29  N   UNL     1      33.536  -3.019 -28.806  0.00  0.00    -0.266 N 
ATOM     30  C   UNL     1      32.403  -2.873 -26.757  0.00  0.00    +0.085 C 
ATOM     31  C   UNL     1      32.489  -2.276 -28.153  0.00  0.00    +0.082 C 
ATOM     32  C   UNL     1      34.182  -3.898 -27.923  0.00  0.00    +0.311 C 
ATOM     33  H   UNL     1      33.770  -2.922 -29.758  0.00  0.00    +0.157 HD
ENDBRANCH  26  28
ENDBRANCH  25  26
ENDBRANCH  18  25
ENDBRANCH   3  19
TORSDOF 5
ENDMDL
MODEL 9
REMARK VINA RESULT:      -8.3      2.037      2.507
REMARK  Name = 60149
REMARK  5 active torsions:
REMARK  status: ('A' for Active; 'I' for Inactive)
REMARK    1  A    between atoms: N_2  and  C_12
REMARK    2  A    between atoms: C_3  and  C_19
REMARK    3  A    between atoms: N_18  and  C_25
REMARK    4  A    between atoms: C_25  and  C_26
REMARK    5  A    between atoms: C_26  and  N_28
REMARK                            x       y       z     vdW  Elec       q    Type
REMARK                         _______ _______ _______ _____ _____    ______ ____
ROOT
ATOM      1 CL   UNL     1      31.516 -11.539 -17.210  0.00  0.00    -0.082 Cl
ATOM      2  N   UNL     1      32.581  -9.460 -22.565  0.00  0.00    -0.265 N 
ATOM      3  C   UNL     1      32.955 -11.628 -22.316  0.00  0.00    -0.006 C 
ATOM      4  C   UNL     1      32.504 -11.115 -21.070  0.00  0.00    +0.012 C 
ATOM      5  C   UNL     1      32.993 -10.592 -23.214  0.00  0.00    +0.065 C 
ATOM      6  C   UNL     1      32.276  -9.750 -21.254  0.00  0.00    +0.055 C 
ATOM      7  C   UNL     1      32.267 -11.679 -19.801  0.00  0.00    +0.012 C 
ATOM      8  C   UNL     1      31.819  -8.916 -20.226  0.00  0.00    +0.016 C 
ATOM      9  C   UNL     1      31.810 -10.857 -18.765  0.00  0.00    +0.058 C 
ATOM     10  C   UNL     1      31.590  -9.497 -18.976  0.00  0.00    +0.013 C 
ENDROOT
BRANCH   2  12
ATOM     11  F   UNL     1      32.215  -4.497 -24.934  0.00  0.00    -0.204 F 
ATOM     12  C   UNL     1      32.489  -8.201 -23.166  0.00  0.00    +0.056 C 
ATOM     13  C   UNL     1      31.254  -7.743 -23.602  0.00  0.00    +0.017 C 
ATOM     14  C   UNL     1      33.633  -7.431 -23.316  0.00  0.00    +0.017 C 
ATOM     15  C   UNL     1      31.161  -6.487 -24.203  0.00  0.00    +0.031 C 
ATOM     16  C   UNL     1      33.540  -6.176 -23.917  0.00  0.00    +0.031 C 
ATOM     17  C   UNL     1      32.304  -5.703 -24.359  0.00  0.00    +0.140 C 
ENDBRANCH   2  12
BRANCH   3  19
ATOM     18  N   UNL     1      35.207 -15.318 -22.657  0.00  0.00    +0.388 N 
ATOM     19  C   UNL     1      33.332 -13.063 -22.609  0.00  0.00    +0.019 C 
ATOM     20  C   UNL     1      34.456 -13.180 -23.652  0.00  0.00    -0.018 C 
ATOM     21  C   UNL     1      33.711 -13.848 -21.344  0.00  0.00    -0.018 C 
ATOM     22  C   UNL     1      34.827 -14.643 -23.905  0.00  0.00    -0.077 C 
ATOM     23  C   UNL     1      34.110 -15.287 -21.681  0.00  0.00    -0.077 C 
ATOM     24  H   UNL     1      35.999 -14.815 -22.256  0.00  0.00    -0.080 HD
BRANCH  18  25
ATOM     25  C   UNL     1      35.614 -16.698 -22.925  0.00  0.00    -0.055 C 
BRANCH  25  26
ATOM     26  C   UNL     1      35.696 -16.942 -24.425  0.00  0.00    +0.077 C 
BRANCH  26  28
ATOM     27  O   UNL     1      33.396 -16.618 -26.332  0.00  0.00    -0.252 OA
ATOM     28  N   UNL     1      34.711 -17.899 -24.850  0.00  0.00    -0.243 N 
ATOM     29  N   UNL     1      32.969 -18.879 -25.907  0.00  0.00    -0.266 N 
ATOM     30  C   UNL     1      34.747 -19.290 -24.433  0.00  0.00    +0.085 C 
ATOM     31  C   UNL     1      33.506 -19.910 -25.056  0.00  0.00    +0.082 C 
ATOM     32  C   UNL     1      33.663 -17.668 -25.763  0.00  0.00    +0.311 C 
ATOM     33  H   UNL     1      32.206 -19.010 -26.517  0.00  0.00    +0.157 HD
ENDBRANCH  26  28
ENDBRANCH  25  26
ENDBRANCH  18  25
ENDBRANCH   3  19
TORSDOF 5
ENDMDL
