MODEL 1
REMARK VINA RESULT:     -11.2      0.000      0.000
REMARK  Name = 5289411
REMARK  6 active torsions:
REMARK  status: ('A' for Active; 'I' for Inactive)
REMARK    1  A    between atoms: N_3  and  C_9
REMARK    2  A    between atoms: C_4  and  O_25
REMARK    3  A    between atoms: C_5  and  N_24
REMARK    4  A    between atoms: C_12  and  C_17
REMARK    5  A    between atoms: O_25  and  C_26
REMARK    6  A    between atoms: C_26  and  C_27
REMARK                            x       y       z     vdW  Elec       q    Type
REMARK                         _______ _______ _______ _____ _____    ______ ____
ROOT
ATOM      1  N   UNL     1      34.042 -23.878 -16.178  0.00  0.00    -0.293 NA
ATOM      2  N   UNL     1      32.479 -24.030 -14.350  0.00  0.00    -0.316 NA
ATOM      3  N   UNL     1      34.688 -24.786 -14.113  0.00  0.00    -0.238 N 
ATOM      4  C   UNL     1      33.061 -23.324 -16.920  0.00  0.00    +0.292 C 
ATOM      5  C   UNL     1      31.784 -23.095 -16.456  0.00  0.00    +0.261 C 
ATOM      6  C   UNL     1      31.546 -23.471 -15.149  0.00  0.00    +0.196 C 
ATOM      7  C   UNL     1      33.687 -24.203 -14.920  0.00  0.00    +0.207 C 
ATOM      8  H   UNL     1      34.383 -25.007 -13.202  0.00  0.00    +0.166 HD
ATOM      9  N   UNL     1      30.256 -23.266 -14.599  0.00  0.00    -0.334 N 
ATOM     10  H   UNL     1      30.071 -23.530 -13.668  0.00  0.00    +0.144 HD
ATOM     11  H   UNL     1      29.546 -22.861 -15.147  0.00  0.00    +0.144 HD
ENDROOT
BRANCH   3  12
ATOM     12  C   UNL     1      36.034 -25.113 -14.354  0.00  0.00    +0.058 C 
ATOM     13  C   UNL     1      36.357 -26.239 -15.114  0.00  0.00    +0.015 C 
ATOM     14  C   UNL     1      37.054 -24.315 -13.831  0.00  0.00    +0.015 C 
ATOM     15  C   UNL     1      38.709 -25.765 -14.827  0.00  0.00    +0.053 C 
ATOM     16  C   UNL     1      37.693 -26.564 -15.351  0.00  0.00    +0.006 C 
ATOM     17  C   UNL     1      38.390 -24.640 -14.067  0.00  0.00    +0.006 C 
BRANCH  15  20
ATOM     18  O   UNL     1      40.632 -25.901 -16.179  0.00  0.00    -0.270 OA
ATOM     19  N   UNL     1      40.830 -26.653 -14.022  0.00  0.00    -0.325 N 
ATOM     20  C   UNL     1      40.101 -26.105 -15.073  0.00  0.00    +0.243 C 
ATOM     21  H   UNL     1      41.775 -26.895 -14.152  0.00  0.00    +0.145 HD
ATOM     22  H   UNL     1      40.401 -26.797 -13.149  0.00  0.00    +0.145 HD
ENDBRANCH  15  20
ENDBRANCH   3  12
BRANCH   5  24
ATOM     23  O   UNL     1      29.793 -23.216 -17.358  0.00  0.00    -0.099 OA
ATOM     24  N   UNL     1      30.818 -22.527 -17.252  0.00  0.00    -0.030 NA
ENDBRANCH   5  24
BRANCH   4  25
ATOM     25  O   UNL     1      33.405 -22.988 -18.206  0.00  0.00    -0.453 OA
BRANCH  25  26
ATOM     26  C   UNL     1      34.764 -22.676 -18.448  0.00  0.00    +0.208 C 
BRANCH  26  27
ATOM     27  C   UNL     1      34.860 -21.919 -19.771  0.00  0.00    +0.044 C 
ATOM     28  C   UNL     1      33.609 -21.057 -19.993  0.00  0.00    +0.004 C 
ATOM     29  C   UNL     1      36.130 -21.060 -19.815  0.00  0.00    +0.004 C 
ATOM     30  C   UNL     1      33.704 -20.249 -21.286  0.00  0.00    +0.000 C 
ATOM     31  C   UNL     1      36.221 -20.252 -21.107  0.00  0.00    +0.000 C 
ATOM     32  C   UNL     1      34.973 -19.403 -21.328  0.00  0.00    +0.000 C 
ENDBRANCH  26  27
ENDBRANCH  25  26
ENDBRANCH   4  25
TORSDOF 6
ENDMDL
MODEL 2
REMARK VINA RESULT:     -11.0      3.070      6.972
REMARK  Name = 5289411
REMARK  6 active torsions:
REMARK  status: ('A' for Active; 'I' for Inactive)
REMARK    1  A    between atoms: N_3  and  C_9
REMARK    2  A    between atoms: C_4  and  O_25
REMARK    3  A    between atoms: C_5  and  N_24
REMARK    4  A    between atoms: C_12  and  C_17
REMARK    5  A    between atoms: O_25  and  C_26
REMARK    6  A    between atoms: C_26  and  C_27
REMARK                            x       y       z     vdW  Elec       q    Type
REMARK                         _______ _______ _______ _____ _____    ______ ____
ROOT
ATOM      1  N   UNL     1      35.381 -23.849 -14.291  0.00  0.00    -0.293 NA
ATOM      2  N   UNL     1      37.694 -23.830 -13.612  0.00  0.00    -0.316 NA
ATOM      3  N   UNL     1      37.048 -23.014 -15.715  0.00  0.00    -0.238 N 
ATOM      4  C   UNL     1      35.077 -24.403 -13.099  0.00  0.00    +0.292 C 
ATOM      5  C   UNL     1      36.009 -24.696 -12.127  0.00  0.00    +0.261 C 
ATOM      6  C   UNL     1      37.317 -24.385 -12.441  0.00  0.00    +0.196 C 
ATOM      7  C   UNL     1      36.690 -23.593 -14.479  0.00  0.00    +0.207 C 
ATOM      8  H   UNL     1      38.014 -22.845 -15.808  0.00  0.00    +0.166 HD
ATOM      9  N   UNL     1      38.335 -24.657 -11.493  0.00  0.00    -0.334 N 
ATOM     10  H   UNL     1      39.273 -24.441 -11.702  0.00  0.00    +0.144 HD
ATOM     11  H   UNL     1      38.104 -25.060 -10.625  0.00  0.00    +0.144 HD
ENDROOT
BRANCH   3  12
ATOM     12  C   UNL     1      36.295 -22.630 -16.840  0.00  0.00    +0.058 C 
ATOM     13  C   UNL     1      36.895 -21.900 -17.869  0.00  0.00    +0.015 C 
ATOM     14  C   UNL     1      34.945 -22.975 -16.931  0.00  0.00    +0.015 C 
ATOM     15  C   UNL     1      34.800 -21.864 -19.071  0.00  0.00    +0.053 C 
ATOM     16  C   UNL     1      36.148 -21.518 -18.983  0.00  0.00    +0.006 C 
ATOM     17  C   UNL     1      34.198 -22.593 -18.045  0.00  0.00    +0.006 C 
BRANCH  15  20
ATOM     18  O   UNL     1      32.905 -21.959 -20.466  0.00  0.00    -0.270 OA
ATOM     19  N   UNL     1      34.559 -20.491 -21.070  0.00  0.00    -0.325 N 
ATOM     20  C   UNL     1      34.022 -21.464 -20.233  0.00  0.00    +0.243 C 
ATOM     21  H   UNL     1      34.061 -20.195 -21.865  0.00  0.00    +0.145 HD
ATOM     22  H   UNL     1      35.439 -20.098 -20.866  0.00  0.00    +0.145 HD
ENDBRANCH  15  20
ENDBRANCH   3  12
BRANCH   5  24
ATOM     23  O   UNL     1      35.745 -24.487  -9.964  0.00  0.00    -0.099 OA
ATOM     24  N   UNL     1      35.648 -25.261 -10.928  0.00  0.00    -0.030 NA
ENDBRANCH   5  24
BRANCH   4  25
ATOM     25  O   UNL     1      33.746 -24.672 -12.890  0.00  0.00    -0.453 OA
BRANCH  25  26
ATOM     26  C   UNL     1      32.822 -23.661 -13.246  0.00  0.00    +0.208 C 
BRANCH  26  27
ATOM     27  C   UNL     1      32.037 -24.130 -14.469  0.00  0.00    +0.044 C 
ATOM     28  C   UNL     1      30.912 -25.088 -14.056  0.00  0.00    +0.004 C 
ATOM     29  C   UNL     1      31.477 -22.932 -15.246  0.00  0.00    +0.004 C 
ATOM     30  C   UNL     1      30.078 -25.530 -15.257  0.00  0.00    +0.000 C 
ATOM     31  C   UNL     1      30.643 -23.377 -16.446  0.00  0.00    +0.000 C 
ATOM     32  C   UNL     1      29.531 -24.336 -16.031  0.00  0.00    +0.000 C 
ENDBRANCH  26  27
ENDBRANCH  25  26
ENDBRANCH   4  25
TORSDOF 6
ENDMDL
MODEL 3
REMARK VINA RESULT:     -10.9      2.155      6.633
REMARK  Name = 5289411
REMARK  6 active torsions:
REMARK  status: ('A' for Active; 'I' for Inactive)
REMARK    1  A    between atoms: N_3  and  C_9
REMARK    2  A    between atoms: C_4  and  O_25
REMARK    3  A    between atoms: C_5  and  N_24
REMARK    4  A    between atoms: C_12  and  C_17
REMARK    5  A    between atoms: O_25  and  C_26
REMARK    6  A    between atoms: C_26  and  C_27
REMARK                            x       y       z     vdW  Elec       q    Type
REMARK                         _______ _______ _______ _____ _____    ______ ____
ROOT
ATOM      1  N   UNL     1      34.651 -24.066 -14.765  0.00  0.00    -0.293 NA
ATOM      2  N   UNL     1      34.940 -24.382 -12.393  0.00  0.00    -0.316 NA
ATOM      3  N   UNL     1      32.797 -24.275 -13.342  0.00  0.00    -0.238 N 
ATOM      4  C   UNL     1      35.994 -24.036 -14.885  0.00  0.00    +0.292 C 
ATOM      5  C   UNL     1      36.864 -24.169 -13.824  0.00  0.00    +0.261 C 
ATOM      6  C   UNL     1      36.275 -24.342 -12.588  0.00  0.00    +0.196 C 
ATOM      7  C   UNL     1      34.198 -24.239 -13.508  0.00  0.00    +0.207 C 
ATOM      8  H   UNL     1      32.512 -24.402 -12.407  0.00  0.00    +0.166 HD
ATOM      9  N   UNL     1      37.104 -24.486 -11.446  0.00  0.00    -0.334 N 
ATOM     10  H   UNL     1      36.699 -24.610 -10.557  0.00  0.00    +0.144 HD
ATOM     11  H   UNL     1      38.083 -24.464 -11.543  0.00  0.00    +0.144 HD
ENDROOT
BRANCH   3  12
ATOM     12  C   UNL     1      31.728 -24.165 -14.249  0.00  0.00    +0.058 C 
ATOM     13  C   UNL     1      31.470 -22.948 -14.885  0.00  0.00    +0.015 C 
ATOM     14  C   UNL     1      30.918 -25.271 -14.516  0.00  0.00    +0.015 C 
ATOM     15  C   UNL     1      29.601 -23.946 -16.047  0.00  0.00    +0.053 C 
ATOM     16  C   UNL     1      30.407 -22.839 -15.783  0.00  0.00    +0.006 C 
ATOM     17  C   UNL     1      29.856 -25.162 -15.414  0.00  0.00    +0.006 C 
BRANCH  15  20
ATOM     18  O   UNL     1      28.069 -24.818 -17.608  0.00  0.00    -0.270 OA
ATOM     19  N   UNL     1      27.907 -22.579 -17.142  0.00  0.00    -0.325 N 
ATOM     20  C   UNL     1      28.493 -23.831 -16.982  0.00  0.00    +0.243 C 
ATOM     21  H   UNL     1      27.155 -22.464 -17.767  0.00  0.00    +0.145 HD
ATOM     22  H   UNL     1      28.246 -21.809 -16.631  0.00  0.00    +0.145 HD
ENDBRANCH  15  20
ENDBRANCH   3  12
BRANCH   5  24
ATOM     23  O   UNL     1      38.777 -25.233 -13.855  0.00  0.00    -0.099 OA
ATOM     24  N   UNL     1      38.226 -24.132 -13.999  0.00  0.00    -0.030 NA
ENDBRANCH   5  24
BRANCH   4  25
ATOM     25  O   UNL     1      36.473 -23.860 -16.160  0.00  0.00    -0.453 OA
BRANCH  25  26
ATOM     26  C   UNL     1      36.537 -22.533 -16.646  0.00  0.00    +0.208 C 
BRANCH  26  27
ATOM     27  C   UNL     1      35.971 -22.509 -18.065  0.00  0.00    +0.044 C 
ATOM     28  C   UNL     1      34.437 -22.472 -18.035  0.00  0.00    +0.004 C 
ATOM     29  C   UNL     1      36.531 -21.317 -18.852  0.00  0.00    +0.004 C 
ATOM     30  C   UNL     1      33.848 -22.394 -19.442  0.00  0.00    +0.000 C 
ATOM     31  C   UNL     1      35.939 -21.240 -20.257  0.00  0.00    +0.000 C 
ATOM     32  C   UNL     1      34.414 -21.212 -20.223  0.00  0.00    +0.000 C 
ENDBRANCH  26  27
ENDBRANCH  25  26
ENDBRANCH   4  25
TORSDOF 6
ENDMDL
MODEL 4
REMARK VINA RESULT:     -10.9      2.067      6.553
REMARK  Name = 5289411
REMARK  6 active torsions:
REMARK  status: ('A' for Active; 'I' for Inactive)
REMARK    1  A    between atoms: N_3  and  C_9
REMARK    2  A    between atoms: C_4  and  O_25
REMARK    3  A    between atoms: C_5  and  N_24
REMARK    4  A    between atoms: C_12  and  C_17
REMARK    5  A    between atoms: O_25  and  C_26
REMARK    6  A    between atoms: C_26  and  C_27
REMARK                            x       y       z     vdW  Elec       q    Type
REMARK                         _______ _______ _______ _____ _____    ______ ____
ROOT
ATOM      1  N   UNL     1      34.638 -23.548 -15.618  0.00  0.00    -0.293 NA
ATOM      2  N   UNL     1      35.387 -24.374 -13.482  0.00  0.00    -0.316 NA
ATOM      3  N   UNL     1      33.104 -24.325 -14.022  0.00  0.00    -0.238 N 
ATOM      4  C   UNL     1      35.928 -23.317 -15.937  0.00  0.00    +0.292 C 
ATOM      5  C   UNL     1      36.987 -23.582 -15.096  0.00  0.00    +0.261 C 
ATOM      6  C   UNL     1      36.654 -24.117 -13.868  0.00  0.00    +0.196 C 
ATOM      7  C   UNL     1      34.442 -24.070 -14.392  0.00  0.00    +0.207 C 
ATOM      8  H   UNL     1      33.009 -24.705 -13.118  0.00  0.00    +0.166 HD
ATOM      9  N   UNL     1      37.689 -24.418 -12.946  0.00  0.00    -0.334 N 
ATOM     10  H   UNL     1      37.468 -24.800 -12.066  0.00  0.00    +0.144 HD
ATOM     11  H   UNL     1      38.627 -24.247 -13.187  0.00  0.00    +0.144 HD
ENDROOT
BRANCH   3  12
ATOM     12  C   UNL     1      31.880 -24.143 -14.690  0.00  0.00    +0.058 C 
ATOM     13  C   UNL     1      30.956 -25.189 -14.758  0.00  0.00    +0.015 C 
ATOM     14  C   UNL     1      31.585 -22.918 -15.291  0.00  0.00    +0.015 C 
ATOM     15  C   UNL     1      29.451 -23.784 -16.022  0.00  0.00    +0.053 C 
ATOM     16  C   UNL     1      29.743 -25.008 -15.422  0.00  0.00    +0.006 C 
ATOM     17  C   UNL     1      30.371 -22.738 -15.956  0.00  0.00    +0.006 C 
BRANCH  15  20
ATOM     18  O   UNL     1      27.870 -24.307 -17.687  0.00  0.00    -0.270 OA
ATOM     19  N   UNL     1      27.328 -22.608 -16.246  0.00  0.00    -0.325 N 
ATOM     20  C   UNL     1      28.186 -23.597 -16.716  0.00  0.00    +0.243 C 
ATOM     21  H   UNL     1      26.464 -22.453 -16.690  0.00  0.00    +0.145 HD
ATOM     22  H   UNL     1      27.586 -22.062 -15.468  0.00  0.00    +0.145 HD
ENDBRANCH  15  20
ENDBRANCH   3  12
BRANCH   5  24
ATOM     23  O   UNL     1      39.024 -24.322 -15.406  0.00  0.00    -0.099 OA
ATOM     24  N   UNL     1      38.285 -23.328 -15.468  0.00  0.00    -0.030 NA
ENDBRANCH   5  24
BRANCH   4  25
ATOM     25  O   UNL     1      36.146 -22.784 -17.184  0.00  0.00    -0.453 OA
BRANCH  25  26
ATOM     26  C   UNL     1      35.098 -22.901 -18.127  0.00  0.00    +0.208 C 
BRANCH  26  27
ATOM     27  C   UNL     1      35.055 -21.626 -18.966  0.00  0.00    +0.044 C 
ATOM     28  C   UNL     1      36.324 -21.495 -19.819  0.00  0.00    +0.004 C 
ATOM     29  C   UNL     1      33.799 -21.598 -19.847  0.00  0.00    +0.004 C 
ATOM     30  C   UNL     1      36.281 -20.253 -20.707  0.00  0.00    +0.000 C 
ATOM     31  C   UNL     1      33.760 -20.356 -20.735  0.00  0.00    +0.000 C 
ATOM     32  C   UNL     1      35.027 -20.226 -21.574  0.00  0.00    +0.000 C 
ENDBRANCH  26  27
ENDBRANCH  25  26
ENDBRANCH   4  25
TORSDOF 6
ENDMDL
MODEL 5
REMARK VINA RESULT:     -10.6      7.786     11.185
REMARK  Name = 5289411
REMARK  6 active torsions:
REMARK  status: ('A' for Active; 'I' for Inactive)
REMARK    1  A    between atoms: N_3  and  C_9
REMARK    2  A    between atoms: C_4  and  O_25
REMARK    3  A    between atoms: C_5  and  N_24
REMARK    4  A    between atoms: C_12  and  C_17
REMARK    5  A    between atoms: O_25  and  C_26
REMARK    6  A    between atoms: C_26  and  C_27
REMARK                            x       y       z     vdW  Elec       q    Type
REMARK                         _______ _______ _______ _____ _____    ______ ____
ROOT
ATOM      1  N   UNL     1      34.604 -15.640 -23.645  0.00  0.00    -0.293 NA
ATOM      2  N   UNL     1      34.506 -15.998 -26.026  0.00  0.00    -0.316 NA
ATOM      3  N   UNL     1      35.140 -17.727 -24.572  0.00  0.00    -0.238 N 
ATOM      4  C   UNL     1      34.211 -14.367 -23.859  0.00  0.00    +0.292 C 
ATOM      5  C   UNL     1      33.951 -13.843 -25.107  0.00  0.00    +0.261 C 
ATOM      6  C   UNL     1      34.116 -14.713 -26.166  0.00  0.00    +0.196 C 
ATOM      7  C   UNL     1      34.730 -16.389 -24.757  0.00  0.00    +0.207 C 
ATOM      8  H   UNL     1      35.219 -18.237 -25.412  0.00  0.00    +0.166 HD
ATOM      9  N   UNL     1      33.867 -14.249 -27.482  0.00  0.00    -0.334 N 
ATOM     10  H   UNL     1      33.981 -14.858 -28.249  0.00  0.00    +0.144 HD
ATOM     11  H   UNL     1      33.581 -13.320 -27.630  0.00  0.00    +0.144 HD
ENDROOT
BRANCH   3  12
ATOM     12  C   UNL     1      35.457 -18.476 -23.425  0.00  0.00    +0.058 C 
ATOM     13  C   UNL     1      36.701 -18.321 -22.808  0.00  0.00    +0.015 C 
ATOM     14  C   UNL     1      34.531 -19.380 -22.899  0.00  0.00    +0.015 C 
ATOM     15  C   UNL     1      36.088 -19.967 -21.149  0.00  0.00    +0.053 C 
ATOM     16  C   UNL     1      37.015 -19.066 -21.671  0.00  0.00    +0.006 C 
ATOM     17  C   UNL     1      34.846 -20.124 -21.762  0.00  0.00    +0.006 C 
BRANCH  15  20
ATOM     18  O   UNL     1      37.196 -20.306 -19.098  0.00  0.00    -0.270 OA
ATOM     19  N   UNL     1      35.819 -21.991 -19.819  0.00  0.00    -0.325 N 
ATOM     20  C   UNL     1      36.418 -20.744 -19.964  0.00  0.00    +0.243 C 
ATOM     21  H   UNL     1      36.018 -22.544 -19.030  0.00  0.00    +0.145 HD
ATOM     22  H   UNL     1      35.195 -22.319 -20.506  0.00  0.00    +0.145 HD
ENDBRANCH  15  20
ENDBRANCH   3  12
BRANCH   5  24
ATOM     23  O   UNL     1      34.436 -11.806 -25.745  0.00  0.00    -0.099 OA
ATOM     24  N   UNL     1      33.553 -12.539 -25.274  0.00  0.00    -0.030 NA
ENDBRANCH   5  24
BRANCH   4  25
ATOM     25  O   UNL     1      34.078 -13.588 -22.737  0.00  0.00    -0.453 OA
BRANCH  25  26
ATOM     26  C   UNL     1      33.331 -14.128 -21.663  0.00  0.00    +0.208 C 
BRANCH  26  27
ATOM     27  C   UNL     1      32.270 -13.110 -21.250  0.00  0.00    +0.044 C 
ATOM     28  C   UNL     1      32.469 -12.684 -19.789  0.00  0.00    +0.004 C 
ATOM     29  C   UNL     1      32.296 -11.891 -22.182  0.00  0.00    +0.004 C 
ATOM     30  C   UNL     1      31.452 -11.625 -19.367  0.00  0.00    +0.000 C 
ATOM     31  C   UNL     1      31.280 -10.834 -21.757  0.00  0.00    +0.000 C 
ATOM     32  C   UNL     1      31.475 -10.420 -20.302  0.00  0.00    +0.000 C 
ENDBRANCH  26  27
ENDBRANCH  25  26
ENDBRANCH   4  25
TORSDOF 6
ENDMDL
MODEL 6
REMARK VINA RESULT:     -10.5      2.676      5.373
REMARK  Name = 5289411
REMARK  6 active torsions:
REMARK  status: ('A' for Active; 'I' for Inactive)
REMARK    1  A    between atoms: N_3  and  C_9
REMARK    2  A    between atoms: C_4  and  O_25
REMARK    3  A    between atoms: C_5  and  N_24
REMARK    4  A    between atoms: C_12  and  C_17
REMARK    5  A    between atoms: O_25  and  C_26
REMARK    6  A    between atoms: C_26  and  C_27
REMARK                            x       y       z     vdW  Elec       q    Type
REMARK                         _______ _______ _______ _____ _____    ______ ____
ROOT
ATOM      1  N   UNL     1      34.969 -22.772 -17.726  0.00  0.00    -0.293 NA
ATOM      2  N   UNL     1      36.363 -21.374 -19.109  0.00  0.00    -0.316 NA
ATOM      3  N   UNL     1      37.195 -22.328 -17.133  0.00  0.00    -0.238 N 
ATOM      4  C   UNL     1      33.967 -22.579 -18.608  0.00  0.00    +0.292 C 
ATOM      5  C   UNL     1      34.082 -21.809 -19.745  0.00  0.00    +0.261 C 
ATOM      6  C   UNL     1      35.316 -21.224 -19.948  0.00  0.00    +0.196 C 
ATOM      7  C   UNL     1      36.123 -22.149 -18.034  0.00  0.00    +0.207 C 
ATOM      8  H   UNL     1      38.018 -21.854 -17.398  0.00  0.00    +0.166 HD
ATOM      9  N   UNL     1      35.514 -20.417 -21.096  0.00  0.00    -0.334 N 
ATOM     10  H   UNL     1      36.389 -19.993 -21.255  0.00  0.00    +0.144 HD
ATOM     11  H   UNL     1      34.778 -20.281 -21.735  0.00  0.00    +0.144 HD
ENDROOT
BRANCH   3  12
ATOM     12  C   UNL     1      37.320 -23.050 -15.933  0.00  0.00    +0.058 C 
ATOM     13  C   UNL     1      38.370 -23.957 -15.766  0.00  0.00    +0.015 C 
ATOM     14  C   UNL     1      36.395 -22.865 -14.904  0.00  0.00    +0.015 C 
ATOM     15  C   UNL     1      37.566 -24.487 -13.550  0.00  0.00    +0.053 C 
ATOM     16  C   UNL     1      38.492 -24.674 -14.576  0.00  0.00    +0.006 C 
ATOM     17  C   UNL     1      36.517 -23.582 -13.713  0.00  0.00    +0.006 C 
BRANCH  15  20
ATOM     18  O   UNL     1      37.906 -24.664 -11.226  0.00  0.00    -0.270 OA
ATOM     19  N   UNL     1      37.553 -26.619 -12.371  0.00  0.00    -0.325 N 
ATOM     20  C   UNL     1      37.694 -25.236 -12.310  0.00  0.00    +0.243 C 
ATOM     21  H   UNL     1      37.633 -27.158 -11.551  0.00  0.00    +0.145 HD
ATOM     22  H   UNL     1      37.373 -27.057 -13.233  0.00  0.00    +0.145 HD
ENDBRANCH  15  20
ENDBRANCH   3  12
BRANCH   5  24
ATOM     23  O   UNL     1      32.566 -20.492 -20.617  0.00  0.00    -0.099 OA
ATOM     24  N   UNL     1      33.030 -21.642 -20.613  0.00  0.00    -0.030 NA
ENDBRANCH   5  24
BRANCH   4  25
ATOM     25  O   UNL     1      32.783 -23.206 -18.310  0.00  0.00    -0.453 OA
BRANCH  25  26
ATOM     26  C   UNL     1      32.082 -22.751 -17.167  0.00  0.00    +0.208 C 
BRANCH  26  27
ATOM     27  C   UNL     1      31.979 -23.904 -16.171  0.00  0.00    +0.044 C 
ATOM     28  C   UNL     1      32.759 -23.583 -14.889  0.00  0.00    +0.004 C 
ATOM     29  C   UNL     1      30.511 -24.216 -15.853  0.00  0.00    +0.004 C 
ATOM     30  C   UNL     1      32.628 -24.699 -13.854  0.00  0.00    +0.000 C 
ATOM     31  C   UNL     1      30.382 -25.331 -14.817  0.00  0.00    +0.000 C 
ATOM     32  C   UNL     1      31.167 -25.011 -13.548  0.00  0.00    +0.000 C 
ENDBRANCH  26  27
ENDBRANCH  25  26
ENDBRANCH   4  25
TORSDOF 6
ENDMDL
MODEL 7
REMARK VINA RESULT:     -10.5      2.625      7.030
REMARK  Name = 5289411
REMARK  6 active torsions:
REMARK  status: ('A' for Active; 'I' for Inactive)
REMARK    1  A    between atoms: N_3  and  C_9
REMARK    2  A    between atoms: C_4  and  O_25
REMARK    3  A    between atoms: C_5  and  N_24
REMARK    4  A    between atoms: C_12  and  C_17
REMARK    5  A    between atoms: O_25  and  C_26
REMARK    6  A    between atoms: C_26  and  C_27
REMARK                            x       y       z     vdW  Elec       q    Type
REMARK                         _______ _______ _______ _____ _____    ______ ____
ROOT
ATOM      1  N   UNL     1      33.969 -22.791 -16.814  0.00  0.00    -0.293 NA
ATOM      2  N   UNL     1      31.743 -23.672 -17.093  0.00  0.00    -0.316 NA
ATOM      3  N   UNL     1      32.773 -22.437 -18.801  0.00  0.00    -0.238 N 
ATOM      4  C   UNL     1      33.988 -23.337 -15.581  0.00  0.00    +0.292 C 
ATOM      5  C   UNL     1      32.941 -24.053 -15.040  0.00  0.00    +0.261 C 
ATOM      6  C   UNL     1      31.832 -24.191 -15.850  0.00  0.00    +0.196 C 
ATOM      7  C   UNL     1      32.831 -22.994 -17.505  0.00  0.00    +0.207 C 
ATOM      8  H   UNL     1      31.923 -22.609 -19.269  0.00  0.00    +0.166 HD
ATOM      9  N   UNL     1      30.713 -24.914 -15.365  0.00  0.00    -0.334 N 
ATOM     10  H   UNL     1      29.914 -25.021 -15.931  0.00  0.00    +0.144 HD
ATOM     11  H   UNL     1      30.735 -25.310 -14.465  0.00  0.00    +0.144 HD
ENDROOT
BRANCH   3  12
ATOM     12  C   UNL     1      33.691 -21.684 -19.555  0.00  0.00    +0.058 C 
ATOM     13  C   UNL     1      35.058 -21.959 -19.474  0.00  0.00    +0.015 C 
ATOM     14  C   UNL     1      33.239 -20.657 -20.386  0.00  0.00    +0.015 C 
ATOM     15  C   UNL     1      35.513 -20.185 -21.051  0.00  0.00    +0.053 C 
ATOM     16  C   UNL     1      35.968 -21.210 -20.222  0.00  0.00    +0.006 C 
ATOM     17  C   UNL     1      34.148 -19.908 -21.134  0.00  0.00    +0.006 C 
BRANCH  15  20
ATOM     18  O   UNL     1      36.230 -19.091 -23.009  0.00  0.00    -0.270 OA
ATOM     19  N   UNL     1      37.637 -19.001 -21.201  0.00  0.00    -0.325 N 
ATOM     20  C   UNL     1      36.462 -19.404 -21.828  0.00  0.00    +0.243 C 
ATOM     21  H   UNL     1      38.302 -18.471 -21.696  0.00  0.00    +0.145 HD
ATOM     22  H   UNL     1      37.802 -19.245 -20.262  0.00  0.00    +0.145 HD
ENDBRANCH  15  20
ENDBRANCH   3  12
BRANCH   5  24
ATOM     23  O   UNL     1      32.295 -24.006 -12.950  0.00  0.00    -0.099 OA
ATOM     24  N   UNL     1      33.010 -24.590 -13.777  0.00  0.00    -0.030 NA
ENDBRANCH   5  24
BRANCH   4  25
ATOM     25  O   UNL     1      35.140 -23.140 -14.860  0.00  0.00    -0.453 OA
BRANCH  25  26
ATOM     26  C   UNL     1      36.364 -23.230 -15.565  0.00  0.00    +0.208 C 
BRANCH  26  27
ATOM     27  C   UNL     1      37.319 -24.116 -14.769  0.00  0.00    +0.044 C 
ATOM     28  C   UNL     1      37.310 -23.724 -13.285  0.00  0.00    +0.004 C 
ATOM     29  C   UNL     1      36.959 -25.597 -14.944  0.00  0.00    +0.004 C 
ATOM     30  C   UNL     1      38.219 -24.631 -12.457  0.00  0.00    +0.000 C 
ATOM     31  C   UNL     1      37.867 -26.501 -14.114  0.00  0.00    +0.000 C 
ATOM     32  C   UNL     1      37.862 -26.103 -12.642  0.00  0.00    +0.000 C 
ENDBRANCH  26  27
ENDBRANCH  25  26
ENDBRANCH   4  25
TORSDOF 6
ENDMDL
MODEL 8
REMARK VINA RESULT:      -9.8      3.368      8.090
REMARK  Name = 5289411
REMARK  6 active torsions:
REMARK  status: ('A' for Active; 'I' for Inactive)
REMARK    1  A    between atoms: N_3  and  C_9
REMARK    2  A    between atoms: C_4  and  O_25
REMARK    3  A    between atoms: C_5  and  N_24
REMARK    4  A    between atoms: C_12  and  C_17
REMARK    5  A    between atoms: O_25  and  C_26
REMARK    6  A    between atoms: C_26  and  C_27
REMARK                            x       y       z     vdW  Elec       q    Type
REMARK                         _______ _______ _______ _____ _____    ______ ____
ROOT
ATOM      1  N   UNL     1      35.503 -22.061 -18.665  0.00  0.00    -0.293 NA
ATOM      2  N   UNL     1      37.499 -21.787 -17.343  0.00  0.00    -0.316 NA
ATOM      3  N   UNL     1      37.177 -20.550 -19.310  0.00  0.00    -0.238 N 
ATOM      4  C   UNL     1      35.082 -22.977 -17.769  0.00  0.00    +0.292 C 
ATOM      5  C   UNL     1      35.801 -23.347 -16.653  0.00  0.00    +0.261 C 
ATOM      6  C   UNL     1      37.015 -22.713 -16.488  0.00  0.00    +0.196 C 
ATOM      7  C   UNL     1      36.703 -21.513 -18.394  0.00  0.00    +0.207 C 
ATOM      8  H   UNL     1      38.058 -20.177 -19.073  0.00  0.00    +0.166 HD
ATOM      9  N   UNL     1      37.814 -23.039 -15.363  0.00  0.00    -0.334 N 
ATOM     10  H   UNL     1      38.683 -22.595 -15.231  0.00  0.00    +0.144 HD
ATOM     11  H   UNL     1      37.499 -23.708 -14.714  0.00  0.00    +0.144 HD
ENDROOT
BRANCH   3  12
ATOM     12  C   UNL     1      36.639 -20.016 -20.495  0.00  0.00    +0.058 C 
ATOM     13  C   UNL     1      37.389 -19.126 -21.268  0.00  0.00    +0.015 C 
ATOM     14  C   UNL     1      35.352 -20.372 -20.903  0.00  0.00    +0.015 C 
ATOM     15  C   UNL     1      35.569 -18.954 -22.846  0.00  0.00    +0.053 C 
ATOM     16  C   UNL     1      36.854 -18.596 -22.442  0.00  0.00    +0.006 C 
ATOM     17  C   UNL     1      34.817 -19.842 -22.077  0.00  0.00    +0.006 C 
BRANCH  15  20
ATOM     18  O   UNL     1      34.166 -19.022 -24.737  0.00  0.00    -0.270 OA
ATOM     19  N   UNL     1      35.442 -17.137 -24.465  0.00  0.00    -0.325 N 
ATOM     20  C   UNL     1      35.011 -18.400 -24.070  0.00  0.00    +0.243 C 
ATOM     21  H   UNL     1      35.086 -16.730 -25.287  0.00  0.00    +0.145 HD
ATOM     22  H   UNL     1      36.102 -16.650 -23.920  0.00  0.00    +0.145 HD
ENDBRANCH  15  20
ENDBRANCH   3  12
BRANCH   5  24
ATOM     23  O   UNL     1      35.899 -25.384 -15.858  0.00  0.00    -0.099 OA
ATOM     24  N   UNL     1      35.328 -24.287 -15.769  0.00  0.00    -0.030 NA
ENDBRANCH   5  24
BRANCH   4  25
ATOM     25  O   UNL     1      33.860 -23.546 -18.030  0.00  0.00    -0.453 OA
BRANCH  25  26
ATOM     26  C   UNL     1      32.713 -22.767 -17.748  0.00  0.00    +0.208 C 
BRANCH  26  27
ATOM     27  C   UNL     1      31.922 -23.452 -16.636  0.00  0.00    +0.044 C 
ATOM     28  C   UNL     1      32.386 -22.959 -15.259  0.00  0.00    +0.004 C 
ATOM     29  C   UNL     1      30.416 -23.222 -16.819  0.00  0.00    +0.004 C 
ATOM     30  C   UNL     1      31.573 -23.591 -14.130  0.00  0.00    +0.000 C 
ATOM     31  C   UNL     1      29.606 -23.853 -15.689  0.00  0.00    +0.000 C 
ATOM     32  C   UNL     1      30.077 -23.367 -14.322  0.00  0.00    +0.000 C 
ENDBRANCH  26  27
ENDBRANCH  25  26
ENDBRANCH   4  25
TORSDOF 6
ENDMDL
MODEL 9
REMARK VINA RESULT:      -9.5     11.713     16.299
REMARK  Name = 5289411
REMARK  6 active torsions:
REMARK  status: ('A' for Active; 'I' for Inactive)
REMARK    1  A    between atoms: N_3  and  C_9
REMARK    2  A    between atoms: C_4  and  O_25
REMARK    3  A    between atoms: C_5  and  N_24
REMARK    4  A    between atoms: C_12  and  C_17
REMARK    5  A    between atoms: O_25  and  C_26
REMARK    6  A    between atoms: C_26  and  C_27
REMARK                            x       y       z     vdW  Elec       q    Type
REMARK                         _______ _______ _______ _____ _____    ______ ____
ROOT
ATOM      1  N   UNL     1      32.432 -10.219 -22.295  0.00  0.00    -0.293 NA
ATOM      2  N   UNL     1      32.035  -9.918 -19.937  0.00  0.00    -0.316 NA
ATOM      3  N   UNL     1      32.393  -8.075 -21.344  0.00  0.00    -0.238 N 
ATOM      4  C   UNL     1      32.320 -11.550 -22.104  0.00  0.00    +0.292 C 
ATOM      5  C   UNL     1      32.070 -12.132 -20.880  0.00  0.00    +0.261 C 
ATOM      6  C   UNL     1      31.935 -11.259 -19.820  0.00  0.00    +0.196 C 
ATOM      7  C   UNL     1      32.281  -9.473 -21.184  0.00  0.00    +0.207 C 
ATOM      8  H   UNL     1      32.277  -7.570 -20.506  0.00  0.00    +0.166 HD
ATOM      9  N   UNL     1      31.677 -11.781 -18.528  0.00  0.00    -0.334 N 
ATOM     10  H   UNL     1      31.578 -11.171 -17.761  0.00  0.00    +0.144 HD
ATOM     11  H   UNL     1      31.596 -12.753 -18.397  0.00  0.00    +0.144 HD
ENDROOT
BRANCH   3  12
ATOM     12  C   UNL     1      32.638  -7.261 -22.465  0.00  0.00    +0.058 C 
ATOM     13  C   UNL     1      31.582  -6.591 -23.089  0.00  0.00    +0.015 C 
ATOM     14  C   UNL     1      33.936  -7.122 -22.961  0.00  0.00    +0.015 C 
ATOM     15  C   UNL     1      33.123  -5.649 -24.694  0.00  0.00    +0.053 C 
ATOM     16  C   UNL     1      31.826  -5.786 -24.202  0.00  0.00    +0.006 C 
ATOM     17  C   UNL     1      34.179  -6.317 -24.074  0.00  0.00    +0.006 C 
BRANCH  15  20
ATOM     18  O   UNL     1      34.041  -5.224 -26.821  0.00  0.00    -0.270 OA
ATOM     19  N   UNL     1      32.829  -3.530 -25.861  0.00  0.00    -0.325 N 
ATOM     20  C   UNL     1      33.375  -4.810 -25.855  0.00  0.00    +0.243 C 
ATOM     21  H   UNL     1      32.979  -2.935 -26.630  0.00  0.00    +0.145 HD
ATOM     22  H   UNL     1      32.293  -3.221 -25.096  0.00  0.00    +0.145 HD
ENDBRANCH  15  20
ENDBRANCH   3  12
BRANCH   5  24
ATOM     23  O   UNL     1      33.000 -14.033 -20.317  0.00  0.00    -0.099 OA
ATOM     24  N   UNL     1      31.965 -13.495 -20.738  0.00  0.00    -0.030 NA
ENDBRANCH   5  24
BRANCH   4  25
ATOM     25  O   UNL     1      32.471 -12.327 -23.226  0.00  0.00    -0.453 OA
BRANCH  25  26
ATOM     26  C   UNL     1      33.791 -12.692 -23.583  0.00  0.00    +0.208 C 
BRANCH  26  27
ATOM     27  C   UNL     1      33.789 -14.157 -24.016  0.00  0.00    +0.044 C 
ATOM     28  C   UNL     1      33.710 -14.269 -25.544  0.00  0.00    +0.004 C 
ATOM     29  C   UNL     1      35.028 -14.883 -23.478  0.00  0.00    +0.004 C 
ATOM     30  C   UNL     1      33.760 -15.725 -26.005  0.00  0.00    +0.000 C 
ATOM     31  C   UNL     1      35.077 -16.337 -23.942  0.00  0.00    +0.000 C 
ATOM     32  C   UNL     1      34.990 -16.445 -25.461  0.00  0.00    +0.000 C 
ENDBRANCH  26  27
ENDBRANCH  25  26
ENDBRANCH   4  25
TORSDOF 6
ENDMDL
