MODEL 1
REMARK VINA RESULT:     -11.8      0.000      0.000
REMARK  Name = 3478
REMARK  7 active torsions:
REMARK  status: ('A' for Active; 'I' for Inactive)
REMARK    1  A    between atoms: C_1  and  S_7
REMARK    2  A    between atoms: C_2  and  C_22
REMARK    3  A    between atoms: S_7  and  N_12
REMARK    4  A    between atoms: N_11  and  C_16
REMARK    5  A    between atoms: C_22  and  C_23
REMARK    6  A    between atoms: C_23  and  N_25
REMARK    7  A    between atoms: C_26  and  C_30
REMARK                            x       y       z     vdW  Elec       q    Type
REMARK                         _______ _______ _______ _____ _____    ______ ____
ROOT
ATOM      1  C   UNL     1      34.604 -21.896 -19.305  0.00  0.00    +0.125 C 
ATOM      2  C   UNL     1      35.923 -20.063 -20.941  0.00  0.00    -0.020 C 
ATOM      3  C   UNL     1      33.874 -21.081 -20.170  0.00  0.00    +0.020 C 
ATOM      4  C   UNL     1      35.993 -21.795 -19.258  0.00  0.00    +0.020 C 
ATOM      5  C   UNL     1      34.533 -20.164 -20.987  0.00  0.00    -0.003 C 
ATOM      6  C   UNL     1      36.654 -20.878 -20.076  0.00  0.00    -0.003 C 
ENDROOT
BRANCH   1   7
ATOM      7  S   UNL     1      33.767 -23.058 -18.268  0.00  0.00    +0.077 S 
ATOM      8  O   UNL     1      33.787 -24.349 -18.929  0.00  0.00    -0.150 OA
ATOM      9  O   UNL     1      32.509 -22.448 -17.884  0.00  0.00    -0.150 OA
BRANCH   7  12
ATOM     10  O   UNL     1      33.715 -24.729 -15.650  0.00  0.00    -0.251 OA
ATOM     11  N   UNL     1      35.643 -23.754 -14.828  0.00  0.00    -0.289 N 
ATOM     12  N   UNL     1      34.810 -23.099 -16.914  0.00  0.00    -0.169 N 
ATOM     13  C   UNL     1      34.646 -23.937 -15.766  0.00  0.00    +0.319 C 
ATOM     14  H   UNL     1      36.348 -23.092 -15.015  0.00  0.00    +0.151 HD
ATOM     15  H   UNL     1      35.588 -22.495 -16.925  0.00  0.00    +0.178 HD
BRANCH  11  16
ATOM     16  C   UNL     1      35.698 -24.489 -13.585  0.00  0.00    +0.073 C 
ATOM     17  C   UNL     1      36.081 -23.572 -12.418  0.00  0.00    +0.020 C 
ATOM     18  C   UNL     1      36.656 -25.681 -13.692  0.00  0.00    +0.020 C 
ATOM     19  C   UNL     1      37.548 -23.146 -12.467  0.00  0.00    +0.002 C 
ATOM     20  C   UNL     1      38.122 -25.251 -13.740  0.00  0.00    +0.002 C 
ATOM     21  C   UNL     1      38.482 -24.349 -12.563  0.00  0.00    +0.000 C 
ENDBRANCH  11  16
ENDBRANCH   7  12
ENDBRANCH   1   7
BRANCH   2  22
ATOM     22  C   UNL     1      36.630 -19.083 -21.816  0.00  0.00    +0.048 C 
BRANCH  22  23
ATOM     23  C   UNL     1      35.916 -18.826 -23.149  0.00  0.00    +0.094 C 
BRANCH  23  25
ATOM     24  O   UNL     1      34.511 -17.680 -25.375  0.00  0.00    -0.269 OA
ATOM     25  N   UNL     1      35.565 -17.442 -23.323  0.00  0.00    -0.300 N 
ATOM     26  C   UNL     1      34.881 -16.976 -24.440  0.00  0.00    +0.261 C 
ATOM     27  H   UNL     1      35.820 -16.798 -22.622  0.00  0.00    +0.150 HD
BRANCH  26  30
ATOM     28  N   UNL     1      35.018 -14.798 -23.413  0.00  0.00    -0.262 NA
ATOM     29  N   UNL     1      33.750 -13.604 -25.612  0.00  0.00    -0.270 NA
ATOM     30  C   UNL     1      34.617 -15.515 -24.481  0.00  0.00    +0.132 C 
ATOM     31  C   UNL     1      33.994 -14.929 -25.562  0.00  0.00    +0.174 C 
ATOM     32  C   UNL     1      34.150 -12.887 -24.543  0.00  0.00    +0.057 C 
ATOM     33  C   UNL     1      34.774 -13.474 -23.463  0.00  0.00    +0.166 C 
ATOM     34  C   UNL     1      33.897 -11.420 -24.565  0.00  0.00    +0.049 C 
ENDBRANCH  26  30
ENDBRANCH  23  25
ENDBRANCH  22  23
ENDBRANCH   2  22
TORSDOF 7
ENDMDL
MODEL 2
REMARK VINA RESULT:     -10.8      2.534     11.564
REMARK  Name = 3478
REMARK  7 active torsions:
REMARK  status: ('A' for Active; 'I' for Inactive)
REMARK    1  A    between atoms: C_1  and  S_7
REMARK    2  A    between atoms: C_2  and  C_22
REMARK    3  A    between atoms: S_7  and  N_12
REMARK    4  A    between atoms: N_11  and  C_16
REMARK    5  A    between atoms: C_22  and  C_23
REMARK    6  A    between atoms: C_23  and  N_25
REMARK    7  A    between atoms: C_26  and  C_30
REMARK                            x       y       z     vdW  Elec       q    Type
REMARK                         _______ _______ _______ _____ _____    ______ ____
ROOT
ATOM      1  C   UNL     1      35.114 -20.364 -20.942  0.00  0.00    +0.125 C 
ATOM      2  C   UNL     1      34.144 -22.247 -19.127  0.00  0.00    -0.020 C 
ATOM      3  C   UNL     1      36.003 -21.151 -20.211  0.00  0.00    +0.020 C 
ATOM      4  C   UNL     1      33.739 -20.517 -20.766  0.00  0.00    +0.020 C 
ATOM      5  C   UNL     1      35.519 -22.092 -19.304  0.00  0.00    -0.003 C 
ATOM      6  C   UNL     1      33.254 -21.459 -19.858  0.00  0.00    -0.003 C 
ENDROOT
BRANCH   1   7
ATOM      7  S   UNL     1      35.728 -19.170 -22.093  0.00  0.00    +0.077 S 
ATOM      8  O   UNL     1      35.117 -19.431 -23.382  0.00  0.00    -0.150 OA
ATOM      9  O   UNL     1      37.171 -19.157 -21.952  0.00  0.00    -0.150 OA
BRANCH   7  12
ATOM     10  O   UNL     1      36.076 -16.190 -22.896  0.00  0.00    -0.251 OA
ATOM     11  N   UNL     1      34.690 -15.433 -21.208  0.00  0.00    -0.289 N 
ATOM     12  N   UNL     1      35.085 -17.727 -21.442  0.00  0.00    -0.169 N 
ATOM     13  C   UNL     1      35.347 -16.408 -21.932  0.00  0.00    +0.319 C 
ATOM     14  H   UNL     1      34.126 -15.711 -20.449  0.00  0.00    +0.151 HD
ATOM     15  H   UNL     1      34.485 -17.810 -20.666  0.00  0.00    +0.178 HD
BRANCH  11  16
ATOM     16  C   UNL     1      34.792 -14.023 -21.513  0.00  0.00    +0.073 C 
ATOM     17  C   UNL     1      33.752 -13.213 -20.732  0.00  0.00    +0.020 C 
ATOM     18  C   UNL     1      34.672 -13.776 -23.020  0.00  0.00    +0.020 C 
ATOM     19  C   UNL     1      32.331 -13.431 -21.253  0.00  0.00    +0.002 C 
ATOM     20  C   UNL     1      33.250 -13.993 -23.537  0.00  0.00    +0.002 C 
ATOM     21  C   UNL     1      32.234 -13.168 -22.753  0.00  0.00    +0.000 C 
ENDBRANCH  11  16
ENDBRANCH   7  12
ENDBRANCH   1   7
BRANCH   2  22
ATOM     22  C   UNL     1      33.625 -23.253 -18.157  0.00  0.00    +0.048 C 
BRANCH  22  23
ATOM     23  C   UNL     1      34.053 -22.985 -16.708  0.00  0.00    +0.094 C 
BRANCH  23  25
ATOM     24  O   UNL     1      34.541 -25.115 -14.845  0.00  0.00    -0.269 OA
ATOM     25  N   UNL     1      35.326 -23.578 -16.396  0.00  0.00    -0.300 N 
ATOM     26  C   UNL     1      35.467 -24.610 -15.476  0.00  0.00    +0.261 C 
ATOM     27  H   UNL     1      36.130 -23.239 -16.853  0.00  0.00    +0.150 HD
BRANCH  26  30
ATOM     28  N   UNL     1      37.814 -24.156 -15.157  0.00  0.00    -0.262 NA
ATOM     29  N   UNL     1      38.383 -26.892 -14.920  0.00  0.00    -0.270 NA
ATOM     30  C   UNL     1      36.852 -25.096 -15.246  0.00  0.00    +0.132 C 
ATOM     31  C   UNL     1      37.131 -26.440 -15.129  0.00  0.00    +0.174 C 
ATOM     32  C   UNL     1      39.346 -25.953 -14.831  0.00  0.00    +0.057 C 
ATOM     33  C   UNL     1      39.066 -24.609 -14.947  0.00  0.00    +0.166 C 
ATOM     34  C   UNL     1      40.741 -26.417 -14.599  0.00  0.00    +0.049 C 
ENDBRANCH  26  30
ENDBRANCH  23  25
ENDBRANCH  22  23
ENDBRANCH   2  22
TORSDOF 7
ENDMDL
MODEL 3
REMARK VINA RESULT:     -10.7      5.285     13.271
REMARK  Name = 3478
REMARK  7 active torsions:
REMARK  status: ('A' for Active; 'I' for Inactive)
REMARK    1  A    between atoms: C_1  and  S_7
REMARK    2  A    between atoms: C_2  and  C_22
REMARK    3  A    between atoms: S_7  and  N_12
REMARK    4  A    between atoms: N_11  and  C_16
REMARK    5  A    between atoms: C_22  and  C_23
REMARK    6  A    between atoms: C_23  and  N_25
REMARK    7  A    between atoms: C_26  and  C_30
REMARK                            x       y       z     vdW  Elec       q    Type
REMARK                         _______ _______ _______ _____ _____    ______ ____
ROOT
ATOM      1  C   UNL     1      32.454 -12.470 -21.281  0.00  0.00    +0.125 C 
ATOM      2  C   UNL     1      33.867 -14.581 -22.433  0.00  0.00    -0.020 C 
ATOM      3  C   UNL     1      32.872 -13.542 -20.493  0.00  0.00    +0.020 C 
ATOM      4  C   UNL     1      32.743 -12.452 -22.645  0.00  0.00    +0.020 C 
ATOM      5  C   UNL     1      33.578 -14.598 -21.069  0.00  0.00    -0.003 C 
ATOM      6  C   UNL     1      33.449 -13.509 -23.221  0.00  0.00    -0.003 C 
ENDROOT
BRANCH   1   7
ATOM      7  S   UNL     1      31.559 -11.131 -20.551  0.00  0.00    +0.077 S 
ATOM      8  O   UNL     1      32.179 -10.815 -19.279  0.00  0.00    -0.150 OA
ATOM      9  O   UNL     1      30.153 -11.482 -20.617  0.00  0.00    -0.150 OA
BRANCH   7  12
ATOM     10  O   UNL     1      33.093  -8.445 -20.275  0.00  0.00    -0.251 OA
ATOM     11  N   UNL     1      32.713  -7.845 -22.474  0.00  0.00    -0.289 N 
ATOM     12  N   UNL     1      31.880  -9.877 -21.665  0.00  0.00    -0.169 N 
ATOM     13  C   UNL     1      32.612  -8.681 -21.379  0.00  0.00    +0.319 C 
ATOM     14  H   UNL     1      32.291  -8.125 -23.319  0.00  0.00    +0.151 HD
ATOM     15  H   UNL     1      31.532  -9.985 -22.580  0.00  0.00    +0.178 HD
BRANCH  11  16
ATOM     16  C   UNL     1      33.410  -6.579 -22.437  0.00  0.00    +0.073 C 
ATOM     17  C   UNL     1      32.478  -5.449 -21.986  0.00  0.00    +0.020 C 
ATOM     18  C   UNL     1      34.052  -6.263 -23.792  0.00  0.00    +0.020 C 
ATOM     19  C   UNL     1      31.447  -5.082 -23.054  0.00  0.00    +0.002 C 
ATOM     20  C   UNL     1      33.019  -5.895 -24.857  0.00  0.00    +0.002 C 
ATOM     21  C   UNL     1      32.110  -4.761 -24.390  0.00  0.00    +0.000 C 
ENDBRANCH  11  16
ENDBRANCH   7  12
ENDBRANCH   1   7
BRANCH   2  22
ATOM     22  C   UNL     1      34.623 -15.709 -23.049  0.00  0.00    +0.048 C 
BRANCH  22  23
ATOM     23  C   UNL     1      35.733 -16.267 -22.150  0.00  0.00    +0.094 C 
BRANCH  23  25
ATOM     24  O   UNL     1      36.289 -18.982 -22.901  0.00  0.00    -0.269 OA
ATOM     25  N   UNL     1      35.323 -17.454 -21.448  0.00  0.00    -0.300 N 
ATOM     26  C   UNL     1      35.640 -18.733 -21.889  0.00  0.00    +0.261 C 
ATOM     27  H   UNL     1      34.796 -17.355 -20.622  0.00  0.00    +0.150 HD
BRANCH  26  30
ATOM     28  N   UNL     1      36.031 -20.583 -20.391  0.00  0.00    -0.262 NA
ATOM     29  N   UNL     1      33.287 -21.145 -20.255  0.00  0.00    -0.270 NA
ATOM     30  C   UNL     1      35.119 -19.855 -21.066  0.00  0.00    +0.132 C 
ATOM     31  C   UNL     1      33.771 -20.131 -20.999  0.00  0.00    +0.174 C 
ATOM     32  C   UNL     1      34.198 -21.874 -19.581  0.00  0.00    +0.057 C 
ATOM     33  C   UNL     1      35.547 -21.597 -19.648  0.00  0.00    +0.166 C 
ATOM     34  C   UNL     1      33.699 -23.002 -18.749  0.00  0.00    +0.049 C 
ENDBRANCH  26  30
ENDBRANCH  23  25
ENDBRANCH  22  23
ENDBRANCH   2  22
TORSDOF 7
ENDMDL
MODEL 4
REMARK VINA RESULT:     -10.6      6.334     10.111
REMARK  Name = 3478
REMARK  7 active torsions:
REMARK  status: ('A' for Active; 'I' for Inactive)
REMARK    1  A    between atoms: C_1  and  S_7
REMARK    2  A    between atoms: C_2  and  C_22
REMARK    3  A    between atoms: S_7  and  N_12
REMARK    4  A    between atoms: N_11  and  C_16
REMARK    5  A    between atoms: C_22  and  C_23
REMARK    6  A    between atoms: C_23  and  N_25
REMARK    7  A    between atoms: C_26  and  C_30
REMARK                            x       y       z     vdW  Elec       q    Type
REMARK                         _______ _______ _______ _____ _____    ______ ____
ROOT
ATOM      1  C   UNL     1      33.132 -12.905 -22.967  0.00  0.00    +0.125 C 
ATOM      2  C   UNL     1      31.883 -11.490 -20.913  0.00  0.00    -0.020 C 
ATOM      3  C   UNL     1      32.934 -13.507 -21.725  0.00  0.00    +0.020 C 
ATOM      4  C   UNL     1      32.706 -11.595 -23.183  0.00  0.00    +0.020 C 
ATOM      5  C   UNL     1      32.310 -12.800 -20.698  0.00  0.00    -0.003 C 
ATOM      6  C   UNL     1      32.082 -10.887 -22.155  0.00  0.00    -0.003 C 
ENDROOT
BRANCH   1   7
ATOM      7  S   UNL     1      33.923 -13.802 -24.269  0.00  0.00    +0.077 S 
ATOM      8  O   UNL     1      34.939 -12.947 -24.853  0.00  0.00    -0.150 OA
ATOM      9  O   UNL     1      32.869 -14.361 -25.094  0.00  0.00    -0.150 OA
BRANCH   7  12
ATOM     10  O   UNL     1      35.030 -16.572 -25.134  0.00  0.00    -0.251 OA
ATOM     11  N   UNL     1      35.705 -17.122 -22.992  0.00  0.00    -0.289 N 
ATOM     12  N   UNL     1      34.676 -15.058 -23.390  0.00  0.00    -0.169 N 
ATOM     13  C   UNL     1      35.136 -16.296 -23.942  0.00  0.00    +0.319 C 
ATOM     14  H   UNL     1      35.742 -16.809 -22.059  0.00  0.00    +0.151 HD
ATOM     15  H   UNL     1      34.805 -14.920 -22.424  0.00  0.00    +0.178 HD
BRANCH  11  16
ATOM     16  C   UNL     1      36.247 -18.425 -23.306  0.00  0.00    +0.073 C 
ATOM     17  C   UNL     1      35.192 -19.521 -23.121  0.00  0.00    +0.020 C 
ATOM     18  C   UNL     1      37.501 -18.715 -22.473  0.00  0.00    +0.020 C 
ATOM     19  C   UNL     1      34.873 -19.783 -21.649  0.00  0.00    +0.002 C 
ATOM     20  C   UNL     1      37.178 -18.978 -21.002  0.00  0.00    +0.002 C 
ATOM     21  C   UNL     1      36.135 -20.080 -20.844  0.00  0.00    +0.000 C 
ENDBRANCH  11  16
ENDBRANCH   7  12
ENDBRANCH   1   7
BRANCH   2  22
ATOM     22  C   UNL     1      31.216 -10.733 -19.815  0.00  0.00    +0.048 C 
BRANCH  22  23
ATOM     23  C   UNL     1      31.870  -9.377 -19.521  0.00  0.00    +0.094 C 
BRANCH  23  25
ATOM     24  O   UNL     1      33.473  -7.003 -19.719  0.00  0.00    -0.269 OA
ATOM     25  N   UNL     1      32.178  -8.647 -20.721  0.00  0.00    -0.300 N 
ATOM     26  C   UNL     1      32.966  -7.502 -20.721  0.00  0.00    +0.261 C 
ATOM     27  H   UNL     1      31.815  -8.971 -21.577  0.00  0.00    +0.150 HD
BRANCH  26  30
ATOM     28  N   UNL     1      34.179  -7.318 -22.797  0.00  0.00    -0.262 NA
ATOM     29  N   UNL     1      32.533  -5.215 -23.654  0.00  0.00    -0.270 NA
ATOM     30  C   UNL     1      33.169  -6.848 -22.039  0.00  0.00    +0.132 C 
ATOM     31  C   UNL     1      32.360  -5.815 -22.460  0.00  0.00    +0.174 C 
ATOM     32  C   UNL     1      33.544  -5.684 -24.412  0.00  0.00    +0.057 C 
ATOM     33  C   UNL     1      34.352  -6.718 -23.991  0.00  0.00    +0.166 C 
ATOM     34  C   UNL     1      33.764  -5.044 -25.739  0.00  0.00    +0.049 C 
ENDBRANCH  26  30
ENDBRANCH  23  25
ENDBRANCH  22  23
ENDBRANCH   2  22
TORSDOF 7
ENDMDL
MODEL 5
REMARK VINA RESULT:     -10.4      5.076     13.191
REMARK  Name = 3478
REMARK  7 active torsions:
REMARK  status: ('A' for Active; 'I' for Inactive)
REMARK    1  A    between atoms: C_1  and  S_7
REMARK    2  A    between atoms: C_2  and  C_22
REMARK    3  A    between atoms: S_7  and  N_12
REMARK    4  A    between atoms: N_11  and  C_16
REMARK    5  A    between atoms: C_22  and  C_23
REMARK    6  A    between atoms: C_23  and  N_25
REMARK    7  A    between atoms: C_26  and  C_30
REMARK                            x       y       z     vdW  Elec       q    Type
REMARK                         _______ _______ _______ _____ _____    ______ ____
ROOT
ATOM      1  C   UNL     1      32.739 -12.717 -21.638  0.00  0.00    +0.125 C 
ATOM      2  C   UNL     1      34.124 -14.780 -22.904  0.00  0.00    -0.020 C 
ATOM      3  C   UNL     1      32.848 -12.734 -23.028  0.00  0.00    +0.020 C 
ATOM      4  C   UNL     1      33.323 -13.731 -20.880  0.00  0.00    +0.020 C 
ATOM      5  C   UNL     1      33.540 -13.765 -23.662  0.00  0.00    -0.003 C 
ATOM      6  C   UNL     1      34.017 -14.763 -21.514  0.00  0.00    -0.003 C 
ENDROOT
BRANCH   1   7
ATOM      7  S   UNL     1      31.861 -11.409 -20.835  0.00  0.00    +0.077 S 
ATOM      8  O   UNL     1      32.492 -11.162 -19.553  0.00  0.00    -0.150 OA
ATOM      9  O   UNL     1      30.452 -11.743 -20.909  0.00  0.00    -0.150 OA
BRANCH   7  12
ATOM     10  O   UNL     1      33.059  -8.587 -20.339  0.00  0.00    -0.251 OA
ATOM     11  N   UNL     1      32.898  -7.978 -22.563  0.00  0.00    -0.289 N 
ATOM     12  N   UNL     1      32.186 -10.102 -21.887  0.00  0.00    -0.169 N 
ATOM     13  C   UNL     1      32.748  -8.845 -21.498  0.00  0.00    +0.319 C 
ATOM     14  H   UNL     1      32.616  -8.280 -23.458  0.00  0.00    +0.151 HD
ATOM     15  H   UNL     1      31.969 -10.224 -22.840  0.00  0.00    +0.178 HD
BRANCH  11  16
ATOM     16  C   UNL     1      33.448  -6.649 -22.424  0.00  0.00    +0.073 C 
ATOM     17  C   UNL     1      32.354  -5.631 -22.085  0.00  0.00    +0.020 C 
ATOM     18  C   UNL     1      34.218  -6.237 -23.684  0.00  0.00    +0.020 C 
ATOM     19  C   UNL     1      31.433  -5.346 -23.271  0.00  0.00    +0.002 C 
ATOM     20  C   UNL     1      33.294  -5.952 -24.868  0.00  0.00    +0.002 C 
ATOM     21  C   UNL     1      32.221  -4.928 -24.509  0.00  0.00    +0.000 C 
ENDBRANCH  11  16
ENDBRANCH   7  12
ENDBRANCH   1   7
BRANCH   2  22
ATOM     22  C   UNL     1      34.865 -15.883 -23.581  0.00  0.00    +0.048 C 
BRANCH  22  23
ATOM     23  C   UNL     1      35.969 -16.501 -22.713  0.00  0.00    +0.094 C 
BRANCH  23  25
ATOM     24  O   UNL     1      37.539 -18.792 -21.984  0.00  0.00    -0.269 OA
ATOM     25  N   UNL     1      35.514 -17.660 -21.993  0.00  0.00    -0.300 N 
ATOM     26  C   UNL     1      36.349 -18.727 -21.683  0.00  0.00    +0.261 C 
ATOM     27  H   UNL     1      34.572 -17.699 -21.709  0.00  0.00    +0.150 HD
BRANCH  26  30
ATOM     28  N   UNL     1      34.378 -19.953 -21.033  0.00  0.00    -0.262 NA
ATOM     29  N   UNL     1      35.918 -21.800 -19.588  0.00  0.00    -0.270 NA
ATOM     30  C   UNL     1      35.720 -19.861 -20.958  0.00  0.00    +0.132 C 
ATOM     31  C   UNL     1      36.477 -20.767 -20.249  0.00  0.00    +0.174 C 
ATOM     32  C   UNL     1      34.575 -21.894 -19.661  0.00  0.00    +0.057 C 
ATOM     33  C   UNL     1      33.818 -20.986 -20.371  0.00  0.00    +0.166 C 
ATOM     34  C   UNL     1      33.923 -23.023 -18.943  0.00  0.00    +0.049 C 
ENDBRANCH  26  30
ENDBRANCH  23  25
ENDBRANCH  22  23
ENDBRANCH   2  22
TORSDOF 7
ENDMDL
MODEL 6
REMARK VINA RESULT:     -10.2      5.142     13.197
REMARK  Name = 3478
REMARK  7 active torsions:
REMARK  status: ('A' for Active; 'I' for Inactive)
REMARK    1  A    between atoms: C_1  and  S_7
REMARK    2  A    between atoms: C_2  and  C_22
REMARK    3  A    between atoms: S_7  and  N_12
REMARK    4  A    between atoms: N_11  and  C_16
REMARK    5  A    between atoms: C_22  and  C_23
REMARK    6  A    between atoms: C_23  and  N_25
REMARK    7  A    between atoms: C_26  and  C_30
REMARK                            x       y       z     vdW  Elec       q    Type
REMARK                         _______ _______ _______ _____ _____    ______ ____
ROOT
ATOM      1  C   UNL     1      32.848 -12.487 -21.758  0.00  0.00    +0.125 C 
ATOM      2  C   UNL     1      34.508 -14.256 -23.134  0.00  0.00    -0.020 C 
ATOM      3  C   UNL     1      33.151 -12.259 -23.100  0.00  0.00    +0.020 C 
ATOM      4  C   UNL     1      33.375 -13.600 -21.103  0.00  0.00    +0.020 C 
ATOM      5  C   UNL     1      33.982 -13.143 -23.788  0.00  0.00    -0.003 C 
ATOM      6  C   UNL     1      34.206 -14.484 -21.791  0.00  0.00    -0.003 C 
ENDROOT
BRANCH   1   7
ATOM      7  S   UNL     1      31.795 -11.366 -20.886  0.00  0.00    +0.077 S 
ATOM      8  O   UNL     1      32.386 -11.111 -19.586  0.00  0.00    -0.150 OA
ATOM      9  O   UNL     1      30.447 -11.889 -20.991  0.00  0.00    -0.150 OA
BRANCH   7  12
ATOM     10  O   UNL     1      33.096  -8.594 -20.364  0.00  0.00    -0.251 OA
ATOM     11  N   UNL     1      32.531  -7.784 -22.454  0.00  0.00    -0.289 N 
ATOM     12  N   UNL     1      31.934  -9.966 -21.855  0.00  0.00    -0.169 N 
ATOM     13  C   UNL     1      32.572  -8.746 -21.464  0.00  0.00    +0.319 C 
ATOM     14  H   UNL     1      32.085  -8.004 -23.305  0.00  0.00    +0.151 HD
ATOM     15  H   UNL     1      31.542 -10.001 -22.758  0.00  0.00    +0.178 HD
BRANCH  11  16
ATOM     16  C   UNL     1      33.112  -6.470 -22.299  0.00  0.00    +0.073 C 
ATOM     17  C   UNL     1      32.097  -5.483 -21.711  0.00  0.00    +0.020 C 
ATOM     18  C   UNL     1      33.680  -5.958 -23.627  0.00  0.00    +0.020 C 
ATOM     19  C   UNL     1      31.004  -5.104 -22.711  0.00  0.00    +0.002 C 
ATOM     20  C   UNL     1      32.585  -5.579 -24.624  0.00  0.00    +0.002 C 
ATOM     21  C   UNL     1      31.594  -4.588 -24.021  0.00  0.00    +0.000 C 
ENDBRANCH  11  16
ENDBRANCH   7  12
ENDBRANCH   1   7
BRANCH   2  22
ATOM     22  C   UNL     1      35.396 -15.202 -23.869  0.00  0.00    +0.048 C 
BRANCH  22  23
ATOM     23  C   UNL     1      34.811 -16.614 -24.001  0.00  0.00    +0.094 C 
BRANCH  23  25
ATOM     24  O   UNL     1      34.848 -19.485 -24.025  0.00  0.00    -0.269 OA
ATOM     25  N   UNL     1      35.217 -17.477 -22.924  0.00  0.00    -0.300 N 
ATOM     26  C   UNL     1      35.202 -18.863 -23.027  0.00  0.00    +0.261 C 
ATOM     27  H   UNL     1      35.518 -17.069 -22.080  0.00  0.00    +0.150 HD
BRANCH  26  30
ATOM     28  N   UNL     1      34.732 -20.478 -21.299  0.00  0.00    -0.262 NA
ATOM     29  N   UNL     1      37.268 -20.102 -20.160  0.00  0.00    -0.270 NA
ATOM     30  C   UNL     1      35.626 -19.613 -21.816  0.00  0.00    +0.132 C 
ATOM     31  C   UNL     1      36.871 -19.428 -21.258  0.00  0.00    +0.174 C 
ATOM     32  C   UNL     1      36.374 -20.967 -19.641  0.00  0.00    +0.057 C 
ATOM     33  C   UNL     1      35.128 -21.152 -20.201  0.00  0.00    +0.166 C 
ATOM     34  C   UNL     1      36.779 -21.731 -18.429  0.00  0.00    +0.049 C 
ENDBRANCH  26  30
ENDBRANCH  23  25
ENDBRANCH  22  23
ENDBRANCH   2  22
TORSDOF 7
ENDMDL
MODEL 7
REMARK VINA RESULT:     -10.2      2.907      4.596
REMARK  Name = 3478
REMARK  7 active torsions:
REMARK  status: ('A' for Active; 'I' for Inactive)
REMARK    1  A    between atoms: C_1  and  S_7
REMARK    2  A    between atoms: C_2  and  C_22
REMARK    3  A    between atoms: S_7  and  N_12
REMARK    4  A    between atoms: N_11  and  C_16
REMARK    5  A    between atoms: C_22  and  C_23
REMARK    6  A    between atoms: C_23  and  N_25
REMARK    7  A    between atoms: C_26  and  C_30
REMARK                            x       y       z     vdW  Elec       q    Type
REMARK                         _______ _______ _______ _____ _____    ______ ____
ROOT
ATOM      1  C   UNL     1      35.731 -23.075 -16.902  0.00  0.00    +0.125 C 
ATOM      2  C   UNL     1      35.615 -21.642 -19.293  0.00  0.00    -0.020 C 
ATOM      3  C   UNL     1      36.833 -22.330 -17.324  0.00  0.00    +0.020 C 
ATOM      4  C   UNL     1      34.571 -23.103 -17.675  0.00  0.00    +0.020 C 
ATOM      5  C   UNL     1      36.775 -21.615 -18.520  0.00  0.00    -0.003 C 
ATOM      6  C   UNL     1      34.513 -22.387 -18.872  0.00  0.00    -0.003 C 
ENDROOT
BRANCH   1   7
ATOM      7  S   UNL     1      35.805 -23.982 -15.387  0.00  0.00    +0.077 S 
ATOM      8  O   UNL     1      36.010 -23.038 -14.305  0.00  0.00    -0.150 OA
ATOM      9  O   UNL     1      36.736 -25.074 -15.597  0.00  0.00    -0.150 OA
BRANCH   7  12
ATOM     10  O   UNL     1      33.127 -22.728 -14.437  0.00  0.00    -0.251 OA
ATOM     11  N   UNL     1      31.916 -24.648 -14.874  0.00  0.00    -0.289 N 
ATOM     12  N   UNL     1      34.216 -24.605 -15.301  0.00  0.00    -0.169 N 
ATOM     13  C   UNL     1      33.070 -23.890 -14.830  0.00  0.00    +0.319 C 
ATOM     14  H   UNL     1      31.975 -25.574 -15.207  0.00  0.00    +0.151 HD
ATOM     15  H   UNL     1      34.078 -25.533 -15.600  0.00  0.00    +0.178 HD
BRANCH  11  16
ATOM     16  C   UNL     1      30.627 -24.145 -14.456  0.00  0.00    +0.073 C 
ATOM     17  C   UNL     1      29.519 -25.167 -14.733  0.00  0.00    +0.020 C 
ATOM     18  C   UNL     1      30.319 -22.799 -15.120  0.00  0.00    +0.020 C 
ATOM     19  C   UNL     1      29.209 -25.303 -16.223  0.00  0.00    +0.002 C 
ATOM     20  C   UNL     1      30.009 -22.938 -16.610  0.00  0.00    +0.002 C 
ATOM     21  C   UNL     1      28.896 -23.952 -16.859  0.00  0.00    +0.000 C 
ENDBRANCH  11  16
ENDBRANCH   7  12
ENDBRANCH   1   7
BRANCH   2  22
ATOM     22  C   UNL     1      35.552 -20.877 -20.571  0.00  0.00    +0.048 C 
BRANCH  22  23
ATOM     23  C   UNL     1      36.716 -19.895 -20.756  0.00  0.00    +0.094 C 
BRANCH  23  25
ATOM     24  O   UNL     1      35.687 -19.207 -23.346  0.00  0.00    -0.269 OA
ATOM     25  N   UNL     1      36.272 -18.597 -21.186  0.00  0.00    -0.300 N 
ATOM     26  C   UNL     1      35.787 -18.356 -22.467  0.00  0.00    +0.261 C 
ATOM     27  H   UNL     1      36.315 -17.847 -20.548  0.00  0.00    +0.150 HD
BRANCH  26  30
ATOM     28  N   UNL     1      35.308 -16.614 -24.065  0.00  0.00    -0.262 NA
ATOM     29  N   UNL     1      34.773 -14.780 -22.011  0.00  0.00    -0.270 NA
ATOM     30  C   UNL     1      35.394 -16.954 -22.763  0.00  0.00    +0.132 C 
ATOM     31  C   UNL     1      35.131 -16.054 -21.754  0.00  0.00    +0.174 C 
ATOM     32  C   UNL     1      34.688 -14.439 -23.312  0.00  0.00    +0.057 C 
ATOM     33  C   UNL     1      34.950 -15.340 -24.321  0.00  0.00    +0.166 C 
ATOM     34  C   UNL     1      34.293 -13.039 -23.632  0.00  0.00    +0.049 C 
ENDBRANCH  26  30
ENDBRANCH  23  25
ENDBRANCH  22  23
ENDBRANCH   2  22
TORSDOF 7
ENDMDL
MODEL 8
REMARK VINA RESULT:     -10.1      3.303     11.189
REMARK  Name = 3478
REMARK  7 active torsions:
REMARK  status: ('A' for Active; 'I' for Inactive)
REMARK    1  A    between atoms: C_1  and  S_7
REMARK    2  A    between atoms: C_2  and  C_22
REMARK    3  A    between atoms: S_7  and  N_12
REMARK    4  A    between atoms: N_11  and  C_16
REMARK    5  A    between atoms: C_22  and  C_23
REMARK    6  A    between atoms: C_23  and  N_25
REMARK    7  A    between atoms: C_26  and  C_30
REMARK                            x       y       z     vdW  Elec       q    Type
REMARK                         _______ _______ _______ _____ _____    ______ ____
ROOT
ATOM      1  C   UNL     1      34.941 -17.651 -24.102  0.00  0.00    +0.125 C 
ATOM      2  C   UNL     1      35.748 -19.211 -21.936  0.00  0.00    -0.020 C 
ATOM      3  C   UNL     1      34.593 -19.001 -24.046  0.00  0.00    +0.020 C 
ATOM      4  C   UNL     1      35.693 -17.081 -23.076  0.00  0.00    +0.020 C 
ATOM      5  C   UNL     1      34.996 -19.781 -22.963  0.00  0.00    -0.003 C 
ATOM      6  C   UNL     1      36.097 -17.862 -21.992  0.00  0.00    -0.003 C 
ENDROOT
BRANCH   1   7
ATOM      7  S   UNL     1      34.428 -16.662 -25.476  0.00  0.00    +0.077 S 
ATOM      8  O   UNL     1      33.524 -17.453 -26.288  0.00  0.00    -0.150 OA
ATOM      9  O   UNL     1      35.631 -16.093 -26.054  0.00  0.00    -0.150 OA
BRANCH   7  12
ATOM     10  O   UNL     1      35.325 -14.286 -23.687  0.00  0.00    -0.251 OA
ATOM     11  N   UNL     1      33.162 -13.538 -23.362  0.00  0.00    -0.289 N 
ATOM     12  N   UNL     1      33.548 -15.431 -24.682  0.00  0.00    -0.169 N 
ATOM     13  C   UNL     1      34.117 -14.392 -23.879  0.00  0.00    +0.319 C 
ATOM     14  H   UNL     1      32.215 -13.708 -23.575  0.00  0.00    +0.151 HD
ATOM     15  H   UNL     1      32.569 -15.438 -24.785  0.00  0.00    +0.178 HD
BRANCH  11  16
ATOM     16  C   UNL     1      33.489 -12.407 -22.524  0.00  0.00    +0.073 C 
ATOM     17  C   UNL     1      33.556 -12.814 -21.048  0.00  0.00    +0.020 C 
ATOM     18  C   UNL     1      32.498 -11.257 -22.738  0.00  0.00    +0.020 C 
ATOM     19  C   UNL     1      32.176 -13.110 -20.461  0.00  0.00    +0.002 C 
ATOM     20  C   UNL     1      31.120 -11.555 -22.148  0.00  0.00    +0.002 C 
ATOM     21  C   UNL     1      31.211 -11.948 -20.677  0.00  0.00    +0.000 C 
ENDBRANCH  11  16
ENDBRANCH   7  12
ENDBRANCH   1   7
BRANCH   2  22
ATOM     22  C   UNL     1      36.180 -20.045 -20.777  0.00  0.00    +0.048 C 
BRANCH  22  23
ATOM     23  C   UNL     1      35.544 -21.440 -20.755  0.00  0.00    +0.094 C 
BRANCH  23  25
ATOM     24  O   UNL     1      34.171 -23.860 -20.047  0.00  0.00    -0.269 OA
ATOM     25  N   UNL     1      34.846 -21.703 -19.526  0.00  0.00    -0.300 N 
ATOM     26  C   UNL     1      34.206 -22.911 -19.270  0.00  0.00    +0.261 C 
ATOM     27  H   UNL     1      34.819 -20.999 -18.838  0.00  0.00    +0.150 HD
BRANCH  26  30
ATOM     28  N   UNL     1      32.185 -22.751 -17.964  0.00  0.00    -0.262 NA
ATOM     29  N   UNL     1      33.557 -23.465 -15.623  0.00  0.00    -0.270 NA
ATOM     30  C   UNL     1      33.507 -23.015 -17.963  0.00  0.00    +0.132 C 
ATOM     31  C   UNL     1      34.181 -23.366 -16.814  0.00  0.00    +0.174 C 
ATOM     32  C   UNL     1      32.236 -23.200 -15.623  0.00  0.00    +0.057 C 
ATOM     33  C   UNL     1      31.562 -22.849 -16.773  0.00  0.00    +0.166 C 
ATOM     34  C   UNL     1      31.514 -23.300 -14.324  0.00  0.00    +0.049 C 
ENDBRANCH  26  30
ENDBRANCH  23  25
ENDBRANCH  22  23
ENDBRANCH   2  22
TORSDOF 7
ENDMDL
MODEL 9
REMARK VINA RESULT:      -9.8      2.348     11.521
REMARK  Name = 3478
REMARK  7 active torsions:
REMARK  status: ('A' for Active; 'I' for Inactive)
REMARK    1  A    between atoms: C_1  and  S_7
REMARK    2  A    between atoms: C_2  and  C_22
REMARK    3  A    between atoms: S_7  and  N_12
REMARK    4  A    between atoms: N_11  and  C_16
REMARK    5  A    between atoms: C_22  and  C_23
REMARK    6  A    between atoms: C_23  and  N_25
REMARK    7  A    between atoms: C_26  and  C_30
REMARK                            x       y       z     vdW  Elec       q    Type
REMARK                         _______ _______ _______ _____ _____    ______ ____
ROOT
ATOM      1  C   UNL     1      34.963 -20.179 -21.076  0.00  0.00    +0.125 C 
ATOM      2  C   UNL     1      33.771 -21.905 -19.238  0.00  0.00    -0.020 C 
ATOM      3  C   UNL     1      35.753 -21.030 -20.304  0.00  0.00    +0.020 C 
ATOM      4  C   UNL     1      33.577 -20.190 -20.929  0.00  0.00    +0.020 C 
ATOM      5  C   UNL     1      35.158 -21.893 -19.385  0.00  0.00    -0.003 C 
ATOM      6  C   UNL     1      32.980 -21.053 -20.009  0.00  0.00    -0.003 C 
ENDROOT
BRANCH   1   7
ATOM      7  S   UNL     1      35.719 -19.085 -22.242  0.00  0.00    +0.077 S 
ATOM      8  O   UNL     1      35.133 -19.339 -23.544  0.00  0.00    -0.150 OA
ATOM      9  O   UNL     1      37.152 -19.190 -22.047  0.00  0.00    -0.150 OA
BRANCH   7  12
ATOM     10  O   UNL     1      36.014 -16.206 -23.367  0.00  0.00    -0.251 OA
ATOM     11  N   UNL     1      34.853 -15.253 -21.610  0.00  0.00    -0.289 N 
ATOM     12  N   UNL     1      35.181 -17.570 -21.664  0.00  0.00    -0.169 N 
ATOM     13  C   UNL     1      35.403 -16.311 -22.308  0.00  0.00    +0.319 C 
ATOM     14  H   UNL     1      34.380 -15.442 -20.767  0.00  0.00    +0.151 HD
ATOM     15  H   UNL     1      34.677 -17.561 -20.818  0.00  0.00    +0.178 HD
BRANCH  11  16
ATOM     16  C   UNL     1      34.940 -13.883 -22.061  0.00  0.00    +0.073 C 
ATOM     17  C   UNL     1      34.213 -12.937 -21.098  0.00  0.00    +0.020 C 
ATOM     18  C   UNL     1      34.405 -13.738 -23.490  0.00  0.00    +0.020 C 
ATOM     19  C   UNL     1      32.693 -13.080 -21.175  0.00  0.00    +0.002 C 
ATOM     20  C   UNL     1      32.885 -13.880 -23.563  0.00  0.00    +0.002 C 
ATOM     21  C   UNL     1      32.184 -12.922 -22.604  0.00  0.00    +0.000 C 
ENDBRANCH  11  16
ENDBRANCH   7  12
ENDBRANCH   1   7
BRANCH   2  22
ATOM     22  C   UNL     1      33.133 -22.827 -18.255  0.00  0.00    +0.048 C 
BRANCH  22  23
ATOM     23  C   UNL     1      34.013 -24.026 -17.878  0.00  0.00    +0.094 C 
BRANCH  23  25
ATOM     24  O   UNL     1      36.454 -23.272 -16.567  0.00  0.00    -0.269 OA
ATOM     25  N   UNL     1      34.283 -24.082 -16.466  0.00  0.00    -0.300 N 
ATOM     26  C   UNL     1      35.501 -23.695 -15.919  0.00  0.00    +0.261 C 
ATOM     27  H   UNL     1      33.576 -24.410 -15.863  0.00  0.00    +0.150 HD
BRANCH  26  30
ATOM     28  N   UNL     1      36.798 -23.445 -13.901  0.00  0.00    -0.262 NA
ATOM     29  N   UNL     1      34.709 -24.485 -12.345  0.00  0.00    -0.270 NA
ATOM     30  C   UNL     1      35.630 -23.840 -14.446  0.00  0.00    +0.132 C 
ATOM     31  C   UNL     1      34.603 -24.350 -13.682  0.00  0.00    +0.174 C 
ATOM     32  C   UNL     1      35.877 -24.092 -11.799  0.00  0.00    +0.057 C 
ATOM     33  C   UNL     1      36.903 -23.581 -12.564  0.00  0.00    +0.166 C 
ATOM     34  C   UNL     1      36.028 -24.226 -10.324  0.00  0.00    +0.049 C 
ENDBRANCH  26  30
ENDBRANCH  23  25
ENDBRANCH  22  23
ENDBRANCH   2  22
TORSDOF 7
ENDMDL
