MODEL 1
REMARK VINA RESULT:     -11.8      0.000      0.000
REMARK  Name = 9889200
REMARK  5 active torsions:
REMARK  status: ('A' for Active; 'I' for Inactive)
REMARK    1  A    between atoms: C_1  and  C_21
REMARK    2  A    between atoms: C_4  and  O_7
REMARK    3  A    between atoms: O_7  and  C_8
REMARK    4  A    between atoms: C_8  and  C_12
REMARK    5  A    between atoms: C_21  and  C_26
REMARK                            x       y       z     vdW  Elec       q    Type
REMARK                         _______ _______ _______ _____ _____    ______ ____
ROOT
ATOM      1  C   UNL     1      35.692 -19.944 -21.013  0.00  0.00    -0.021 C 
ATOM      2  C   UNL     1      36.618 -20.748 -20.349  0.00  0.00    -0.001 C 
ATOM      3  C   UNL     1      34.330 -20.235 -20.931  0.00  0.00    -0.001 C 
ATOM      4  C   UNL     1      34.826 -22.125 -19.529  0.00  0.00    +0.139 C 
ATOM      5  C   UNL     1      36.183 -21.844 -19.603  0.00  0.00    +0.037 C 
ATOM      6  C   UNL     1      33.895 -21.330 -20.185  0.00  0.00    +0.037 C 
ENDROOT
BRANCH   4   7
ATOM      7  O   UNL     1      34.397 -23.204 -18.793  0.00  0.00    -0.466 OA
BRANCH   7   8
ATOM      8  C   UNL     1      33.542 -22.941 -17.701  0.00  0.00    +0.279 C 
BRANCH   8  12
ATOM      9  O   UNL     1      33.221 -24.433 -13.116  0.00  0.00    -0.274 OA
ATOM     10  N   UNL     1      33.354 -23.706 -15.337  0.00  0.00    -0.232 N 
ATOM     11  N   UNL     1      35.463 -23.639 -16.434  0.00  0.00    -0.391 NA
ATOM     12  C   UNL     1      34.178 -23.457 -16.432  0.00  0.00    +0.210 C 
ATOM     13  C   UNL     1      35.337 -24.401 -14.110  0.00  0.00    +0.151 C 
ATOM     14  C   UNL     1      36.069 -24.117 -15.265  0.00  0.00    +0.123 C 
ATOM     15  C   UNL     1      33.874 -24.187 -14.126  0.00  0.00    +0.241 C 
ATOM     16  C   UNL     1      31.912 -23.474 -15.417  0.00  0.00    +0.122 C 
ATOM     17  C   UNL     1      35.973 -24.877 -12.959  0.00  0.00    -0.010 C 
ATOM     18  C   UNL     1      37.454 -24.318 -15.254  0.00  0.00    +0.028 C 
ATOM     19  C   UNL     1      37.353 -25.073 -12.962  0.00  0.00    -0.004 C 
ATOM     20  C   UNL     1      38.093 -24.793 -14.109  0.00  0.00    +0.002 C 
ENDBRANCH   8  12
ENDBRANCH   7   8
ENDBRANCH   4   7
BRANCH   1  21
ATOM     21  C   UNL     1      36.157 -18.774 -21.811  0.00  0.00    +0.047 C 
BRANCH  21  26
ATOM     22  S   UNL     1      35.002 -18.553 -24.309  0.00  0.00    -0.048 S 
ATOM     23  O   UNL     1      35.245 -15.926 -21.492  0.00  0.00    -0.274 OA
ATOM     24  O   UNL     1      35.115 -16.594 -26.061  0.00  0.00    -0.263 OA
ATOM     25  N   UNL     1      35.181 -16.056 -23.801  0.00  0.00    -0.246 N 
ATOM     26  C   UNL     1      35.012 -18.087 -22.551  0.00  0.00    +0.137 C 
ATOM     27  C   UNL     1      35.160 -16.581 -22.525  0.00  0.00    +0.239 C 
ATOM     28  C   UNL     1      35.107 -16.900 -24.877  0.00  0.00    +0.279 C 
ATOM     29  H   UNL     1      35.248 -15.083 -23.935  0.00  0.00    +0.158 HD
ENDBRANCH  21  26
ENDBRANCH   1  21
TORSDOF 5
ENDMDL
MODEL 2
REMARK VINA RESULT:     -11.7      4.172     11.161
REMARK  Name = 9889200
REMARK  5 active torsions:
REMARK  status: ('A' for Active; 'I' for Inactive)
REMARK    1  A    between atoms: C_1  and  C_21
REMARK    2  A    between atoms: C_4  and  O_7
REMARK    3  A    between atoms: O_7  and  C_8
REMARK    4  A    between atoms: C_8  and  C_12
REMARK    5  A    between atoms: C_21  and  C_26
REMARK                            x       y       z     vdW  Elec       q    Type
REMARK                         _______ _______ _______ _____ _____    ______ ____
ROOT
ATOM      1  C   UNL     1      35.343 -18.901 -22.433  0.00  0.00    -0.021 C 
ATOM      2  C   UNL     1      35.298 -18.618 -23.797  0.00  0.00    -0.001 C 
ATOM      3  C   UNL     1      35.392 -17.861 -21.505  0.00  0.00    -0.001 C 
ATOM      4  C   UNL     1      35.351 -16.265 -23.304  0.00  0.00    +0.139 C 
ATOM      5  C   UNL     1      35.302 -17.293 -24.235  0.00  0.00    +0.037 C 
ATOM      6  C   UNL     1      35.395 -16.537 -21.943  0.00  0.00    +0.037 C 
ENDROOT
BRANCH   4   7
ATOM      7  O   UNL     1      35.354 -14.960 -23.735  0.00  0.00    -0.466 OA
BRANCH   7   8
ATOM      8  C   UNL     1      34.186 -14.489 -24.372  0.00  0.00    +0.279 C 
BRANCH   8  12
ATOM      9  O   UNL     1      33.115  -9.803 -23.877  0.00  0.00    -0.274 OA
ATOM     10  N   UNL     1      33.644 -12.069 -24.138  0.00  0.00    -0.232 N 
ATOM     11  N   UNL     1      33.113 -13.612 -22.408  0.00  0.00    -0.391 NA
ATOM     12  C   UNL     1      33.609 -13.343 -23.576  0.00  0.00    +0.210 C 
ATOM     13  C   UNL     1      32.556 -11.244 -22.124  0.00  0.00    +0.151 C 
ATOM     14  C   UNL     1      32.574 -12.560 -21.656  0.00  0.00    +0.123 C 
ATOM     15  C   UNL     1      33.126 -10.956 -23.457  0.00  0.00    +0.241 C 
ATOM     16  C   UNL     1      34.223 -11.849 -25.463  0.00  0.00    +0.122 C 
ATOM     17  C   UNL     1      32.009 -10.216 -21.347  0.00  0.00    -0.010 C 
ATOM     18  C   UNL     1      32.035 -12.837 -20.394  0.00  0.00    +0.028 C 
ATOM     19  C   UNL     1      31.475 -10.507 -20.093  0.00  0.00    -0.004 C 
ATOM     20  C   UNL     1      31.488 -11.816 -19.616  0.00  0.00    +0.002 C 
ENDBRANCH   8  12
ENDBRANCH   7   8
ENDBRANCH   4   7
BRANCH   1  21
ATOM     21  C   UNL     1      35.340 -20.317 -21.965  0.00  0.00    +0.047 C 
BRANCH  21  26
ATOM     22  S   UNL     1      35.679 -21.718 -19.609  0.00  0.00    -0.048 S 
ATOM     23  O   UNL     1      32.437 -20.334 -21.181  0.00  0.00    -0.274 OA
ATOM     24  O   UNL     1      34.272 -23.694 -18.595  0.00  0.00    -0.263 OA
ATOM     25  N   UNL     1      33.164 -22.089 -19.861  0.00  0.00    -0.246 N 
ATOM     26  C   UNL     1      34.769 -20.459 -20.556  0.00  0.00    +0.137 C 
ATOM     27  C   UNL     1      33.331 -20.927 -20.586  0.00  0.00    +0.239 C 
ATOM     28  C   UNL     1      34.252 -22.671 -19.265  0.00  0.00    +0.279 C 
ATOM     29  H   UNL     1      32.272 -22.495 -19.773  0.00  0.00    +0.158 HD
ENDBRANCH  21  26
ENDBRANCH   1  21
TORSDOF 5
ENDMDL
MODEL 3
REMARK VINA RESULT:     -11.7      1.095      3.131
REMARK  Name = 9889200
REMARK  5 active torsions:
REMARK  status: ('A' for Active; 'I' for Inactive)
REMARK    1  A    between atoms: C_1  and  C_21
REMARK    2  A    between atoms: C_4  and  O_7
REMARK    3  A    between atoms: O_7  and  C_8
REMARK    4  A    between atoms: C_8  and  C_12
REMARK    5  A    between atoms: C_21  and  C_26
REMARK                            x       y       z     vdW  Elec       q    Type
REMARK                         _______ _______ _______ _____ _____    ______ ____
ROOT
ATOM      1  C   UNL     1      35.837 -19.885 -21.125  0.00  0.00    -0.021 C 
ATOM      2  C   UNL     1      36.790 -20.587 -20.388  0.00  0.00    -0.001 C 
ATOM      3  C   UNL     1      34.484 -20.199 -20.995  0.00  0.00    -0.001 C 
ATOM      4  C   UNL     1      35.042 -21.910 -19.400  0.00  0.00    +0.139 C 
ATOM      5  C   UNL     1      36.391 -21.605 -19.521  0.00  0.00    +0.037 C 
ATOM      6  C   UNL     1      34.085 -21.216 -20.128  0.00  0.00    +0.037 C 
ENDROOT
BRANCH   4   7
ATOM      7  O   UNL     1      34.648 -22.912 -18.545  0.00  0.00    -0.466 OA
BRANCH   7   8
ATOM      8  C   UNL     1      35.060 -22.810 -17.199  0.00  0.00    +0.279 C 
BRANCH   8  12
ATOM      9  O   UNL     1      33.598 -24.672 -12.987  0.00  0.00    -0.274 OA
ATOM     10  N   UNL     1      34.329 -23.770 -15.020  0.00  0.00    -0.232 N 
ATOM     11  N   UNL     1      32.769 -23.401 -16.777  0.00  0.00    -0.391 NA
ATOM     12  C   UNL     1      33.975 -23.353 -16.301  0.00  0.00    +0.210 C 
ATOM     13  C   UNL     1      31.993 -24.346 -14.655  0.00  0.00    +0.151 C 
ATOM     14  C   UNL     1      31.749 -23.902 -15.957  0.00  0.00    +0.123 C 
ATOM     15  C   UNL     1      33.373 -24.284 -14.130  0.00  0.00    +0.241 C 
ATOM     16  C   UNL     1      35.714 -23.683 -14.559  0.00  0.00    +0.122 C 
ATOM     17  C   UNL     1      30.952 -24.841 -13.861  0.00  0.00    -0.010 C 
ATOM     18  C   UNL     1      30.444 -23.960 -16.458  0.00  0.00    +0.028 C 
ATOM     19  C   UNL     1      29.656 -24.892 -14.373  0.00  0.00    -0.004 C 
ATOM     20  C   UNL     1      29.402 -24.452 -15.671  0.00  0.00    +0.002 C 
ENDBRANCH   8  12
ENDBRANCH   7   8
ENDBRANCH   4   7
BRANCH   1  21
ATOM     21  C   UNL     1      36.264 -18.797 -22.051  0.00  0.00    +0.047 C 
BRANCH  21  26
ATOM     22  S   UNL     1      35.010 -18.502 -24.494  0.00  0.00    -0.048 S 
ATOM     23  O   UNL     1      35.304 -15.987 -21.581  0.00  0.00    -0.274 OA
ATOM     24  O   UNL     1      35.013 -16.473 -26.166  0.00  0.00    -0.263 OA
ATOM     25  N   UNL     1      35.154 -16.024 -23.889  0.00  0.00    -0.246 N 
ATOM     26  C   UNL     1      35.076 -18.108 -22.720  0.00  0.00    +0.137 C 
ATOM     27  C   UNL     1      35.193 -16.602 -22.637  0.00  0.00    +0.239 C 
ATOM     28  C   UNL     1      35.057 -16.826 -24.996  0.00  0.00    +0.279 C 
ATOM     29  H   UNL     1      35.195 -15.045 -23.986  0.00  0.00    +0.158 HD
ENDBRANCH  21  26
ENDBRANCH   1  21
TORSDOF 5
ENDMDL
MODEL 4
REMARK VINA RESULT:     -11.4      3.180     10.431
REMARK  Name = 9889200
REMARK  5 active torsions:
REMARK  status: ('A' for Active; 'I' for Inactive)
REMARK    1  A    between atoms: C_1  and  C_21
REMARK    2  A    between atoms: C_4  and  O_7
REMARK    3  A    between atoms: O_7  and  C_8
REMARK    4  A    between atoms: C_8  and  C_12
REMARK    5  A    between atoms: C_21  and  C_26
REMARK                            x       y       z     vdW  Elec       q    Type
REMARK                         _______ _______ _______ _____ _____    ______ ____
ROOT
ATOM      1  C   UNL     1      34.314 -22.305 -19.082  0.00  0.00    -0.021 C 
ATOM      2  C   UNL     1      35.685 -22.054 -19.084  0.00  0.00    -0.001 C 
ATOM      3  C   UNL     1      33.459 -21.519 -19.854  0.00  0.00    -0.001 C 
ATOM      4  C   UNL     1      35.343 -20.239 -20.623  0.00  0.00    +0.139 C 
ATOM      5  C   UNL     1      36.203 -21.015 -19.858  0.00  0.00    +0.037 C 
ATOM      6  C   UNL     1      33.976 -20.481 -20.629  0.00  0.00    +0.037 C 
ENDROOT
BRANCH   4   7
ATOM      7  O   UNL     1      35.853 -19.216 -21.388  0.00  0.00    -0.466 OA
BRANCH   7   8
ATOM      8  C   UNL     1      35.750 -19.345 -22.789  0.00  0.00    +0.279 C 
BRANCH   8  12
ATOM      9  O   UNL     1      33.901 -16.775 -26.439  0.00  0.00    -0.274 OA
ATOM     10  N   UNL     1      34.796 -18.039 -24.685  0.00  0.00    -0.232 N 
ATOM     11  N   UNL     1      35.358 -16.978 -22.632  0.00  0.00    -0.391 NA
ATOM     12  C   UNL     1      35.281 -18.036 -23.379  0.00  0.00    +0.210 C 
ATOM     13  C   UNL     1      34.423 -15.645 -24.461  0.00  0.00    +0.151 C 
ATOM     14  C   UNL     1      34.928 -15.755 -23.163  0.00  0.00    +0.123 C 
ATOM     15  C   UNL     1      34.343 -16.861 -25.298  0.00  0.00    +0.241 C 
ATOM     16  C   UNL     1      34.743 -19.277 -25.462  0.00  0.00    +0.122 C 
ATOM     17  C   UNL     1      34.002 -14.408 -24.962  0.00  0.00    -0.010 C 
ATOM     18  C   UNL     1      35.006 -14.607 -22.368  0.00  0.00    +0.028 C 
ATOM     19  C   UNL     1      34.084 -13.272 -24.158  0.00  0.00    -0.004 C 
ATOM     20  C   UNL     1      34.586 -13.371 -22.862  0.00  0.00    +0.002 C 
ENDBRANCH   8  12
ENDBRANCH   7   8
ENDBRANCH   4   7
BRANCH   1  21
ATOM     21  C   UNL     1      33.761 -23.414 -18.253  0.00  0.00    +0.047 C 
BRANCH  21  26
ATOM     22  S   UNL     1      34.101 -23.945 -15.564  0.00  0.00    -0.048 S 
ATOM     23  O   UNL     1      30.998 -22.580 -17.410  0.00  0.00    -0.274 OA
ATOM     24  O   UNL     1      32.489 -25.122 -13.852  0.00  0.00    -0.263 OA
ATOM     25  N   UNL     1      31.547 -23.872 -15.572  0.00  0.00    -0.246 N 
ATOM     26  C   UNL     1      33.326 -22.940 -16.868  0.00  0.00    +0.137 C 
ATOM     27  C   UNL     1      31.834 -23.093 -16.673  0.00  0.00    +0.239 C 
ATOM     28  C   UNL     1      32.575 -24.414 -14.845  0.00  0.00    +0.279 C 
ATOM     29  H   UNL     1      30.612 -24.036 -15.309  0.00  0.00    +0.158 HD
ENDBRANCH  21  26
ENDBRANCH   1  21
TORSDOF 5
ENDMDL
MODEL 5
REMARK VINA RESULT:     -11.0      2.071      3.547
REMARK  Name = 9889200
REMARK  5 active torsions:
REMARK  status: ('A' for Active; 'I' for Inactive)
REMARK    1  A    between atoms: C_1  and  C_21
REMARK    2  A    between atoms: C_4  and  O_7
REMARK    3  A    between atoms: O_7  and  C_8
REMARK    4  A    between atoms: C_8  and  C_12
REMARK    5  A    between atoms: C_21  and  C_26
REMARK                            x       y       z     vdW  Elec       q    Type
REMARK                         _______ _______ _______ _____ _____    ______ ____
ROOT
ATOM      1  C   UNL     1      35.212 -18.287 -23.747  0.00  0.00    -0.021 C 
ATOM      2  C   UNL     1      34.393 -19.252 -23.161  0.00  0.00    -0.001 C 
ATOM      3  C   UNL     1      36.430 -17.953 -23.155  0.00  0.00    -0.001 C 
ATOM      4  C   UNL     1      36.006 -19.543 -21.401  0.00  0.00    +0.139 C 
ATOM      5  C   UNL     1      34.792 -19.883 -21.982  0.00  0.00    +0.037 C 
ATOM      6  C   UNL     1      36.829 -18.584 -21.977  0.00  0.00    +0.037 C 
ENDROOT
BRANCH   4   7
ATOM      7  O   UNL     1      36.400 -20.166 -20.241  0.00  0.00    -0.466 OA
BRANCH   7   8
ATOM      8  C   UNL     1      36.431 -21.576 -20.244  0.00  0.00    +0.279 C 
BRANCH   8  12
ATOM      9  O   UNL     1      33.103 -23.213 -17.147  0.00  0.00    -0.274 OA
ATOM     10  N   UNL     1      34.698 -22.417 -18.663  0.00  0.00    -0.232 N 
ATOM     11  N   UNL     1      36.966 -22.195 -17.983  0.00  0.00    -0.391 NA
ATOM     12  C   UNL     1      36.035 -22.089 -18.880  0.00  0.00    +0.210 C 
ATOM     13  C   UNL     1      35.306 -23.027 -16.387  0.00  0.00    +0.151 C 
ATOM     14  C   UNL     1      36.616 -22.669 -16.713  0.00  0.00    +0.123 C 
ATOM     15  C   UNL     1      34.258 -22.900 -17.422  0.00  0.00    +0.241 C 
ATOM     16  C   UNL     1      33.707 -22.268 -19.729  0.00  0.00    +0.122 C 
ATOM     17  C   UNL     1      34.989 -23.498 -15.108  0.00  0.00    -0.010 C 
ATOM     18  C   UNL     1      37.612 -22.787 -15.736  0.00  0.00    +0.028 C 
ATOM     19  C   UNL     1      35.991 -23.611 -14.146  0.00  0.00    -0.004 C 
ATOM     20  C   UNL     1      37.302 -23.256 -14.459  0.00  0.00    +0.002 C 
ENDBRANCH   8  12
ENDBRANCH   7   8
ENDBRANCH   4   7
BRANCH   1  21
ATOM     21  C   UNL     1      34.785 -17.612 -25.006  0.00  0.00    +0.047 C 
BRANCH  21  26
ATOM     22  S   UNL     1      34.825 -15.452 -23.286  0.00  0.00    -0.048 S 
ATOM     23  O   UNL     1      33.888 -15.576 -27.028  0.00  0.00    -0.274 OA
ATOM     24  O   UNL     1      33.093 -13.497 -22.980  0.00  0.00    -0.263 OA
ATOM     25  N   UNL     1      33.362 -14.408 -25.102  0.00  0.00    -0.246 N 
ATOM     26  C   UNL     1      35.039 -16.107 -24.970  0.00  0.00    +0.137 C 
ATOM     27  C   UNL     1      34.047 -15.357 -25.832  0.00  0.00    +0.239 C 
ATOM     28  C   UNL     1      33.613 -14.282 -23.760  0.00  0.00    +0.279 C 
ATOM     29  H   UNL     1      32.701 -13.826 -25.541  0.00  0.00    +0.158 HD
ENDBRANCH  21  26
ENDBRANCH   1  21
TORSDOF 5
ENDMDL
MODEL 6
REMARK VINA RESULT:     -11.0      2.901     10.329
REMARK  Name = 9889200
REMARK  5 active torsions:
REMARK  status: ('A' for Active; 'I' for Inactive)
REMARK    1  A    between atoms: C_1  and  C_21
REMARK    2  A    between atoms: C_4  and  O_7
REMARK    3  A    between atoms: O_7  and  C_8
REMARK    4  A    between atoms: C_8  and  C_12
REMARK    5  A    between atoms: C_21  and  C_26
REMARK                            x       y       z     vdW  Elec       q    Type
REMARK                         _______ _______ _______ _____ _____    ______ ____
ROOT
ATOM      1  C   UNL     1      34.561 -22.806 -18.140  0.00  0.00    -0.021 C 
ATOM      2  C   UNL     1      33.413 -22.485 -18.863  0.00  0.00    -0.001 C 
ATOM      3  C   UNL     1      35.784 -22.230 -18.480  0.00  0.00    -0.001 C 
ATOM      4  C   UNL     1      34.711 -21.020 -20.260  0.00  0.00    +0.139 C 
ATOM      5  C   UNL     1      33.488 -21.588 -19.929  0.00  0.00    +0.037 C 
ATOM      6  C   UNL     1      35.860 -21.332 -19.545  0.00  0.00    +0.037 C 
ENDROOT
BRANCH   4   7
ATOM      7  O   UNL     1      34.785 -20.135 -21.309  0.00  0.00    -0.466 OA
BRANCH   7   8
ATOM      8  C   UNL     1      35.914 -19.291 -21.363  0.00  0.00    +0.279 C 
BRANCH   8  12
ATOM      9  O   UNL     1      35.110 -16.853 -25.456  0.00  0.00    -0.274 OA
ATOM     10  N   UNL     1      35.505 -18.053 -23.486  0.00  0.00    -0.232 N 
ATOM     11  N   UNL     1      35.312 -16.963 -21.381  0.00  0.00    -0.391 NA
ATOM     12  C   UNL     1      35.555 -18.019 -22.094  0.00  0.00    +0.210 C 
ATOM     13  C   UNL     1      34.898 -15.697 -23.436  0.00  0.00    +0.151 C 
ATOM     14  C   UNL     1      34.978 -15.775 -22.043  0.00  0.00    +0.123 C 
ATOM     15  C   UNL     1      35.177 -16.911 -24.232  0.00  0.00    +0.241 C 
ATOM     16  C   UNL     1      35.793 -19.287 -24.217  0.00  0.00    +0.122 C 
ATOM     17  C   UNL     1      34.560 -14.495 -24.067  0.00  0.00    -0.010 C 
ATOM     18  C   UNL     1      34.714 -14.629 -21.286  0.00  0.00    +0.028 C 
ATOM     19  C   UNL     1      34.300 -13.361 -23.300  0.00  0.00    -0.004 C 
ATOM     20  C   UNL     1      34.377 -13.427 -21.910  0.00  0.00    +0.002 C 
ENDBRANCH   8  12
ENDBRANCH   7   8
ENDBRANCH   4   7
BRANCH   1  21
ATOM     21  C   UNL     1      34.480 -23.765 -17.001  0.00  0.00    +0.047 C 
BRANCH  21  26
ATOM     22  S   UNL     1      35.623 -23.784 -14.487  0.00  0.00    -0.048 S 
ATOM     23  O   UNL     1      32.022 -22.862 -15.525  0.00  0.00    -0.274 OA
ATOM     24  O   UNL     1      34.672 -24.668 -12.201  0.00  0.00    -0.263 OA
ATOM     25  N   UNL     1      33.178 -23.780 -13.745  0.00  0.00    -0.246 N 
ATOM     26  C   UNL     1      34.428 -23.056 -15.650  0.00  0.00    +0.137 C 
ATOM     27  C   UNL     1      33.072 -23.210 -14.996  0.00  0.00    +0.239 C 
ATOM     28  C   UNL     1      34.412 -24.153 -13.278  0.00  0.00    +0.279 C 
ATOM     29  H   UNL     1      32.375 -23.917 -13.193  0.00  0.00    +0.158 HD
ENDBRANCH  21  26
ENDBRANCH   1  21
TORSDOF 5
ENDMDL
MODEL 7
REMARK VINA RESULT:     -10.8      8.565     13.113
REMARK  Name = 9889200
REMARK  5 active torsions:
REMARK  status: ('A' for Active; 'I' for Inactive)
REMARK    1  A    between atoms: C_1  and  C_21
REMARK    2  A    between atoms: C_4  and  O_7
REMARK    3  A    between atoms: O_7  and  C_8
REMARK    4  A    between atoms: C_8  and  C_12
REMARK    5  A    between atoms: C_21  and  C_26
REMARK                            x       y       z     vdW  Elec       q    Type
REMARK                         _______ _______ _______ _____ _____    ______ ____
ROOT
ATOM      1  C   UNL     1      33.083  -7.649 -22.903  0.00  0.00    -0.021 C 
ATOM      2  C   UNL     1      34.173  -8.160 -23.607  0.00  0.00    -0.001 C 
ATOM      3  C   UNL     1      32.083  -8.507 -22.446  0.00  0.00    -0.001 C 
ATOM      4  C   UNL     1      33.261 -10.375 -23.399  0.00  0.00    +0.139 C 
ATOM      5  C   UNL     1      34.262  -9.530 -23.857  0.00  0.00    +0.037 C 
ATOM      6  C   UNL     1      32.173  -9.877 -22.695  0.00  0.00    +0.037 C 
ENDROOT
BRANCH   4   7
ATOM      7  O   UNL     1      33.350 -11.725 -23.643  0.00  0.00    -0.466 OA
BRANCH   7   8
ATOM      8  C   UNL     1      34.251 -12.141 -24.647  0.00  0.00    +0.279 C 
BRANCH   8  12
ATOM      9  O   UNL     1      33.769 -16.493 -26.690  0.00  0.00    -0.274 OA
ATOM     10  N   UNL     1      33.992 -14.375 -25.719  0.00  0.00    -0.232 N 
ATOM     11  N   UNL     1      34.875 -14.171 -23.520  0.00  0.00    -0.391 NA
ATOM     12  C   UNL     1      34.391 -13.644 -24.602  0.00  0.00    +0.210 C 
ATOM     13  C   UNL     1      34.645 -16.392 -24.525  0.00  0.00    +0.151 C 
ATOM     14  C   UNL     1      35.012 -15.564 -23.462  0.00  0.00    +0.123 C 
ATOM     15  C   UNL     1      34.094 -15.774 -25.750  0.00  0.00    +0.241 C 
ATOM     16  C   UNL     1      33.455 -13.703 -26.902  0.00  0.00    +0.122 C 
ATOM     17  C   UNL     1      34.794 -17.780 -24.435  0.00  0.00    -0.010 C 
ATOM     18  C   UNL     1      35.533 -16.145 -22.301  0.00  0.00    +0.028 C 
ATOM     19  C   UNL     1      35.315 -18.346 -23.272  0.00  0.00    -0.004 C 
ATOM     20  C   UNL     1      35.684 -17.529 -22.206  0.00  0.00    +0.002 C 
ENDBRANCH   8  12
ENDBRANCH   7   8
ENDBRANCH   4   7
BRANCH   1  21
ATOM     21  C   UNL     1      32.987  -6.185 -22.637  0.00  0.00    +0.047 C 
BRANCH  21  26
ATOM     22  S   UNL     1      32.476  -4.223 -24.512  0.00  0.00    -0.048 S 
ATOM     23  O   UNL     1      30.276  -5.431 -21.580  0.00  0.00    -0.274 OA
ATOM     24  O   UNL     1      31.448  -1.821 -24.213  0.00  0.00    -0.263 OA
ATOM     25  N   UNL     1      30.720  -3.515 -22.797  0.00  0.00    -0.246 N 
ATOM     26  C   UNL     1      31.847  -5.530 -23.414  0.00  0.00    +0.137 C 
ATOM     27  C   UNL     1      30.864  -4.851 -22.486  0.00  0.00    +0.239 C 
ATOM     28  C   UNL     1      31.459  -2.978 -23.818  0.00  0.00    +0.279 C 
ATOM     29  H   UNL     1      30.090  -2.953 -22.290  0.00  0.00    +0.158 HD
ENDBRANCH  21  26
ENDBRANCH   1  21
TORSDOF 5
ENDMDL
MODEL 8
REMARK VINA RESULT:     -10.7      3.168     10.427
REMARK  Name = 9889200
REMARK  5 active torsions:
REMARK  status: ('A' for Active; 'I' for Inactive)
REMARK    1  A    between atoms: C_1  and  C_21
REMARK    2  A    between atoms: C_4  and  O_7
REMARK    3  A    between atoms: O_7  and  C_8
REMARK    4  A    between atoms: C_8  and  C_12
REMARK    5  A    between atoms: C_21  and  C_26
REMARK                            x       y       z     vdW  Elec       q    Type
REMARK                         _______ _______ _______ _____ _____    ______ ____
ROOT
ATOM      1  C   UNL     1      35.557 -21.409 -19.808  0.00  0.00    -0.021 C 
ATOM      2  C   UNL     1      34.284 -21.050 -20.252  0.00  0.00    -0.001 C 
ATOM      3  C   UNL     1      36.677 -20.717 -20.268  0.00  0.00    -0.001 C 
ATOM      4  C   UNL     1      35.253 -19.317 -21.608  0.00  0.00    +0.139 C 
ATOM      5  C   UNL     1      34.132 -19.999 -21.157  0.00  0.00    +0.037 C 
ATOM      6  C   UNL     1      36.525 -19.666 -21.172  0.00  0.00    +0.037 C 
ENDROOT
BRANCH   4   7
ATOM      7  O   UNL     1      35.102 -18.281 -22.499  0.00  0.00    -0.466 OA
BRANCH   7   8
ATOM      8  C   UNL     1      35.846 -17.107 -22.254  0.00  0.00    +0.279 C 
BRANCH   8  12
ATOM      9  O   UNL     1      33.605 -13.742 -24.901  0.00  0.00    -0.274 OA
ATOM     10  N   UNL     1      34.701 -15.381 -23.638  0.00  0.00    -0.232 N 
ATOM     11  N   UNL     1      34.429 -15.429 -21.276  0.00  0.00    -0.391 NA
ATOM     12  C   UNL     1      34.938 -15.906 -22.370  0.00  0.00    +0.210 C 
ATOM     13  C   UNL     1      33.279 -13.709 -22.587  0.00  0.00    +0.151 C 
ATOM     14  C   UNL     1      33.585 -14.315 -21.365  0.00  0.00    +0.123 C 
ATOM     15  C   UNL     1      33.868 -14.267 -23.823  0.00  0.00    +0.241 C 
ATOM     16  C   UNL     1      35.315 -15.978 -24.824  0.00  0.00    +0.122 C 
ATOM     17  C   UNL     1      32.432 -12.597 -22.641  0.00  0.00    -0.010 C 
ATOM     18  C   UNL     1      33.030 -13.790 -20.193  0.00  0.00    +0.028 C 
ATOM     19  C   UNL     1      31.885 -12.086 -21.465  0.00  0.00    -0.004 C 
ATOM     20  C   UNL     1      32.184 -12.682 -20.242  0.00  0.00    +0.002 C 
ENDBRANCH   8  12
ENDBRANCH   7   8
ENDBRANCH   4   7
BRANCH   1  21
ATOM     21  C   UNL     1      35.720 -22.533 -18.842  0.00  0.00    +0.047 C 
BRANCH  21  26
ATOM     22  S   UNL     1      37.592 -22.071 -16.865  0.00  0.00    -0.048 S 
ATOM     23  O   UNL     1      33.914 -23.190 -16.530  0.00  0.00    -0.274 OA
ATOM     24  O   UNL     1      38.147 -23.456 -14.700  0.00  0.00    -0.263 OA
ATOM     25  N   UNL     1      35.950 -23.434 -15.461  0.00  0.00    -0.246 N 
ATOM     26  C   UNL     1      35.854 -22.042 -17.402  0.00  0.00    +0.137 C 
ATOM     27  C   UNL     1      35.112 -22.943 -16.439  0.00  0.00    +0.239 C 
ATOM     28  C   UNL     1      37.280 -23.104 -15.487  0.00  0.00    +0.279 C 
ATOM     29  H   UNL     1      35.596 -24.015 -14.749  0.00  0.00    +0.158 HD
ENDBRANCH  21  26
ENDBRANCH   1  21
TORSDOF 5
ENDMDL
MODEL 9
REMARK VINA RESULT:     -10.5      3.200     10.228
REMARK  Name = 9889200
REMARK  5 active torsions:
REMARK  status: ('A' for Active; 'I' for Inactive)
REMARK    1  A    between atoms: C_1  and  C_21
REMARK    2  A    between atoms: C_4  and  O_7
REMARK    3  A    between atoms: O_7  and  C_8
REMARK    4  A    between atoms: C_8  and  C_12
REMARK    5  A    between atoms: C_21  and  C_26
REMARK                            x       y       z     vdW  Elec       q    Type
REMARK                         _______ _______ _______ _____ _____    ______ ____
ROOT
ATOM      1  C   UNL     1      35.895 -22.598 -17.228  0.00  0.00    -0.021 C 
ATOM      2  C   UNL     1      37.063 -21.842 -17.318  0.00  0.00    -0.001 C 
ATOM      3  C   UNL     1      34.954 -22.554 -18.256  0.00  0.00    -0.001 C 
ATOM      4  C   UNL     1      36.349 -21.004 -19.455  0.00  0.00    +0.139 C 
ATOM      5  C   UNL     1      37.291 -21.040 -18.437  0.00  0.00    +0.037 C 
ATOM      6  C   UNL     1      35.182 -21.753 -19.376  0.00  0.00    +0.037 C 
ENDROOT
BRANCH   4   7
ATOM      7  O   UNL     1      36.574 -20.216 -20.559  0.00  0.00    -0.466 OA
BRANCH   7   8
ATOM      8  C   UNL     1      35.617 -20.266 -21.594  0.00  0.00    +0.279 C 
BRANCH   8  12
ATOM      9  O   UNL     1      35.037 -17.226 -25.304  0.00  0.00    -0.274 OA
ATOM     10  N   UNL     1      35.321 -18.716 -23.522  0.00  0.00    -0.232 N 
ATOM     11  N   UNL     1      35.291 -17.903 -21.287  0.00  0.00    -0.391 NA
ATOM     12  C   UNL     1      35.397 -18.875 -22.140  0.00  0.00    +0.210 C 
ATOM     13  C   UNL     1      34.995 -16.334 -23.144  0.00  0.00    +0.151 C 
ATOM     14  C   UNL     1      35.087 -16.607 -21.777  0.00  0.00    +0.123 C 
ATOM     15  C   UNL     1      35.117 -17.454 -24.101  0.00  0.00    +0.241 C 
ATOM     16  C   UNL     1      35.450 -19.865 -24.417  0.00  0.00    +0.122 C 
ATOM     17  C   UNL     1      34.790 -15.028 -23.601  0.00  0.00    -0.010 C 
ATOM     18  C   UNL     1      34.972 -15.550 -20.868  0.00  0.00    +0.028 C 
ATOM     19  C   UNL     1      34.677 -13.985 -22.683  0.00  0.00    -0.004 C 
ATOM     20  C   UNL     1      34.768 -14.245 -21.317  0.00  0.00    +0.002 C 
ENDBRANCH   8  12
ENDBRANCH   7   8
ENDBRANCH   4   7
BRANCH   1  21
ATOM     21  C   UNL     1      35.651 -23.453 -16.031  0.00  0.00    +0.047 C 
BRANCH  21  26
ATOM     22  S   UNL     1      36.554 -25.962 -15.316  0.00  0.00    -0.048 S 
ATOM     23  O   UNL     1      37.726 -22.502 -14.074  0.00  0.00    -0.274 OA
ATOM     24  O   UNL     1      37.136 -26.942 -12.946  0.00  0.00    -0.263 OA
ATOM     25  N   UNL     1      37.516 -24.681 -13.327  0.00  0.00    -0.246 N 
ATOM     26  C   UNL     1      36.907 -24.199 -15.588  0.00  0.00    +0.137 C 
ATOM     27  C   UNL     1      37.426 -23.675 -14.267  0.00  0.00    +0.239 C 
ATOM     28  C   UNL     1      37.120 -25.950 -13.660  0.00  0.00    +0.279 C 
ATOM     29  H   UNL     1      37.864 -24.488 -12.426  0.00  0.00    +0.158 HD
ENDBRANCH  21  26
ENDBRANCH   1  21
TORSDOF 5
ENDMDL
