MODEL 1
REMARK VINA RESULT:     -11.9      0.000      0.000
REMARK  Name = 6102777
REMARK  2 active torsions:
REMARK  status: ('A' for Active; 'I' for Inactive)
REMARK    1  A    between atoms: C_4  and  S_16
REMARK    2  A    between atoms: S_16  and  N_19
REMARK                            x       y       z     vdW  Elec       q    Type
REMARK                         _______ _______ _______ _____ _____    ______ ____
ROOT
ATOM      1  O   UNL     1      37.038 -20.804 -19.279  0.00  0.00    -0.453 OA
ATOM      2  O   UNL     1      33.195 -22.211 -19.263  0.00  0.00    -0.286 OA
ATOM      3  C   UNL     1      35.302 -22.150 -18.212  0.00  0.00    +0.075 A 
ATOM      4  C   UNL     1      35.857 -23.316 -16.173  0.00  0.00    +0.126 C 
ATOM      5  C   UNL     1      36.596 -21.635 -18.279  0.00  0.00    +0.148 A 
ATOM      6  C   UNL     1      34.927 -22.990 -17.161  0.00  0.00    +0.026 C 
ATOM      7  C   UNL     1      34.834 -20.898 -20.329  0.00  0.00    +0.074 A 
ATOM      8  C   UNL     1      34.343 -21.790 -19.267  0.00  0.00    +0.201 A 
ATOM      9  C   UNL     1      36.156 -20.456 -20.273  0.00  0.00    +0.148 A 
ATOM     10  C   UNL     1      37.153 -22.804 -16.236  0.00  0.00    +0.023 C 
ATOM     11  C   UNL     1      37.523 -21.965 -17.288  0.00  0.00    +0.039 C 
ATOM     12  C   UNL     1      33.996 -20.501 -21.373  0.00  0.00    +0.006 C 
ATOM     13  C   UNL     1      36.644 -19.610 -21.270  0.00  0.00    +0.038 C 
ATOM     14  C   UNL     1      34.490 -19.655 -22.367  0.00  0.00    +0.000 C 
ATOM     15  C   UNL     1      35.810 -19.210 -22.316  0.00  0.00    +0.003 C 
ENDROOT
BRANCH   4  16
ATOM     16  S   UNL     1      35.398 -24.366 -14.855  0.00  0.00    +0.081 S 
ATOM     17  O   UNL     1      33.986 -24.147 -14.570  0.00  0.00    -0.149 OA
ATOM     18  O   UNL     1      35.868 -25.710 -15.163  0.00  0.00    -0.149 OA
BRANCH  16  19
ATOM     19  N   UNL     1      36.332 -23.726 -13.577  0.00  0.00    -0.156 N 
ATOM     20  N   UNL     1      36.977 -23.570 -11.264  0.00  0.00    -0.094 NA
ATOM     21  N   UNL     1      35.336 -25.039 -11.794  0.00  0.00    -0.071 NA
ATOM     22  N   UNL     1      36.491 -24.249 -10.214  0.00  0.00    -0.139 N 
ATOM     23  N   UNL     1      35.516 -25.129 -10.482  0.00  0.00    -0.020 NA
ATOM     24  C   UNL     1      36.223 -24.103 -12.217  0.00  0.00    +0.145 C 
ATOM     25  H   UNL     1      37.000 -23.038 -13.804  0.00  0.00    +0.186 HD
ATOM     26  H   UNL     1      36.830 -24.109  -9.301  0.00  0.00    +0.197 HD
ENDBRANCH  16  19
ENDBRANCH   4  16
TORSDOF 2
ENDMDL
MODEL 2
REMARK VINA RESULT:     -11.7      2.775      4.097
REMARK  Name = 6102777
REMARK  2 active torsions:
REMARK  status: ('A' for Active; 'I' for Inactive)
REMARK    1  A    between atoms: C_4  and  S_16
REMARK    2  A    between atoms: S_16  and  N_19
REMARK                            x       y       z     vdW  Elec       q    Type
REMARK                         _______ _______ _______ _____ _____    ______ ____
ROOT
ATOM      1  O   UNL     1      34.086 -23.175 -16.903  0.00  0.00    -0.453 OA
ATOM      2  O   UNL     1      38.039 -22.121 -16.807  0.00  0.00    -0.286 OA
ATOM      3  C   UNL     1      36.217 -23.133 -15.711  0.00  0.00    +0.075 A 
ATOM      4  C   UNL     1      36.311 -24.122 -13.511  0.00  0.00    +0.126 C 
ATOM      5  C   UNL     1      34.865 -23.463 -15.810  0.00  0.00    +0.148 A 
ATOM      6  C   UNL     1      36.944 -23.461 -14.564  0.00  0.00    +0.026 C 
ATOM      7  C   UNL     1      36.007 -22.138 -17.998  0.00  0.00    +0.074 A 
ATOM      8  C   UNL     1      36.858 -22.437 -16.836  0.00  0.00    +0.201 A 
ATOM      9  C   UNL     1      34.668 -22.525 -17.964  0.00  0.00    +0.148 A 
ATOM     10  C   UNL     1      34.959 -24.452 -13.605  0.00  0.00    +0.023 C 
ATOM     11  C   UNL     1      34.236 -24.124 -14.753  0.00  0.00    +0.039 C 
ATOM     12  C   UNL     1      36.528 -21.480 -19.115  0.00  0.00    +0.006 C 
ATOM     13  C   UNL     1      33.841 -22.252 -19.056  0.00  0.00    +0.038 C 
ATOM     14  C   UNL     1      35.697 -21.209 -20.202  0.00  0.00    +0.000 C 
ATOM     15  C   UNL     1      34.357 -21.594 -20.174  0.00  0.00    +0.003 C 
ENDROOT
BRANCH   4  16
ATOM     16  S   UNL     1      37.211 -24.535 -12.073  0.00  0.00    +0.081 S 
ATOM     17  O   UNL     1      37.013 -23.475 -11.093  0.00  0.00    -0.149 OA
ATOM     18  O   UNL     1      36.889 -25.911 -11.718  0.00  0.00    -0.149 OA
BRANCH  16  19
ATOM     19  N   UNL     1      38.816 -24.468 -12.652  0.00  0.00    -0.156 N 
ATOM     20  N   UNL     1      40.645 -25.271 -13.994  0.00  0.00    -0.094 NA
ATOM     21  N   UNL     1      38.690 -26.408 -14.106  0.00  0.00    -0.071 NA
ATOM     22  N   UNL     1      40.672 -26.325 -14.823  0.00  0.00    -0.139 N 
ATOM     23  N   UNL     1      39.535 -27.028 -14.919  0.00  0.00    -0.020 NA
ATOM     24  C   UNL     1      39.388 -25.372 -13.578  0.00  0.00    +0.145 C 
ATOM     25  H   UNL     1      39.389 -23.742 -12.314  0.00  0.00    +0.186 HD
ATOM     26  H   UNL     1      41.480 -26.567 -15.330  0.00  0.00    +0.197 HD
ENDBRANCH  16  19
ENDBRANCH   4  16
TORSDOF 2
ENDMDL
MODEL 3
REMARK VINA RESULT:     -11.3      4.300      5.797
REMARK  Name = 6102777
REMARK  2 active torsions:
REMARK  status: ('A' for Active; 'I' for Inactive)
REMARK    1  A    between atoms: C_4  and  S_16
REMARK    2  A    between atoms: S_16  and  N_19
REMARK                            x       y       z     vdW  Elec       q    Type
REMARK                         _______ _______ _______ _____ _____    ______ ____
ROOT
ATOM      1  O   UNL     1      33.313 -22.980 -15.975  0.00  0.00    -0.453 OA
ATOM      2  O   UNL     1      31.907 -25.352 -12.951  0.00  0.00    -0.286 OA
ATOM      3  C   UNL     1      33.750 -24.285 -13.957  0.00  0.00    +0.075 A 
ATOM      4  C   UNL     1      36.018 -24.392 -13.138  0.00  0.00    +0.126 C 
ATOM      5  C   UNL     1      34.161 -23.472 -15.013  0.00  0.00    +0.148 A 
ATOM      6  C   UNL     1      34.674 -24.747 -13.016  0.00  0.00    +0.026 C 
ATOM      7  C   UNL     1      31.435 -24.104 -14.892  0.00  0.00    +0.074 A 
ATOM      8  C   UNL     1      32.327 -24.642 -13.853  0.00  0.00    +0.201 A 
ATOM      9  C   UNL     1      31.981 -23.303 -15.894  0.00  0.00    +0.148 A 
ATOM     10  C   UNL     1      36.434 -23.581 -14.194  0.00  0.00    +0.023 C 
ATOM     11  C   UNL     1      35.508 -23.121 -15.131  0.00  0.00    +0.039 C 
ATOM     12  C   UNL     1      30.068 -24.389 -14.877  0.00  0.00    +0.006 C 
ATOM     13  C   UNL     1      31.153 -22.781 -16.890  0.00  0.00    +0.038 C 
ATOM     14  C   UNL     1      29.245 -23.865 -15.875  0.00  0.00    +0.000 C 
ATOM     15  C   UNL     1      29.786 -23.063 -16.879  0.00  0.00    +0.003 C 
ENDROOT
BRANCH   4  16
ATOM     16  S   UNL     1      37.181 -24.965 -11.968  0.00  0.00    +0.081 S 
ATOM     17  O   UNL     1      37.019 -24.185 -10.748  0.00  0.00    -0.149 OA
ATOM     18  O   UNL     1      37.085 -26.418 -11.909  0.00  0.00    -0.149 OA
BRANCH  16  19
ATOM     19  N   UNL     1      38.652 -24.531 -12.719  0.00  0.00    -0.156 N 
ATOM     20  N   UNL     1      40.494 -24.932 -14.214  0.00  0.00    -0.094 NA
ATOM     21  N   UNL     1      38.902 -26.536 -14.066  0.00  0.00    -0.071 NA
ATOM     22  N   UNL     1      40.718 -25.999 -14.995  0.00  0.00    -0.139 N 
ATOM     23  N   UNL     1      39.801 -26.974 -14.938  0.00  0.00    -0.020 NA
ATOM     24  C   UNL     1      39.352 -25.321 -13.661  0.00  0.00    +0.145 C 
ATOM     25  H   UNL     1      39.044 -23.661 -12.476  0.00  0.00    +0.186 HD
ATOM     26  H   UNL     1      41.511 -26.062 -15.575  0.00  0.00    +0.197 HD
ENDBRANCH  16  19
ENDBRANCH   4  16
TORSDOF 2
ENDMDL
MODEL 4
REMARK VINA RESULT:     -11.3      1.005      2.263
REMARK  Name = 6102777
REMARK  2 active torsions:
REMARK  status: ('A' for Active; 'I' for Inactive)
REMARK    1  A    between atoms: C_4  and  S_16
REMARK    2  A    between atoms: S_16  and  N_19
REMARK                            x       y       z     vdW  Elec       q    Type
REMARK                         _______ _______ _______ _____ _____    ______ ____
ROOT
ATOM      1  O   UNL     1      33.192 -21.618 -19.499  0.00  0.00    -0.453 OA
ATOM      2  O   UNL     1      37.157 -21.797 -18.502  0.00  0.00    -0.286 OA
ATOM      3  C   UNL     1      34.941 -22.407 -17.988  0.00  0.00    +0.075 A 
ATOM      4  C   UNL     1      34.288 -23.744 -16.088  0.00  0.00    +0.126 C 
ATOM      5  C   UNL     1      33.608 -22.305 -18.385  0.00  0.00    +0.148 A 
ATOM      6  C   UNL     1      35.287 -23.125 -16.840  0.00  0.00    +0.026 C 
ATOM      7  C   UNL     1      35.507 -21.015 -19.990  0.00  0.00    +0.074 A 
ATOM      8  C   UNL     1      35.973 -21.745 -18.800  0.00  0.00    +0.201 A 
ATOM      9  C   UNL     1      34.141 -20.994 -20.271  0.00  0.00    +0.148 A 
ATOM     10  C   UNL     1      32.953 -23.644 -16.480  0.00  0.00    +0.023 C 
ATOM     11  C   UNL     1      32.613 -22.926 -17.627  0.00  0.00    +0.039 C 
ATOM     12  C   UNL     1      36.414 -20.355 -20.823  0.00  0.00    +0.006 C 
ATOM     13  C   UNL     1      33.677 -20.307 -21.394  0.00  0.00    +0.038 C 
ATOM     14  C   UNL     1      35.943 -19.670 -21.944  0.00  0.00    +0.000 C 
ATOM     15  C   UNL     1      34.579 -19.646 -22.230  0.00  0.00    +0.003 C 
ENDROOT
BRANCH   4  16
ATOM     16  S   UNL     1      34.709 -24.643 -14.651  0.00  0.00    +0.081 S 
ATOM     17  O   UNL     1      33.504 -24.805 -13.848  0.00  0.00    -0.149 OA
ATOM     18  O   UNL     1      35.463 -25.821 -15.060  0.00  0.00    -0.149 OA
BRANCH  16  19
ATOM     19  N   UNL     1      35.760 -23.550 -13.867  0.00  0.00    -0.156 N 
ATOM     20  N   UNL     1      37.108 -22.833 -12.007  0.00  0.00    -0.094 NA
ATOM     21  N   UNL     1      36.006 -24.802 -11.802  0.00  0.00    -0.071 NA
ATOM     22  N   UNL     1      37.306 -23.451 -10.834  0.00  0.00    -0.139 N 
ATOM     23  N   UNL     1      36.671 -24.620 -10.668  0.00  0.00    -0.020 NA
ATOM     24  C   UNL     1      36.293 -23.719 -12.567  0.00  0.00    +0.145 C 
ATOM     25  H   UNL     1      36.016 -22.735 -14.360  0.00  0.00    +0.186 HD
ATOM     26  H   UNL     1      37.883 -23.068 -10.134  0.00  0.00    +0.197 HD
ENDBRANCH  16  19
ENDBRANCH   4  16
TORSDOF 2
ENDMDL
MODEL 5
REMARK VINA RESULT:     -11.1      2.320      2.812
REMARK  Name = 6102777
REMARK  2 active torsions:
REMARK  status: ('A' for Active; 'I' for Inactive)
REMARK    1  A    between atoms: C_4  and  S_16
REMARK    2  A    between atoms: S_16  and  N_19
REMARK                            x       y       z     vdW  Elec       q    Type
REMARK                         _______ _______ _______ _____ _____    ______ ____
ROOT
ATOM      1  O   UNL     1      36.836 -21.050 -19.125  0.00  0.00    -0.453 OA
ATOM      2  O   UNL     1      33.230 -22.749 -18.200  0.00  0.00    -0.286 OA
ATOM      3  C   UNL     1      35.497 -22.447 -17.636  0.00  0.00    +0.075 A 
ATOM      4  C   UNL     1      36.575 -23.416 -15.706  0.00  0.00    +0.126 C 
ATOM      5  C   UNL     1      36.695 -21.839 -18.010  0.00  0.00    +0.148 A 
ATOM      6  C   UNL     1      35.431 -23.237 -16.485  0.00  0.00    +0.026 C 
ATOM      7  C   UNL     1      34.479 -21.392 -19.665  0.00  0.00    +0.074 A 
ATOM      8  C   UNL     1      34.307 -22.241 -18.475  0.00  0.00    +0.201 A 
ATOM      9  C   UNL     1      35.736 -20.845 -19.921  0.00  0.00    +0.148 A 
ATOM     10  C   UNL     1      37.776 -22.810 -16.077  0.00  0.00    +0.023 C 
ATOM     11  C   UNL     1      37.836 -22.022 -17.227  0.00  0.00    +0.039 C 
ATOM     12  C   UNL     1      33.406 -21.138 -20.522  0.00  0.00    +0.006 C 
ATOM     13  C   UNL     1      35.923 -20.037 -21.044  0.00  0.00    +0.038 C 
ATOM     14  C   UNL     1      33.598 -20.330 -21.643  0.00  0.00    +0.000 C 
ATOM     15  C   UNL     1      34.853 -19.780 -21.904  0.00  0.00    +0.003 C 
ENDROOT
BRANCH   4  16
ATOM     16  S   UNL     1      36.504 -24.401 -14.266  0.00  0.00    +0.081 S 
ATOM     17  O   UNL     1      37.191 -23.690 -13.195  0.00  0.00    -0.149 OA
ATOM     18  O   UNL     1      35.124 -24.825 -14.075  0.00  0.00    -0.149 OA
BRANCH  16  19
ATOM     19  N   UNL     1      37.444 -25.747 -14.735  0.00  0.00    -0.156 N 
ATOM     20  N   UNL     1      39.528 -26.925 -14.978  0.00  0.00    -0.094 NA
ATOM     21  N   UNL     1      39.599 -24.856 -14.059  0.00  0.00    -0.071 NA
ATOM     22  N   UNL     1      40.760 -26.520 -14.636  0.00  0.00    -0.139 N 
ATOM     23  N   UNL     1      40.849 -25.300 -14.089  0.00  0.00    -0.020 NA
ATOM     24  C   UNL     1      38.848 -25.851 -14.595  0.00  0.00    +0.145 C 
ATOM     25  H   UNL     1      36.970 -26.513 -15.135  0.00  0.00    +0.186 HD
ATOM     26  H   UNL     1      41.553 -27.086 -14.780  0.00  0.00    +0.197 HD
ENDBRANCH  16  19
ENDBRANCH   4  16
TORSDOF 2
ENDMDL
MODEL 6
REMARK VINA RESULT:     -11.1      3.948      6.080
REMARK  Name = 6102777
REMARK  2 active torsions:
REMARK  status: ('A' for Active; 'I' for Inactive)
REMARK    1  A    between atoms: C_4  and  S_16
REMARK    2  A    between atoms: S_16  and  N_19
REMARK                            x       y       z     vdW  Elec       q    Type
REMARK                         _______ _______ _______ _____ _____    ______ ____
ROOT
ATOM      1  O   UNL     1      32.046 -23.281 -17.153  0.00  0.00    -0.453 OA
ATOM      2  O   UNL     1      32.917 -24.950 -13.519  0.00  0.00    -0.286 OA
ATOM      3  C   UNL     1      33.705 -23.879 -15.463  0.00  0.00    +0.075 A 
ATOM      4  C   UNL     1      36.017 -23.340 -15.895  0.00  0.00    +0.126 C 
ATOM      5  C   UNL     1      33.338 -23.327 -16.690  0.00  0.00    +0.148 A 
ATOM      6  C   UNL     1      35.043 -23.888 -15.060  0.00  0.00    +0.026 C 
ATOM      7  C   UNL     1      31.279 -24.391 -15.117  0.00  0.00    +0.074 A 
ATOM      8  C   UNL     1      32.657 -24.451 -14.604  0.00  0.00    +0.201 A 
ATOM      9  C   UNL     1      31.054 -23.809 -16.364  0.00  0.00    +0.148 A 
ATOM     10  C   UNL     1      35.656 -22.786 -17.123  0.00  0.00    +0.023 C 
ATOM     11  C   UNL     1      34.318 -22.779 -17.521  0.00  0.00    +0.039 C 
ATOM     12  C   UNL     1      30.217 -24.908 -14.372  0.00  0.00    +0.006 C 
ATOM     13  C   UNL     1      29.754 -23.742 -16.871  0.00  0.00    +0.038 C 
ATOM     14  C   UNL     1      28.920 -24.838 -14.884  0.00  0.00    +0.000 C 
ATOM     15  C   UNL     1      28.689 -24.257 -16.130  0.00  0.00    +0.003 C 
ENDROOT
BRANCH   4  16
ATOM     16  S   UNL     1      37.692 -23.346 -15.401  0.00  0.00    +0.081 S 
ATOM     17  O   UNL     1      38.482 -22.741 -16.467  0.00  0.00    -0.149 OA
ATOM     18  O   UNL     1      37.769 -22.800 -14.053  0.00  0.00    -0.149 OA
BRANCH  16  19
ATOM     19  N   UNL     1      38.019 -25.021 -15.347  0.00  0.00    -0.156 N 
ATOM     20  N   UNL     1      39.461 -26.912 -14.981  0.00  0.00    -0.094 NA
ATOM     21  N   UNL     1      40.348 -24.849 -14.685  0.00  0.00    -0.071 NA
ATOM     22  N   UNL     1      40.752 -26.919 -14.616  0.00  0.00    -0.139 N 
ATOM     23  N   UNL     1      41.318 -25.718 -14.431  0.00  0.00    -0.020 NA
ATOM     24  C   UNL     1      39.265 -25.599 -15.008  0.00  0.00    +0.145 C 
ATOM     25  H   UNL     1      37.280 -25.634 -15.569  0.00  0.00    +0.186 HD
ATOM     26  H   UNL     1      41.253 -27.757 -14.492  0.00  0.00    +0.197 HD
ENDBRANCH  16  19
ENDBRANCH   4  16
TORSDOF 2
ENDMDL
MODEL 7
REMARK VINA RESULT:     -11.0      2.309      2.807
REMARK  Name = 6102777
REMARK  2 active torsions:
REMARK  status: ('A' for Active; 'I' for Inactive)
REMARK    1  A    between atoms: C_4  and  S_16
REMARK    2  A    between atoms: S_16  and  N_19
REMARK                            x       y       z     vdW  Elec       q    Type
REMARK                         _______ _______ _______ _____ _____    ______ ____
ROOT
ATOM      1  O   UNL     1      37.232 -20.430 -19.481  0.00  0.00    -0.453 OA
ATOM      2  O   UNL     1      33.434 -21.842 -20.055  0.00  0.00    -0.286 OA
ATOM      3  C   UNL     1      35.372 -21.815 -18.716  0.00  0.00    +0.075 A 
ATOM      4  C   UNL     1      35.641 -23.051 -16.661  0.00  0.00    +0.126 C 
ATOM      5  C   UNL     1      36.660 -21.296 -18.583  0.00  0.00    +0.148 A 
ATOM      6  C   UNL     1      34.858 -22.692 -17.759  0.00  0.00    +0.026 C 
ATOM      7  C   UNL     1      35.199 -20.490 -20.833  0.00  0.00    +0.074 A 
ATOM      8  C   UNL     1      34.568 -21.419 -19.883  0.00  0.00    +0.201 A 
ATOM      9  C   UNL     1      36.497 -20.049 -20.577  0.00  0.00    +0.148 A 
ATOM     10  C   UNL     1      36.930 -22.535 -16.524  0.00  0.00    +0.023 C 
ATOM     11  C   UNL     1      37.440 -21.659 -17.483  0.00  0.00    +0.039 C 
ATOM     12  C   UNL     1      34.513 -20.058 -21.971  0.00  0.00    +0.006 C 
ATOM     13  C   UNL     1      37.115 -19.167 -21.465  0.00  0.00    +0.038 C 
ATOM     14  C   UNL     1      35.137 -19.176 -22.855  0.00  0.00    +0.000 C 
ATOM     15  C   UNL     1      36.434 -18.732 -22.604  0.00  0.00    +0.003 C 
ENDROOT
BRANCH   4  16
ATOM     16  S   UNL     1      35.009 -24.147 -15.458  0.00  0.00    +0.081 S 
ATOM     17  O   UNL     1      35.433 -25.497 -15.807  0.00  0.00    -0.149 OA
ATOM     18  O   UNL     1      35.331 -23.611 -14.143  0.00  0.00    -0.149 OA
BRANCH  16  19
ATOM     19  N   UNL     1      33.329 -24.004 -15.725  0.00  0.00    -0.156 N 
ATOM     20  N   UNL     1      31.026 -24.279 -15.083  0.00  0.00    -0.094 NA
ATOM     21  N   UNL     1      32.609 -24.982 -13.623  0.00  0.00    -0.071 NA
ATOM     22  N   UNL     1      30.532 -24.803 -13.952  0.00  0.00    -0.139 N 
ATOM     23  N   UNL     1      31.434 -25.234 -13.059  0.00  0.00    -0.020 NA
ATOM     24  C   UNL     1      32.320 -24.416 -14.822  0.00  0.00    +0.145 C 
ATOM     25  H   UNL     1      33.038 -23.601 -16.576  0.00  0.00    +0.186 HD
ATOM     26  H   UNL     1      29.564 -24.868 -13.787  0.00  0.00    +0.197 HD
ENDBRANCH  16  19
ENDBRANCH   4  16
TORSDOF 2
ENDMDL
MODEL 8
REMARK VINA RESULT:     -11.0      5.622      7.998
REMARK  Name = 6102777
REMARK  2 active torsions:
REMARK  status: ('A' for Active; 'I' for Inactive)
REMARK    1  A    between atoms: C_4  and  S_16
REMARK    2  A    between atoms: S_16  and  N_19
REMARK                            x       y       z     vdW  Elec       q    Type
REMARK                         _______ _______ _______ _____ _____    ______ ____
ROOT
ATOM      1  O   UNL     1      35.387 -23.610 -16.418  0.00  0.00    -0.453 OA
ATOM      2  O   UNL     1      33.958 -24.613 -12.717  0.00  0.00    -0.286 OA
ATOM      3  C   UNL     1      33.488 -23.887 -14.908  0.00  0.00    +0.075 A 
ATOM      4  C   UNL     1      31.280 -23.401 -15.752  0.00  0.00    +0.126 C 
ATOM      5  C   UNL     1      34.043 -23.559 -16.145  0.00  0.00    +0.148 A 
ATOM      6  C   UNL     1      32.108 -23.810 -14.706  0.00  0.00    +0.026 C 
ATOM      7  C   UNL     1      35.821 -24.364 -14.136  0.00  0.00    +0.074 A 
ATOM      8  C   UNL     1      34.385 -24.314 -13.823  0.00  0.00    +0.201 A 
ATOM      9  C   UNL     1      36.240 -24.008 -15.418  0.00  0.00    +0.148 A 
ATOM     10  C   UNL     1      31.830 -23.071 -16.991  0.00  0.00    +0.023 C 
ATOM     11  C   UNL     1      33.209 -23.150 -17.188  0.00  0.00    +0.039 C 
ATOM     12  C   UNL     1      36.750 -24.758 -13.170  0.00  0.00    +0.006 C 
ATOM     13  C   UNL     1      37.599 -24.047 -15.737  0.00  0.00    +0.038 C 
ATOM     14  C   UNL     1      38.106 -24.795 -13.495  0.00  0.00    +0.000 C 
ATOM     15  C   UNL     1      38.530 -24.441 -14.775  0.00  0.00    +0.003 C 
ENDROOT
BRANCH   4  16
ATOM     16  S   UNL     1      29.554 -23.301 -15.511  0.00  0.00    +0.081 S 
ATOM     17  O   UNL     1      29.100 -24.566 -14.947  0.00  0.00    -0.149 OA
ATOM     18  O   UNL     1      29.266 -22.058 -14.808  0.00  0.00    -0.149 OA
BRANCH  16  19
ATOM     19  N   UNL     1      28.998 -23.176 -17.120  0.00  0.00    -0.156 N 
ATOM     20  N   UNL     1      27.381 -22.540 -18.785  0.00  0.00    -0.094 NA
ATOM     21  N   UNL     1      26.878 -22.103 -16.620  0.00  0.00    -0.071 NA
ATOM     22  N   UNL     1      26.191 -21.946 -18.609  0.00  0.00    -0.139 N 
ATOM     23  N   UNL     1      25.852 -21.670 -17.342  0.00  0.00    -0.020 NA
ATOM     24  C   UNL     1      27.762 -22.612 -17.515  0.00  0.00    +0.145 C 
ATOM     25  H   UNL     1      29.584 -23.524 -17.831  0.00  0.00    +0.186 HD
ATOM     26  H   UNL     1      25.602 -21.727 -19.366  0.00  0.00    +0.197 HD
ENDBRANCH  16  19
ENDBRANCH   4  16
TORSDOF 2
ENDMDL
MODEL 9
REMARK VINA RESULT:     -10.9      5.049      7.373
REMARK  Name = 6102777
REMARK  2 active torsions:
REMARK  status: ('A' for Active; 'I' for Inactive)
REMARK    1  A    between atoms: C_4  and  S_16
REMARK    2  A    between atoms: S_16  and  N_19
REMARK                            x       y       z     vdW  Elec       q    Type
REMARK                         _______ _______ _______ _____ _____    ______ ____
ROOT
ATOM      1  O   UNL     1      36.907 -24.033 -15.993  0.00  0.00    -0.453 OA
ATOM      2  O   UNL     1      36.087 -25.637 -12.319  0.00  0.00    -0.286 OA
ATOM      3  C   UNL     1      35.274 -24.589 -14.265  0.00  0.00    +0.075 A 
ATOM      4  C   UNL     1      32.959 -24.033 -14.663  0.00  0.00    +0.126 C 
ATOM      5  C   UNL     1      35.624 -24.058 -15.506  0.00  0.00    +0.148 A 
ATOM      6  C   UNL     1      33.943 -24.579 -13.839  0.00  0.00    +0.026 C 
ATOM      7  C   UNL     1      37.700 -25.123 -13.956  0.00  0.00    +0.074 A 
ATOM      8  C   UNL     1      36.332 -25.159 -13.417  0.00  0.00    +0.201 A 
ATOM      9  C   UNL     1      37.909 -24.560 -15.215  0.00  0.00    +0.148 A 
ATOM     10  C   UNL     1      33.304 -23.500 -15.905  0.00  0.00    +0.023 C 
ATOM     11  C   UNL     1      34.634 -23.512 -16.327  0.00  0.00    +0.039 C 
ATOM     12  C   UNL     1      38.770 -25.640 -13.223  0.00  0.00    +0.006 C 
ATOM     13  C   UNL     1      39.199 -24.515 -15.747  0.00  0.00    +0.038 C 
ATOM     14  C   UNL     1      40.058 -25.592 -13.760  0.00  0.00    +0.000 C 
ATOM     15  C   UNL     1      40.272 -25.031 -15.018  0.00  0.00    +0.003 C 
ENDROOT
BRANCH   4  16
ATOM     16  S   UNL     1      31.293 -24.015 -14.140  0.00  0.00    +0.081 S 
ATOM     17  O   UNL     1      30.729 -25.338 -14.375  0.00  0.00    -0.149 OA
ATOM     18  O   UNL     1      31.246 -23.442 -12.802  0.00  0.00    -0.149 OA
BRANCH  16  19
ATOM     19  N   UNL     1      30.607 -22.910 -15.247  0.00  0.00    -0.156 N 
ATOM     20  N   UNL     1      29.113 -22.322 -17.039  0.00  0.00    -0.094 NA
ATOM     21  N   UNL     1      29.097 -24.473 -16.330  0.00  0.00    -0.071 NA
ATOM     22  N   UNL     1      28.248 -23.108 -17.696  0.00  0.00    -0.139 N 
ATOM     23  N   UNL     1      28.206 -24.391 -17.309  0.00  0.00    -0.020 NA
ATOM     24  C   UNL     1      29.612 -23.224 -16.202  0.00  0.00    +0.145 C 
ATOM     25  H   UNL     1      30.929 -21.980 -15.217  0.00  0.00    +0.186 HD
ATOM     26  H   UNL     1      27.677 -22.763 -18.420  0.00  0.00    +0.197 HD
ENDBRANCH  16  19
ENDBRANCH   4  16
TORSDOF 2
ENDMDL
