MODEL 1
REMARK VINA RESULT:     -11.8      0.000      0.000
REMARK  Name = 23658582
REMARK  4 active torsions:
REMARK  status: ('A' for Active; 'I' for Inactive)
REMARK    1  A    between atoms: N_3  and  C_13
REMARK    2  A    between atoms: C_8  and  C_25
REMARK    3  A    between atoms: C_15  and  C_22
REMARK    4  A    between atoms: N_24  and  C_29
REMARK                            x       y       z     vdW  Elec       q    Type
REMARK                         _______ _______ _______ _____ _____    ______ ____
ROOT
ATOM      1 CL   UNL     1      33.434 -24.770 -14.640  0.00  0.00    -0.082 Cl
ATOM      2  O   UNL     1      36.855 -22.307 -17.643  0.00  0.00    -0.352 OA
ATOM      3  N   UNL     1      34.921 -21.029 -20.254  0.00  0.00    -0.295 N 
ATOM      4  N   UNL     1      36.764 -21.588 -18.829  0.00  0.00    -0.062 NA
ATOM      5  C   UNL     1      34.692 -22.327 -18.225  0.00  0.00    +0.072 A 
ATOM      6  C   UNL     1      35.617 -22.746 -17.285  0.00  0.00    +0.183 A 
ATOM      7  C   UNL     1      35.469 -21.613 -19.157  0.00  0.00    +0.174 A 
ATOM      8  C   UNL     1      35.304 -23.500 -16.157  0.00  0.00    +0.101 C 
ATOM      9  C   UNL     1      33.343 -22.670 -18.053  0.00  0.00    +0.007 C 
ATOM     10  C   UNL     1      33.955 -23.835 -16.000  0.00  0.00    +0.065 C 
ATOM     11  C   UNL     1      32.991 -23.430 -16.929  0.00  0.00    +0.012 C 
ATOM     12  H   UNL     1      33.965 -21.230 -20.375  0.00  0.00    +0.154 HD
ENDROOT
BRANCH   3  13
ATOM     13  C   UNL     1      35.462 -20.183 -21.262  0.00  0.00    +0.049 C 
ATOM     14  C   UNL     1      34.825 -20.076 -22.498  0.00  0.00    +0.018 C 
ATOM     15  C   UNL     1      35.356 -19.247 -23.487  0.00  0.00    +0.073 C 
ATOM     16  C   UNL     1      36.629 -19.460 -21.014  0.00  0.00    +0.015 C 
ATOM     17  C   UNL     1      36.523 -18.525 -23.239  0.00  0.00    +0.004 C 
ATOM     18  C   UNL     1      37.160 -18.632 -22.002  0.00  0.00    +0.001 C 
BRANCH  15  22
ATOM     19  F   UNL     1      33.313 -19.128 -24.726  0.00  0.00    -0.166 F 
ATOM     20  F   UNL     1      34.994 -17.992 -25.491  0.00  0.00    -0.166 F 
ATOM     21  F   UNL     1      34.988 -20.161 -25.650  0.00  0.00    -0.166 F 
ATOM     22  C   UNL     1      34.676 -19.133 -24.809  0.00  0.00    +0.419 C 
ENDBRANCH  15  22
ENDBRANCH   3  13
BRANCH   8  25
ATOM     23  O   UNL     1      36.278 -23.575 -14.029  0.00  0.00    -0.270 OA
ATOM     24  N   UNL     1      37.404 -24.616 -15.787  0.00  0.00    -0.278 N 
ATOM     25  C   UNL     1      36.343 -23.897 -15.222  0.00  0.00    +0.253 C 
ATOM     26  H   UNL     1      37.329 -24.806 -16.750  0.00  0.00    +0.155 HD
BRANCH  24  29
ATOM     27  N   UNL     1      40.970 -25.185 -14.971  0.00  0.00    -0.221 NA
ATOM     28  N   UNL     1      39.605 -26.466 -13.455  0.00  0.00    -0.221 NA
ATOM     29  C   UNL     1      38.571 -25.106 -15.149  0.00  0.00    +0.089 C 
ATOM     30  C   UNL     1      39.839 -24.739 -15.554  0.00  0.00    +0.117 C 
ATOM     31  C   UNL     1      38.515 -25.981 -14.085  0.00  0.00    +0.117 C 
ATOM     32  C   UNL     1      40.783 -26.033 -13.943  0.00  0.00    +0.199 C 
ENDBRANCH  24  29
ENDBRANCH   8  25
TORSDOF 4
ENDMDL
MODEL 2
REMARK VINA RESULT:     -11.8      6.685      9.529
REMARK  Name = 23658582
REMARK  4 active torsions:
REMARK  status: ('A' for Active; 'I' for Inactive)
REMARK    1  A    between atoms: N_3  and  C_13
REMARK    2  A    between atoms: C_8  and  C_25
REMARK    3  A    between atoms: C_15  and  C_22
REMARK    4  A    between atoms: N_24  and  C_29
REMARK                            x       y       z     vdW  Elec       q    Type
REMARK                         _______ _______ _______ _____ _____    ______ ____
ROOT
ATOM      1 CL   UNL     1      35.097 -19.812 -24.747  0.00  0.00    -0.082 Cl
ATOM      2  O   UNL     1      35.020 -15.361 -22.108  0.00  0.00    -0.352 OA
ATOM      3  N   UNL     1      34.452 -12.936 -24.556  0.00  0.00    -0.295 N 
ATOM      4  N   UNL     1      34.842 -14.027 -22.458  0.00  0.00    -0.062 NA
ATOM      5  C   UNL     1      34.716 -15.330 -24.327  0.00  0.00    +0.072 A 
ATOM      6  C   UNL     1      34.943 -16.135 -23.224  0.00  0.00    +0.183 A 
ATOM      7  C   UNL     1      34.664 -14.032 -23.783  0.00  0.00    +0.174 A 
ATOM      8  C   UNL     1      35.072 -17.521 -23.277  0.00  0.00    +0.101 C 
ATOM      9  C   UNL     1      34.603 -15.924 -25.593  0.00  0.00    +0.007 C 
ATOM     10  C   UNL     1      34.957 -18.099 -24.546  0.00  0.00    +0.065 C 
ATOM     11  C   UNL     1      34.727 -17.318 -25.683  0.00  0.00    +0.012 C 
ATOM     12  H   UNL     1      34.432 -13.128 -25.521  0.00  0.00    +0.154 HD
ENDROOT
BRANCH   3  13
ATOM     13  C   UNL     1      34.254 -11.563 -24.239  0.00  0.00    +0.049 C 
ATOM     14  C   UNL     1      33.121 -11.167 -23.530  0.00  0.00    +0.018 C 
ATOM     15  C   UNL     1      32.927  -9.821 -23.219  0.00  0.00    +0.073 C 
ATOM     16  C   UNL     1      35.194 -10.613 -24.638  0.00  0.00    +0.015 C 
ATOM     17  C   UNL     1      33.867  -8.871 -23.618  0.00  0.00    +0.004 C 
ATOM     18  C   UNL     1      35.001  -9.268 -24.328  0.00  0.00    +0.001 C 
BRANCH  15  22
ATOM     19  F   UNL     1      30.776 -10.380 -22.334  0.00  0.00    -0.166 F 
ATOM     20  F   UNL     1      31.981  -8.993 -21.184  0.00  0.00    -0.166 F 
ATOM     21  F   UNL     1      31.069  -8.348 -23.049  0.00  0.00    -0.166 F 
ATOM     22  C   UNL     1      31.715  -9.397 -22.461  0.00  0.00    +0.419 C 
ENDBRANCH  15  22
ENDBRANCH   3  13
BRANCH   8  25
ATOM     23  O   UNL     1      36.172 -17.932 -21.251  0.00  0.00    -0.270 OA
ATOM     24  N   UNL     1      34.530 -19.442 -21.933  0.00  0.00    -0.278 N 
ATOM     25  C   UNL     1      35.310 -18.287 -22.066  0.00  0.00    +0.253 C 
ATOM     26  H   UNL     1      33.880 -19.607 -22.654  0.00  0.00    +0.155 HD
BRANCH  24  29
ATOM     27  N   UNL     1      35.797 -21.845 -19.416  0.00  0.00    -0.221 NA
ATOM     28  N   UNL     1      33.391 -21.795 -19.310  0.00  0.00    -0.221 NA
ATOM     29  C   UNL     1      34.555 -20.405 -20.892  0.00  0.00    +0.089 C 
ATOM     30  C   UNL     1      35.736 -20.928 -20.405  0.00  0.00    +0.117 C 
ATOM     31  C   UNL     1      33.403 -20.880 -20.302  0.00  0.00    +0.117 C 
ATOM     32  C   UNL     1      34.605 -22.228 -18.922  0.00  0.00    +0.199 C 
ENDBRANCH  24  29
ENDBRANCH   8  25
TORSDOF 4
ENDMDL
MODEL 3
REMARK VINA RESULT:     -11.7      7.478     12.166
REMARK  Name = 23658582
REMARK  4 active torsions:
REMARK  status: ('A' for Active; 'I' for Inactive)
REMARK    1  A    between atoms: N_3  and  C_13
REMARK    2  A    between atoms: C_8  and  C_25
REMARK    3  A    between atoms: C_15  and  C_22
REMARK    4  A    between atoms: N_24  and  C_29
REMARK                            x       y       z     vdW  Elec       q    Type
REMARK                         _______ _______ _______ _____ _____    ______ ____
ROOT
ATOM      1 CL   UNL     1      33.338 -12.671 -27.253  0.00  0.00    -0.082 Cl
ATOM      2  O   UNL     1      34.702 -14.531 -22.620  0.00  0.00    -0.352 OA
ATOM      3  N   UNL     1      35.164 -17.946 -23.183  0.00  0.00    -0.295 N 
ATOM      4  N   UNL     1      35.029 -15.794 -22.139  0.00  0.00    -0.062 NA
ATOM      5  C   UNL     1      34.550 -15.927 -24.365  0.00  0.00    +0.072 A 
ATOM      6  C   UNL     1      34.418 -14.614 -23.948  0.00  0.00    +0.183 A 
ATOM      7  C   UNL     1      34.931 -16.609 -23.193  0.00  0.00    +0.174 A 
ATOM      8  C   UNL     1      34.049 -13.559 -24.780  0.00  0.00    +0.101 C 
ATOM      9  C   UNL     1      34.301 -16.243 -25.709  0.00  0.00    +0.007 C 
ATOM     10  C   UNL     1      33.804 -13.890 -26.116  0.00  0.00    +0.065 C 
ATOM     11  C   UNL     1      33.927 -15.206 -26.574  0.00  0.00    +0.012 C 
ATOM     12  H   UNL     1      34.954 -18.393 -24.035  0.00  0.00    +0.154 HD
ENDROOT
BRANCH   3  13
ATOM     13  C   UNL     1      35.652 -18.827 -22.177  0.00  0.00    +0.049 C 
ATOM     14  C   UNL     1      34.775 -19.693 -21.524  0.00  0.00    +0.018 C 
ATOM     15  C   UNL     1      35.254 -20.557 -20.538  0.00  0.00    +0.073 C 
ATOM     16  C   UNL     1      37.007 -18.826 -21.847  0.00  0.00    +0.015 C 
ATOM     17  C   UNL     1      36.608 -20.555 -20.207  0.00  0.00    +0.004 C 
ATOM     18  C   UNL     1      37.485 -19.689 -20.862  0.00  0.00    +0.001 C 
BRANCH  15  22
ATOM     19  F   UNL     1      33.131 -20.900 -19.489  0.00  0.00    -0.166 F 
ATOM     20  F   UNL     1      33.972 -22.576 -20.579  0.00  0.00    -0.166 F 
ATOM     21  F   UNL     1      34.837 -21.975 -18.676  0.00  0.00    -0.166 F 
ATOM     22  C   UNL     1      34.317 -21.481 -19.837  0.00  0.00    +0.419 C 
ENDBRANCH  15  22
ENDBRANCH   3  13
BRANCH   8  25
ATOM     23  O   UNL     1      34.687 -11.310 -24.649  0.00  0.00    -0.270 OA
ATOM     24  N   UNL     1      32.956 -12.041 -23.266  0.00  0.00    -0.278 N 
ATOM     25  C   UNL     1      33.935 -12.210 -24.254  0.00  0.00    +0.253 C 
ATOM     26  H   UNL     1      32.426 -12.840 -23.046  0.00  0.00    +0.155 HD
BRANCH  24  29
ATOM     27  N   UNL     1      31.970  -9.798 -20.489  0.00  0.00    -0.221 NA
ATOM     28  N   UNL     1      32.342  -8.477 -22.469  0.00  0.00    -0.221 NA
ATOM     29  C   UNL     1      32.632 -10.865 -22.542  0.00  0.00    +0.089 C 
ATOM     30  C   UNL     1      32.284 -10.896 -21.208  0.00  0.00    +0.117 C 
ATOM     31  C   UNL     1      32.644  -9.616 -23.127  0.00  0.00    +0.117 C 
ATOM     32  C   UNL     1      32.018  -8.639 -21.172  0.00  0.00    +0.199 C 
ENDBRANCH  24  29
ENDBRANCH   8  25
TORSDOF 4
ENDMDL
MODEL 4
REMARK VINA RESULT:     -11.4      6.845      9.654
REMARK  Name = 23658582
REMARK  4 active torsions:
REMARK  status: ('A' for Active; 'I' for Inactive)
REMARK    1  A    between atoms: N_3  and  C_13
REMARK    2  A    between atoms: C_8  and  C_25
REMARK    3  A    between atoms: C_15  and  C_22
REMARK    4  A    between atoms: N_24  and  C_29
REMARK                            x       y       z     vdW  Elec       q    Type
REMARK                         _______ _______ _______ _____ _____    ______ ____
ROOT
ATOM      1 CL   UNL     1      35.660 -19.488 -24.731  0.00  0.00    -0.082 Cl
ATOM      2  O   UNL     1      34.717 -15.429 -21.662  0.00  0.00    -0.352 OA
ATOM      3  N   UNL     1      33.927 -12.855 -23.885  0.00  0.00    -0.295 N 
ATOM      4  N   UNL     1      34.353 -14.106 -21.887  0.00  0.00    -0.062 NA
ATOM      5  C   UNL     1      34.551 -15.192 -23.884  0.00  0.00    +0.072 A 
ATOM      6  C   UNL     1      34.833 -16.074 -22.855  0.00  0.00    +0.183 A 
ATOM      7  C   UNL     1      34.261 -13.987 -23.215  0.00  0.00    +0.174 A 
ATOM      8  C   UNL     1      35.182 -17.410 -23.040  0.00  0.00    +0.101 C 
ATOM      9  C   UNL     1      34.612 -15.649 -25.208  0.00  0.00    +0.007 C 
ATOM     10  C   UNL     1      35.239 -17.850 -24.366  0.00  0.00    +0.065 C 
ATOM     11  C   UNL     1      34.960 -16.988 -25.431  0.00  0.00    +0.012 C 
ATOM     12  H   UNL     1      33.998 -12.937 -24.864  0.00  0.00    +0.154 HD
ENDROOT
BRANCH   3  13
ATOM     13  C   UNL     1      33.495 -11.572 -23.446  0.00  0.00    +0.049 C 
ATOM     14  C   UNL     1      34.171 -10.427 -23.867  0.00  0.00    +0.018 C 
ATOM     15  C   UNL     1      33.747  -9.169 -23.437  0.00  0.00    +0.073 C 
ATOM     16  C   UNL     1      32.395 -11.459 -22.596  0.00  0.00    +0.015 C 
ATOM     17  C   UNL     1      32.648  -9.056 -22.587  0.00  0.00    +0.004 C 
ATOM     18  C   UNL     1      31.971 -10.203 -22.166  0.00  0.00    +0.001 C 
BRANCH  15  22
ATOM     19  F   UNL     1      35.407  -8.183 -24.850  0.00  0.00    -0.166 F 
ATOM     20  F   UNL     1      33.652  -6.988 -24.414  0.00  0.00    -0.166 F 
ATOM     21  F   UNL     1      35.142  -7.330 -22.868  0.00  0.00    -0.166 F 
ATOM     22  C   UNL     1      34.471  -7.944 -23.885  0.00  0.00    +0.419 C 
ENDBRANCH  15  22
ENDBRANCH   3  13
BRANCH   8  25
ATOM     23  O   UNL     1      36.416 -18.023 -21.146  0.00  0.00    -0.270 OA
ATOM     24  N   UNL     1      34.609 -19.365 -21.760  0.00  0.00    -0.278 N 
ATOM     25  C   UNL     1      35.463 -18.264 -21.898  0.00  0.00    +0.253 C 
ATOM     26  H   UNL     1      33.890 -19.438 -22.427  0.00  0.00    +0.155 HD
BRANCH  24  29
ATOM     27  N   UNL     1      33.503 -21.888 -19.285  0.00  0.00    -0.221 NA
ATOM     28  N   UNL     1      35.909 -21.901 -19.395  0.00  0.00    -0.221 NA
ATOM     29  C   UNL     1      34.649 -20.390 -20.780  0.00  0.00    +0.089 C 
ATOM     30  C   UNL     1      33.502 -20.914 -20.218  0.00  0.00    +0.117 C 
ATOM     31  C   UNL     1      35.836 -20.926 -20.325  0.00  0.00    +0.117 C 
ATOM     32  C   UNL     1      34.722 -22.329 -18.924  0.00  0.00    +0.199 C 
ENDBRANCH  24  29
ENDBRANCH   8  25
TORSDOF 4
ENDMDL
MODEL 5
REMARK VINA RESULT:     -11.3      3.881      5.520
REMARK  Name = 23658582
REMARK  4 active torsions:
REMARK  status: ('A' for Active; 'I' for Inactive)
REMARK    1  A    between atoms: N_3  and  C_13
REMARK    2  A    between atoms: C_8  and  C_25
REMARK    3  A    between atoms: C_15  and  C_22
REMARK    4  A    between atoms: N_24  and  C_29
REMARK                            x       y       z     vdW  Elec       q    Type
REMARK                         _______ _______ _______ _____ _____    ______ ____
ROOT
ATOM      1 CL   UNL     1      36.192 -23.750 -16.027  0.00  0.00    -0.082 Cl
ATOM      2  O   UNL     1      33.440 -21.724 -19.913  0.00  0.00    -0.352 OA
ATOM      3  N   UNL     1      35.676 -19.558 -21.493  0.00  0.00    -0.295 N 
ATOM      4  N   UNL     1      33.712 -20.806 -20.920  0.00  0.00    -0.062 NA
ATOM      5  C   UNL     1      35.572 -21.099 -19.631  0.00  0.00    +0.072 A 
ATOM      6  C   UNL     1      34.551 -21.898 -19.147  0.00  0.00    +0.183 A 
ATOM      7  C   UNL     1      34.986 -20.446 -20.733  0.00  0.00    +0.174 A 
ATOM      8  C   UNL     1      34.668 -22.739 -18.043  0.00  0.00    +0.101 C 
ATOM      9  C   UNL     1      36.817 -21.119 -18.986  0.00  0.00    +0.007 C 
ATOM     10  C   UNL     1      35.916 -22.748 -17.410  0.00  0.00    +0.065 C 
ATOM     11  C   UNL     1      36.971 -21.954 -17.870  0.00  0.00    +0.012 C 
ATOM     12  H   UNL     1      36.575 -19.353 -21.148  0.00  0.00    +0.154 HD
ENDROOT
BRANCH   3  13
ATOM     13  C   UNL     1      35.350 -18.865 -22.693  0.00  0.00    +0.049 C 
ATOM     14  C   UNL     1      35.270 -17.473 -22.693  0.00  0.00    +0.018 C 
ATOM     15  C   UNL     1      34.950 -16.793 -23.869  0.00  0.00    +0.073 C 
ATOM     16  C   UNL     1      35.113 -19.578 -23.868  0.00  0.00    +0.015 C 
ATOM     17  C   UNL     1      34.712 -17.506 -25.044  0.00  0.00    +0.004 C 
ATOM     18  C   UNL     1      34.794 -18.899 -25.043  0.00  0.00    +0.001 C 
BRANCH  15  22
ATOM     19  F   UNL     1      33.606 -14.830 -24.117  0.00  0.00    -0.166 F 
ATOM     20  F   UNL     1      35.231 -14.734 -22.686  0.00  0.00    -0.166 F 
ATOM     21  F   UNL     1      35.662 -14.732 -24.817  0.00  0.00    -0.166 F 
ATOM     22  C   UNL     1      34.862 -15.304 -23.871  0.00  0.00    +0.419 C 
ENDBRANCH  15  22
ENDBRANCH   3  13
BRANCH   8  25
ATOM     23  O   UNL     1      33.501 -24.758 -17.835  0.00  0.00    -0.270 OA
ATOM     24  N   UNL     1      32.523 -22.831 -16.955  0.00  0.00    -0.278 N 
ATOM     25  C   UNL     1      33.541 -23.543 -17.604  0.00  0.00    +0.253 C 
ATOM     26  H   UNL     1      32.683 -21.867 -16.835  0.00  0.00    +0.155 HD
BRANCH  24  29
ATOM     27  N   UNL     1      28.886 -23.305 -16.447  0.00  0.00    -0.221 NA
ATOM     28  N   UNL     1      30.083 -24.780 -14.965  0.00  0.00    -0.221 NA
ATOM     29  C   UNL     1      31.293 -23.322 -16.449  0.00  0.00    +0.089 C 
ATOM     30  C   UNL     1      30.075 -22.861 -16.905  0.00  0.00    +0.117 C 
ATOM     31  C   UNL     1      31.236 -24.291 -15.469  0.00  0.00    +0.117 C 
ATOM     32  C   UNL     1      28.963 -24.250 -15.492  0.00  0.00    +0.199 C 
ENDBRANCH  24  29
ENDBRANCH   8  25
TORSDOF 4
ENDMDL
MODEL 6
REMARK VINA RESULT:     -11.1     11.235     14.442
REMARK  Name = 23658582
REMARK  4 active torsions:
REMARK  status: ('A' for Active; 'I' for Inactive)
REMARK    1  A    between atoms: N_3  and  C_13
REMARK    2  A    between atoms: C_8  and  C_25
REMARK    3  A    between atoms: C_15  and  C_22
REMARK    4  A    between atoms: N_24  and  C_29
REMARK                            x       y       z     vdW  Elec       q    Type
REMARK                         _______ _______ _______ _____ _____    ______ ____
ROOT
ATOM      1 CL   UNL     1      32.187 -13.170 -18.907  0.00  0.00    -0.082 Cl
ATOM      2  O   UNL     1      32.425 -10.380 -23.260  0.00  0.00    -0.352 OA
ATOM      3  N   UNL     1      31.984  -7.089 -22.179  0.00  0.00    -0.295 N 
ATOM      4  N   UNL     1      32.329  -9.024 -23.550  0.00  0.00    -0.062 NA
ATOM      5  C   UNL     1      32.098  -9.341 -21.302  0.00  0.00    +0.072 A 
ATOM      6  C   UNL     1      32.288 -10.566 -21.918  0.00  0.00    +0.183 A 
ATOM      7  C   UNL     1      32.134  -8.425 -22.371  0.00  0.00    +0.174 A 
ATOM      8  C   UNL     1      32.326 -11.785 -21.246  0.00  0.00    +0.101 C 
ATOM      9  C   UNL     1      31.932  -9.297 -19.910  0.00  0.00    +0.007 C 
ATOM     10  C   UNL     1      32.159 -11.725 -19.859  0.00  0.00    +0.065 C 
ATOM     11  C   UNL     1      31.965 -10.506 -19.202  0.00  0.00    +0.012 C 
ATOM     12  H   UNL     1      31.761  -6.843 -21.252  0.00  0.00    +0.154 HD
ENDROOT
BRANCH   3  13
ATOM     13  C   UNL     1      32.086  -5.975 -23.060  0.00  0.00    +0.049 C 
ATOM     14  C   UNL     1      33.084  -5.946 -24.034  0.00  0.00    +0.018 C 
ATOM     15  C   UNL     1      33.183  -4.855 -24.897  0.00  0.00    +0.073 C 
ATOM     16  C   UNL     1      31.187  -4.915 -22.950  0.00  0.00    +0.015 C 
ATOM     17  C   UNL     1      32.285  -3.794 -24.787  0.00  0.00    +0.004 C 
ATOM     18  C   UNL     1      31.286  -3.824 -23.812  0.00  0.00    +0.001 C 
BRANCH  15  22
ATOM     19  F   UNL     1      34.557  -3.562 -26.368  0.00  0.00    -0.166 F 
ATOM     20  F   UNL     1      35.438  -5.353 -25.521  0.00  0.00    -0.166 F 
ATOM     21  F   UNL     1      33.912  -5.519 -27.061  0.00  0.00    -0.166 F 
ATOM     22  C   UNL     1      34.251  -4.821 -25.938  0.00  0.00    +0.419 C 
ENDBRANCH  15  22
ENDBRANCH   3  13
BRANCH   8  25
ATOM     23  O   UNL     1      31.930 -14.057 -21.653  0.00  0.00    -0.270 OA
ATOM     24  N   UNL     1      33.465 -12.950 -23.018  0.00  0.00    -0.278 N 
ATOM     25  C   UNL     1      32.530 -13.024 -21.977  0.00  0.00    +0.253 C 
ATOM     26  H   UNL     1      33.869 -12.066 -23.170  0.00  0.00    +0.155 HD
BRANCH  24  29
ATOM     27  N   UNL     1      35.307 -15.897 -24.295  0.00  0.00    -0.221 NA
ATOM     28  N   UNL     1      33.787 -15.125 -25.997  0.00  0.00    -0.221 NA
ATOM     29  C   UNL     1      33.903 -13.987 -23.880  0.00  0.00    +0.089 C 
ATOM     30  C   UNL     1      34.867 -14.899 -23.502  0.00  0.00    +0.117 C 
ATOM     31  C   UNL     1      33.394 -14.150 -25.152  0.00  0.00    +0.117 C 
ATOM     32  C   UNL     1      34.734 -15.951 -25.512  0.00  0.00    +0.199 C 
ENDBRANCH  24  29
ENDBRANCH   8  25
TORSDOF 4
ENDMDL
MODEL 7
REMARK VINA RESULT:     -10.9      1.975      2.345
REMARK  Name = 23658582
REMARK  4 active torsions:
REMARK  status: ('A' for Active; 'I' for Inactive)
REMARK    1  A    between atoms: N_3  and  C_13
REMARK    2  A    between atoms: C_8  and  C_25
REMARK    3  A    between atoms: C_15  and  C_22
REMARK    4  A    between atoms: N_24  and  C_29
REMARK                            x       y       z     vdW  Elec       q    Type
REMARK                         _______ _______ _______ _____ _____    ______ ____
ROOT
ATOM      1 CL   UNL     1      32.483 -24.681 -15.158  0.00  0.00    -0.082 Cl
ATOM      2  O   UNL     1      36.318 -22.403 -17.783  0.00  0.00    -0.352 OA
ATOM      3  N   UNL     1      34.707 -20.884 -20.483  0.00  0.00    -0.295 N 
ATOM      4  N   UNL     1      36.379 -21.639 -18.943  0.00  0.00    -0.062 NA
ATOM      5  C   UNL     1      34.214 -22.227 -18.532  0.00  0.00    +0.072 A 
ATOM      6  C   UNL     1      35.025 -22.751 -17.541  0.00  0.00    +0.183 A 
ATOM      7  C   UNL     1      35.118 -21.547 -19.372  0.00  0.00    +0.174 A 
ATOM      8  C   UNL     1      34.563 -23.516 -16.472  0.00  0.00    +0.101 C 
ATOM      9  C   UNL     1      32.833 -22.466 -18.481  0.00  0.00    +0.007 C 
ATOM     10  C   UNL     1      33.184 -23.746 -16.434  0.00  0.00    +0.065 C 
ATOM     11  C   UNL     1      32.333 -23.233 -17.418  0.00  0.00    +0.012 C 
ATOM     12  H   UNL     1      33.751 -21.003 -20.687  0.00  0.00    +0.154 HD
ENDROOT
BRANCH   3  13
ATOM     13  C   UNL     1      35.392 -20.051 -21.412  0.00  0.00    +0.049 C 
ATOM     14  C   UNL     1      34.816 -19.765 -22.649  0.00  0.00    +0.018 C 
ATOM     15  C   UNL     1      35.488 -18.948 -23.559  0.00  0.00    +0.073 C 
ATOM     16  C   UNL     1      36.640 -19.520 -21.084  0.00  0.00    +0.015 C 
ATOM     17  C   UNL     1      36.735 -18.418 -23.232  0.00  0.00    +0.004 C 
ATOM     18  C   UNL     1      37.311 -18.704 -21.993  0.00  0.00    +0.001 C 
BRANCH  15  22
ATOM     19  F   UNL     1      35.070 -19.621 -25.817  0.00  0.00    -0.166 F 
ATOM     20  F   UNL     1      33.520 -18.469 -24.831  0.00  0.00    -0.166 F 
ATOM     21  F   UNL     1      35.368 -17.500 -25.441  0.00  0.00    -0.166 F 
ATOM     22  C   UNL     1      34.874 -18.643 -24.883  0.00  0.00    +0.419 C 
ENDBRANCH  15  22
ENDBRANCH   3  13
BRANCH   8  25
ATOM     23  O   UNL     1      36.306 -24.910 -15.764  0.00  0.00    -0.270 OA
ATOM     24  N   UNL     1      35.346 -23.474 -14.197  0.00  0.00    -0.278 N 
ATOM     25  C   UNL     1      35.489 -24.027 -15.476  0.00  0.00    +0.253 C 
ATOM     26  H   UNL     1      34.657 -22.777 -14.105  0.00  0.00    +0.155 HD
BRANCH  24  29
ATOM     27  N   UNL     1      36.240 -24.985 -10.937  0.00  0.00    -0.221 NA
ATOM     28  N   UNL     1      38.019 -23.518 -11.634  0.00  0.00    -0.221 NA
ATOM     29  C   UNL     1      36.069 -23.788 -13.018  0.00  0.00    +0.089 C 
ATOM     30  C   UNL     1      35.580 -24.663 -12.068  0.00  0.00    +0.117 C 
ATOM     31  C   UNL     1      37.305 -23.240 -12.745  0.00  0.00    +0.117 C 
ATOM     32  C   UNL     1      37.435 -24.385 -10.785  0.00  0.00    +0.199 C 
ENDBRANCH  24  29
ENDBRANCH   8  25
TORSDOF 4
ENDMDL
MODEL 8
REMARK VINA RESULT:     -10.3      5.354      9.773
REMARK  Name = 23658582
REMARK  4 active torsions:
REMARK  status: ('A' for Active; 'I' for Inactive)
REMARK    1  A    between atoms: N_3  and  C_13
REMARK    2  A    between atoms: C_8  and  C_25
REMARK    3  A    between atoms: C_15  and  C_22
REMARK    4  A    between atoms: N_24  and  C_29
REMARK                            x       y       z     vdW  Elec       q    Type
REMARK                         _______ _______ _______ _____ _____    ______ ____
ROOT
ATOM      1 CL   UNL     1      37.788 -19.386 -21.858  0.00  0.00    -0.082 Cl
ATOM      2  O   UNL     1      33.148 -21.036 -20.264  0.00  0.00    -0.352 OA
ATOM      3  N   UNL     1      33.858 -22.935 -17.421  0.00  0.00    -0.295 N 
ATOM      4  N   UNL     1      32.709 -21.824 -19.207  0.00  0.00    -0.062 NA
ATOM      5  C   UNL     1      34.980 -21.623 -19.116  0.00  0.00    +0.072 A 
ATOM      6  C   UNL     1      34.503 -20.918 -20.207  0.00  0.00    +0.183 A 
ATOM      7  C   UNL     1      33.815 -22.163 -18.537  0.00  0.00    +0.174 A 
ATOM      8  C   UNL     1      35.307 -20.206 -21.094  0.00  0.00    +0.101 C 
ATOM      9  C   UNL     1      36.360 -21.638 -18.865  0.00  0.00    +0.007 C 
ATOM     10  C   UNL     1      36.680 -20.231 -20.831  0.00  0.00    +0.065 C 
ATOM     11  C   UNL     1      37.199 -20.933 -19.738  0.00  0.00    +0.012 C 
ATOM     12  H   UNL     1      34.771 -23.150 -17.121  0.00  0.00    +0.154 HD
ENDROOT
BRANCH   3  13
ATOM     13  C   UNL     1      32.837 -23.495 -16.603  0.00  0.00    +0.049 C 
ATOM     14  C   UNL     1      31.497 -23.334 -16.951  0.00  0.00    +0.018 C 
ATOM     15  C   UNL     1      30.497 -23.884 -16.149  0.00  0.00    +0.073 C 
ATOM     16  C   UNL     1      33.178 -24.208 -15.453  0.00  0.00    +0.015 C 
ATOM     17  C   UNL     1      30.837 -24.595 -14.999  0.00  0.00    +0.004 C 
ATOM     18  C   UNL     1      32.179 -24.757 -14.651  0.00  0.00    +0.001 C 
BRANCH  15  22
ATOM     19  F   UNL     1      28.559 -24.742 -17.258  0.00  0.00    -0.166 F 
ATOM     20  F   UNL     1      28.228 -23.604 -15.443  0.00  0.00    -0.166 F 
ATOM     21  F   UNL     1      28.845 -22.587 -17.263  0.00  0.00    -0.166 F 
ATOM     22  C   UNL     1      29.063 -23.710 -16.519  0.00  0.00    +0.419 C 
ENDBRANCH  15  22
ENDBRANCH   3  13
BRANCH   8  25
ATOM     23  O   UNL     1      33.692 -19.914 -22.765  0.00  0.00    -0.270 OA
ATOM     24  N   UNL     1      35.418 -18.351 -22.623  0.00  0.00    -0.278 N 
ATOM     25  C   UNL     1      34.718 -19.494 -22.215  0.00  0.00    +0.253 C 
ATOM     26  H   UNL     1      36.219 -18.128 -22.097  0.00  0.00    +0.155 HD
BRANCH  24  29
ATOM     27  N   UNL     1      34.592 -17.131 -26.021  0.00  0.00    -0.221 NA
ATOM     28  N   UNL     1      34.769 -15.245 -24.532  0.00  0.00    -0.221 NA
ATOM     29  C   UNL     1      35.119 -17.475 -23.698  0.00  0.00    +0.089 C 
ATOM     30  C   UNL     1      34.879 -17.935 -24.976  0.00  0.00    +0.117 C 
ATOM     31  C   UNL     1      35.051 -16.107 -23.533  0.00  0.00    +0.117 C 
ATOM     32  C   UNL     1      34.554 -15.817 -25.732  0.00  0.00    +0.199 C 
ENDBRANCH  24  29
ENDBRANCH   8  25
TORSDOF 4
ENDMDL
MODEL 9
REMARK VINA RESULT:     -10.3      5.997     10.439
REMARK  Name = 23658582
REMARK  4 active torsions:
REMARK  status: ('A' for Active; 'I' for Inactive)
REMARK    1  A    between atoms: N_3  and  C_13
REMARK    2  A    between atoms: C_8  and  C_25
REMARK    3  A    between atoms: C_15  and  C_22
REMARK    4  A    between atoms: N_24  and  C_29
REMARK                            x       y       z     vdW  Elec       q    Type
REMARK                         _______ _______ _______ _____ _____    ______ ____
ROOT
ATOM      1 CL   UNL     1      37.925 -18.675 -22.888  0.00  0.00    -0.082 Cl
ATOM      2  O   UNL     1      33.345 -20.363 -21.168  0.00  0.00    -0.352 OA
ATOM      3  N   UNL     1      34.141 -22.185 -18.297  0.00  0.00    -0.295 N 
ATOM      4  N   UNL     1      32.940 -21.134 -20.085  0.00  0.00    -0.062 NA
ATOM      5  C   UNL     1      35.208 -20.894 -20.043  0.00  0.00    +0.072 A 
ATOM      6  C   UNL     1      34.699 -20.221 -21.140  0.00  0.00    +0.183 A 
ATOM      7  C   UNL     1      34.063 -21.439 -19.429  0.00  0.00    +0.174 A 
ATOM      8  C   UNL     1      35.474 -19.517 -22.058  0.00  0.00    +0.101 C 
ATOM      9  C   UNL     1      36.593 -20.881 -19.818  0.00  0.00    +0.007 C 
ATOM     10  C   UNL     1      36.852 -19.513 -21.821  0.00  0.00    +0.065 C 
ATOM     11  C   UNL     1      37.403 -20.182 -20.723  0.00  0.00    +0.012 C 
ATOM     12  H   UNL     1      35.062 -22.378 -18.010  0.00  0.00    +0.154 HD
ENDROOT
BRANCH   3  13
ATOM     13  C   UNL     1      33.145 -22.743 -17.446  0.00  0.00    +0.049 C 
ATOM     14  C   UNL     1      33.520 -23.417 -16.284  0.00  0.00    +0.018 C 
ATOM     15  C   UNL     1      32.544 -23.963 -15.450  0.00  0.00    +0.073 C 
ATOM     16  C   UNL     1      31.796 -22.614 -17.774  0.00  0.00    +0.015 C 
ATOM     17  C   UNL     1      31.195 -23.835 -15.778  0.00  0.00    +0.004 C 
ATOM     18  C   UNL     1      30.821 -23.160 -16.941  0.00  0.00    +0.001 C 
BRANCH  15  22
ATOM     19  F   UNL     1      33.047 -23.876 -13.113  0.00  0.00    -0.166 F 
ATOM     20  F   UNL     1      32.068 -25.668 -13.841  0.00  0.00    -0.166 F 
ATOM     21  F   UNL     1      34.156 -25.300 -14.325  0.00  0.00    -0.166 F 
ATOM     22  C   UNL     1      32.943 -24.686 -14.208  0.00  0.00    +0.419 C 
ENDBRANCH  15  22
ENDBRANCH   3  13
BRANCH   8  25
ATOM     23  O   UNL     1      34.169 -19.468 -24.002  0.00  0.00    -0.270 OA
ATOM     24  N   UNL     1      35.121 -17.468 -23.271  0.00  0.00    -0.278 N 
ATOM     25  C   UNL     1      34.851 -18.840 -23.183  0.00  0.00    +0.253 C 
ATOM     26  H   UNL     1      35.678 -17.094 -22.551  0.00  0.00    +0.155 HD
BRANCH  24  29
ATOM     27  N   UNL     1      34.026 -14.326 -24.894  0.00  0.00    -0.221 NA
ATOM     28  N   UNL     1      34.104 -16.076 -26.547  0.00  0.00    -0.221 NA
ATOM     29  C   UNL     1      34.693 -16.550 -24.263  0.00  0.00    +0.089 C 
ATOM     30  C   UNL     1      34.434 -15.226 -23.975  0.00  0.00    +0.117 C 
ATOM     31  C   UNL     1      34.509 -16.923 -25.578  0.00  0.00    +0.117 C 
ATOM     32  C   UNL     1      33.883 -14.811 -26.141  0.00  0.00    +0.199 C 
ENDBRANCH  24  29
ENDBRANCH   8  25
TORSDOF 4
ENDMDL
