MODEL 1
REMARK VINA RESULT:     -11.8      0.000      0.000
REMARK  Name = 71360
REMARK  8 active torsions:
REMARK  status: ('A' for Active; 'I' for Inactive)
REMARK    1  A    between atoms: N_1  and  C_18
REMARK    2  A    between atoms: C_2  and  C_11
REMARK    3  A    between atoms: C_18  and  C_19
REMARK    4  A    between atoms: C_19  and  C_20
REMARK    5  A    between atoms: C_20  and  O_21
REMARK    6  A    between atoms: O_21  and  C_22
REMARK    7  A    between atoms: C_23  and  O_31
REMARK    8  A    between atoms: C_27  and  C_29
REMARK                            x       y       z     vdW  Elec       q    Type
REMARK                         _______ _______ _______ _____ _____    ______ ____
ROOT
ATOM      1  N   UNL     1      35.976 -19.641 -21.006  0.00  0.00    +0.387 N 
ATOM      2  C   UNL     1      35.516 -18.442 -23.644  0.00  0.00    +0.039 C 
ATOM      3  C   UNL     1      36.517 -17.857 -22.635  0.00  0.00    -0.017 C 
ATOM      4  C   UNL     1      34.434 -19.242 -22.901  0.00  0.00    -0.017 C 
ATOM      5  C   UNL     1      37.064 -18.942 -21.703  0.00  0.00    -0.077 C 
ATOM      6  C   UNL     1      35.056 -20.277 -21.961  0.00  0.00    -0.077 C 
ATOM      7  H   UNL     1      35.447 -18.949 -20.474  0.00  0.00    -0.080 HD
ENDROOT
BRANCH   2  11
ATOM      8  F   UNL     1      33.699 -12.060 -24.737  0.00  0.00    -0.204 F 
ATOM      9  O   UNL     1      34.076 -16.570 -26.366  0.00  0.00    -0.354 OA
ATOM     10  N   UNL     1      34.552 -17.741 -25.791  0.00  0.00    -0.081 NA
ATOM     11  C   UNL     1      34.936 -17.392 -24.566  0.00  0.00    +0.100 A 
ATOM     12  C   UNL     1      34.739 -16.030 -24.295  0.00  0.00    +0.054 A 
ATOM     13  C   UNL     1      34.188 -15.549 -25.471  0.00  0.00    +0.179 A 
ATOM     14  C   UNL     1      34.945 -15.144 -23.227  0.00  0.00    +0.007 C 
ATOM     15  C   UNL     1      33.819 -14.224 -25.680  0.00  0.00    +0.070 C 
ATOM     16  C   UNL     1      34.584 -13.800 -23.403  0.00  0.00    +0.030 C 
ATOM     17  C   UNL     1      34.031 -13.351 -24.607  0.00  0.00    +0.143 C 
ENDBRANCH   2  11
BRANCH   1  18
ATOM     18  C   UNL     1      36.517 -20.634 -20.079  0.00  0.00    -0.074 C 
BRANCH  18  19
ATOM     19  C   UNL     1      35.749 -21.945 -20.201  0.00  0.00    +0.025 C 
BRANCH  19  20
ATOM     20  C   UNL     1      34.653 -22.052 -19.150  0.00  0.00    +0.203 C 
BRANCH  20  21
ATOM     21  O   UNL     1      35.120 -22.860 -18.079  0.00  0.00    -0.472 OA
BRANCH  21  22
ATOM     22  C   UNL     1      34.193 -23.248 -17.147  0.00  0.00    +0.172 C 
ATOM     23  C   UNL     1      34.588 -23.965 -16.023  0.00  0.00    +0.172 C 
ATOM     24  C   UNL     1      32.856 -22.918 -17.342  0.00  0.00    +0.040 C 
ATOM     25  C   UNL     1      33.635 -24.355 -15.081  0.00  0.00    +0.043 C 
ATOM     26  C   UNL     1      31.903 -23.307 -16.400  0.00  0.00    +0.006 C 
ATOM     27  C   UNL     1      32.293 -24.027 -15.271  0.00  0.00    +0.038 C 
BRANCH  27  29
ATOM     28  O   UNL     1      31.420 -24.142 -13.081  0.00  0.00    -0.291 OA
ATOM     29  C   UNL     1      31.299 -24.433 -14.289  0.00  0.00    +0.174 C 
ATOM     30  C   UNL     1      30.074 -25.231 -14.720  0.00  0.00    +0.077 C 
ENDBRANCH  27  29
BRANCH  23  31
ATOM     31  O   UNL     1      35.896 -24.292 -15.827  0.00  0.00    -0.468 OA
ATOM     32  C   UNL     1      36.165 -25.546 -15.204  0.00  0.00    +0.253 C 
ENDBRANCH  23  31
ENDBRANCH  21  22
ENDBRANCH  20  21
ENDBRANCH  19  20
ENDBRANCH  18  19
ENDBRANCH   1  18
TORSDOF 8
ENDMDL
MODEL 2
REMARK VINA RESULT:     -11.8      4.066     11.117
REMARK  Name = 71360
REMARK  8 active torsions:
REMARK  status: ('A' for Active; 'I' for Inactive)
REMARK    1  A    between atoms: N_1  and  C_18
REMARK    2  A    between atoms: C_2  and  C_11
REMARK    3  A    between atoms: C_18  and  C_19
REMARK    4  A    between atoms: C_19  and  C_20
REMARK    5  A    between atoms: C_20  and  O_21
REMARK    6  A    between atoms: O_21  and  C_22
REMARK    7  A    between atoms: C_23  and  O_31
REMARK    8  A    between atoms: C_27  and  C_29
REMARK                            x       y       z     vdW  Elec       q    Type
REMARK                         _______ _______ _______ _____ _____    ______ ____
ROOT
ATOM      1  N   UNL     1      35.391 -17.007 -24.741  0.00  0.00    +0.387 N 
ATOM      2  C   UNL     1      35.104 -18.672 -22.343  0.00  0.00    +0.039 C 
ATOM      3  C   UNL     1      35.847 -17.327 -22.329  0.00  0.00    -0.017 C 
ATOM      4  C   UNL     1      35.123 -19.264 -23.761  0.00  0.00    -0.017 C 
ATOM      5  C   UNL     1      35.312 -16.386 -23.412  0.00  0.00    -0.077 C 
ATOM      6  C   UNL     1      34.613 -18.254 -24.792  0.00  0.00    -0.077 C 
ATOM      7  H   UNL     1      36.368 -17.239 -24.923  0.00  0.00    -0.080 HD
ENDROOT
BRANCH   2  11
ATOM      8  F   UNL     1      33.922 -23.522 -17.836  0.00  0.00    -0.204 F 
ATOM      9  O   UNL     1      37.071 -20.637 -20.050  0.00  0.00    -0.354 OA
ATOM     10  N   UNL     1      36.927 -19.662 -21.029  0.00  0.00    -0.081 NA
ATOM     11  C   UNL     1      35.625 -19.637 -21.300  0.00  0.00    +0.100 A 
ATOM     12  C   UNL     1      34.887 -20.558 -20.543  0.00  0.00    +0.054 A 
ATOM     13  C   UNL     1      35.851 -21.171 -19.761  0.00  0.00    +0.179 A 
ATOM     14  C   UNL     1      33.548 -20.956 -20.409  0.00  0.00    +0.007 C 
ATOM     15  C   UNL     1      35.589 -22.174 -18.834  0.00  0.00    +0.070 C 
ATOM     16  C   UNL     1      33.247 -21.965 -19.483  0.00  0.00    +0.030 C 
ATOM     17  C   UNL     1      34.249 -22.561 -18.711  0.00  0.00    +0.143 C 
ENDBRANCH   2  11
BRANCH   1  18
ATOM     18  C   UNL     1      34.930 -16.075 -25.770  0.00  0.00    -0.074 C 
BRANCH  18  19
ATOM     19  C   UNL     1      33.668 -15.357 -25.305  0.00  0.00    +0.025 C 
BRANCH  19  20
ATOM     20  C   UNL     1      33.774 -13.852 -25.507  0.00  0.00    +0.203 C 
BRANCH  20  21
ATOM     21  O   UNL     1      34.383 -13.276 -24.360  0.00  0.00    -0.472 OA
BRANCH  21  22
ATOM     22  C   UNL     1      33.806 -12.139 -23.858  0.00  0.00    +0.172 C 
ATOM     23  C   UNL     1      32.821 -12.227 -22.880  0.00  0.00    +0.172 C 
ATOM     24  C   UNL     1      34.216 -10.901 -24.340  0.00  0.00    +0.040 C 
ATOM     25  C   UNL     1      32.241 -11.062 -22.377  0.00  0.00    +0.043 C 
ATOM     26  C   UNL     1      33.636  -9.736 -23.837  0.00  0.00    +0.006 C 
ATOM     27  C   UNL     1      32.648  -9.816 -22.856  0.00  0.00    +0.038 C 
BRANCH  27  29
ATOM     28  O   UNL     1      31.271  -7.908 -23.023  0.00  0.00    -0.291 OA
ATOM     29  C   UNL     1      32.044  -8.602 -22.331  0.00  0.00    +0.174 C 
ATOM     30  C   UNL     1      32.345  -8.147 -20.908  0.00  0.00    +0.077 C 
ENDBRANCH  27  29
BRANCH  23  31
ATOM     31  O   UNL     1      32.416 -13.437 -22.403  0.00  0.00    -0.468 OA
ATOM     32  C   UNL     1      32.781 -13.761 -21.064  0.00  0.00    +0.253 C 
ENDBRANCH  23  31
ENDBRANCH  21  22
ENDBRANCH  20  21
ENDBRANCH  19  20
ENDBRANCH  18  19
ENDBRANCH   1  18
TORSDOF 8
ENDMDL
MODEL 3
REMARK VINA RESULT:     -11.6      4.085     10.456
REMARK  Name = 71360
REMARK  8 active torsions:
REMARK  status: ('A' for Active; 'I' for Inactive)
REMARK    1  A    between atoms: N_1  and  C_18
REMARK    2  A    between atoms: C_2  and  C_11
REMARK    3  A    between atoms: C_18  and  C_19
REMARK    4  A    between atoms: C_19  and  C_20
REMARK    5  A    between atoms: C_20  and  O_21
REMARK    6  A    between atoms: O_21  and  C_22
REMARK    7  A    between atoms: C_23  and  O_31
REMARK    8  A    between atoms: C_27  and  C_29
REMARK                            x       y       z     vdW  Elec       q    Type
REMARK                         _______ _______ _______ _____ _____    ______ ____
ROOT
ATOM      1  N   UNL     1      35.382 -16.952 -24.829  0.00  0.00    +0.387 N 
ATOM      2  C   UNL     1      35.097 -18.579 -22.404  0.00  0.00    +0.039 C 
ATOM      3  C   UNL     1      35.848 -17.238 -22.415  0.00  0.00    -0.017 C 
ATOM      4  C   UNL     1      35.105 -19.192 -23.814  0.00  0.00    -0.017 C 
ATOM      5  C   UNL     1      35.314 -16.310 -23.509  0.00  0.00    -0.077 C 
ATOM      6  C   UNL     1      34.597 -18.194 -24.857  0.00  0.00    -0.077 C 
ATOM      7  H   UNL     1      36.357 -17.192 -25.012  0.00  0.00    -0.080 HD
ENDROOT
BRANCH   2  11
ATOM      8  F   UNL     1      33.937 -23.491 -17.960  0.00  0.00    -0.204 F 
ATOM      9  O   UNL     1      37.055 -20.489 -20.058  0.00  0.00    -0.354 OA
ATOM     10  N   UNL     1      36.909 -19.514 -21.037  0.00  0.00    -0.081 NA
ATOM     11  C   UNL     1      35.616 -19.531 -21.350  0.00  0.00    +0.100 A 
ATOM     12  C   UNL     1      34.887 -20.481 -20.621  0.00  0.00    +0.054 A 
ATOM     13  C   UNL     1      35.846 -21.064 -19.811  0.00  0.00    +0.179 A 
ATOM     14  C   UNL     1      33.559 -20.925 -20.532  0.00  0.00    +0.007 C 
ATOM     15  C   UNL     1      35.588 -22.081 -18.897  0.00  0.00    +0.070 C 
ATOM     16  C   UNL     1      33.262 -21.949 -19.620  0.00  0.00    +0.030 C 
ATOM     17  C   UNL     1      34.260 -22.515 -18.819  0.00  0.00    +0.143 C 
ENDBRANCH   2  11
BRANCH   1  18
ATOM     18  C   UNL     1      34.921 -16.032 -25.869  0.00  0.00    -0.074 C 
BRANCH  18  19
ATOM     19  C   UNL     1      33.619 -15.363 -25.445  0.00  0.00    +0.025 C 
BRANCH  19  20
ATOM     20  C   UNL     1      33.715 -13.846 -25.535  0.00  0.00    +0.203 C 
BRANCH  20  21
ATOM     21  O   UNL     1      34.392 -13.359 -24.385  0.00  0.00    -0.472 OA
BRANCH  21  22
ATOM     22  C   UNL     1      33.611 -12.911 -23.351  0.00  0.00    +0.172 C 
ATOM     23  C   UNL     1      33.220 -11.577 -23.297  0.00  0.00    +0.172 C 
ATOM     24  C   UNL     1      33.218 -13.804 -22.361  0.00  0.00    +0.040 C 
ATOM     25  C   UNL     1      32.425 -11.132 -22.240  0.00  0.00    +0.043 C 
ATOM     26  C   UNL     1      32.423 -13.360 -21.304  0.00  0.00    +0.006 C 
ATOM     27  C   UNL     1      32.027 -12.024 -21.243  0.00  0.00    +0.038 C 
BRANCH  27  29
ATOM     28  O   UNL     1      30.007 -11.234 -20.316  0.00  0.00    -0.291 OA
ATOM     29  C   UNL     1      31.198 -11.560 -20.141  0.00  0.00    +0.174 C 
ATOM     30  C   UNL     1      31.775 -11.464 -18.733  0.00  0.00    +0.077 C 
ENDBRANCH  27  29
BRANCH  23  31
ATOM     31  O   UNL     1      33.601 -10.697 -24.265  0.00  0.00    -0.468 OA
ATOM     32  C   UNL     1      33.885  -9.362 -23.851  0.00  0.00    +0.253 C 
ENDBRANCH  23  31
ENDBRANCH  21  22
ENDBRANCH  20  21
ENDBRANCH  19  20
ENDBRANCH  18  19
ENDBRANCH   1  18
TORSDOF 8
ENDMDL
MODEL 4
REMARK VINA RESULT:     -11.6      3.940     10.822
REMARK  Name = 71360
REMARK  8 active torsions:
REMARK  status: ('A' for Active; 'I' for Inactive)
REMARK    1  A    between atoms: N_1  and  C_18
REMARK    2  A    between atoms: C_2  and  C_11
REMARK    3  A    between atoms: C_18  and  C_19
REMARK    4  A    between atoms: C_19  and  C_20
REMARK    5  A    between atoms: C_20  and  O_21
REMARK    6  A    between atoms: O_21  and  C_22
REMARK    7  A    between atoms: C_23  and  O_31
REMARK    8  A    between atoms: C_27  and  C_29
REMARK                            x       y       z     vdW  Elec       q    Type
REMARK                         _______ _______ _______ _____ _____    ______ ____
ROOT
ATOM      1  N   UNL     1      34.855 -20.045 -21.041  0.00  0.00    +0.387 N 
ATOM      2  C   UNL     1      34.528 -22.266 -19.153  0.00  0.00    +0.039 C 
ATOM      3  C   UNL     1      33.380 -21.309 -19.507  0.00  0.00    -0.017 C 
ATOM      4  C   UNL     1      35.879 -21.567 -19.379  0.00  0.00    -0.017 C 
ATOM      5  C   UNL     1      33.558 -20.723 -20.911  0.00  0.00    -0.077 C 
ATOM      6  C   UNL     1      35.967 -20.973 -20.787  0.00  0.00    -0.077 C 
ATOM      7  H   UNL     1      34.896 -19.305 -20.340  0.00  0.00    -0.080 HD
ENDROOT
BRANCH   2  11
ATOM      8  F   UNL     1      30.628 -24.159 -14.011  0.00  0.00    -0.204 F 
ATOM      9  O   UNL     1      35.035 -23.691 -15.882  0.00  0.00    -0.354 OA
ATOM     10  N   UNL     1      35.494 -23.208 -17.101  0.00  0.00    -0.081 NA
ATOM     11  C   UNL     1      34.397 -22.845 -17.762  0.00  0.00    +0.100 A 
ATOM     12  C   UNL     1      33.219 -23.067 -17.035  0.00  0.00    +0.054 A 
ATOM     13  C   UNL     1      33.676 -23.605 -15.845  0.00  0.00    +0.179 A 
ATOM     14  C   UNL     1      31.839 -22.887 -17.215  0.00  0.00    +0.007 C 
ATOM     15  C   UNL     1      32.854 -23.993 -14.791  0.00  0.00    +0.070 C 
ATOM     16  C   UNL     1      30.980 -23.266 -16.173  0.00  0.00    +0.030 C 
ATOM     17  C   UNL     1      31.480 -23.809 -14.984  0.00  0.00    +0.143 C 
ENDBRANCH   2  11
BRANCH   1  18
ATOM     18  C   UNL     1      34.986 -19.442 -22.368  0.00  0.00    -0.074 C 
BRANCH  18  19
ATOM     19  C   UNL     1      35.949 -18.261 -22.320  0.00  0.00    +0.025 C 
BRANCH  19  20
ATOM     20  C   UNL     1      35.353 -17.084 -21.560  0.00  0.00    +0.203 C 
BRANCH  20  21
ATOM     21  O   UNL     1      35.319 -15.953 -22.419  0.00  0.00    -0.472 OA
BRANCH  21  22
ATOM     22  C   UNL     1      34.421 -14.965 -22.106  0.00  0.00    +0.172 C 
ATOM     23  C   UNL     1      34.013 -14.058 -23.078  0.00  0.00    +0.172 C 
ATOM     24  C   UNL     1      33.927 -14.884 -20.809  0.00  0.00    +0.040 C 
ATOM     25  C   UNL     1      33.098 -13.057 -22.748  0.00  0.00    +0.043 C 
ATOM     26  C   UNL     1      33.013 -13.883 -20.479  0.00  0.00    +0.006 C 
ATOM     27  C   UNL     1      32.599 -12.969 -21.448  0.00  0.00    +0.038 C 
BRANCH  27  29
ATOM     28  O   UNL     1      30.995 -11.324 -21.982  0.00  0.00    -0.291 OA
ATOM     29  C   UNL     1      31.645 -11.926 -21.104  0.00  0.00    +0.174 C 
ATOM     30  C   UNL     1      31.418 -11.544 -19.646  0.00  0.00    +0.077 C 
ENDBRANCH  27  29
BRANCH  23  31
ATOM     31  O   UNL     1      34.493 -14.133 -24.351  0.00  0.00    -0.468 OA
ATOM     32  C   UNL     1      33.646 -14.735 -25.328  0.00  0.00    +0.253 C 
ENDBRANCH  23  31
ENDBRANCH  21  22
ENDBRANCH  20  21
ENDBRANCH  19  20
ENDBRANCH  18  19
ENDBRANCH   1  18
TORSDOF 8
ENDMDL
MODEL 5
REMARK VINA RESULT:     -11.5      3.791     10.557
REMARK  Name = 71360
REMARK  8 active torsions:
REMARK  status: ('A' for Active; 'I' for Inactive)
REMARK    1  A    between atoms: N_1  and  C_18
REMARK    2  A    between atoms: C_2  and  C_11
REMARK    3  A    between atoms: C_18  and  C_19
REMARK    4  A    between atoms: C_19  and  C_20
REMARK    5  A    between atoms: C_20  and  O_21
REMARK    6  A    between atoms: O_21  and  C_22
REMARK    7  A    between atoms: C_23  and  O_31
REMARK    8  A    between atoms: C_27  and  C_29
REMARK                            x       y       z     vdW  Elec       q    Type
REMARK                         _______ _______ _______ _____ _____    ______ ____
ROOT
ATOM      1  N   UNL     1      35.880 -19.236 -21.244  0.00  0.00    +0.387 N 
ATOM      2  C   UNL     1      34.972 -21.675 -19.891  0.00  0.00    +0.039 C 
ATOM      3  C   UNL     1      33.994 -20.641 -20.471  0.00  0.00    -0.017 C 
ATOM      4  C   UNL     1      36.312 -20.998 -19.561  0.00  0.00    -0.017 C 
ATOM      5  C   UNL     1      34.621 -19.880 -21.643  0.00  0.00    -0.077 C 
ATOM      6  C   UNL     1      36.856 -20.226 -20.766  0.00  0.00    -0.077 C 
ATOM      7  H   UNL     1      35.677 -18.597 -20.474  0.00  0.00    -0.080 HD
ENDROOT
BRANCH   2  11
ATOM      8  F   UNL     1      35.717 -24.219 -13.710  0.00  0.00    -0.204 F 
ATOM      9  O   UNL     1      32.922 -23.502 -17.558  0.00  0.00    -0.354 OA
ATOM     10  N   UNL     1      33.138 -22.867 -18.774  0.00  0.00    -0.081 NA
ATOM     11  C   UNL     1      34.393 -22.429 -18.714  0.00  0.00    +0.100 A 
ATOM     12  C   UNL     1      35.028 -22.744 -17.504  0.00  0.00    +0.054 A 
ATOM     13  C   UNL     1      34.051 -23.429 -16.801  0.00  0.00    +0.179 A 
ATOM     14  C   UNL     1      36.284 -22.549 -16.910  0.00  0.00    +0.007 C 
ATOM     15  C   UNL     1      34.223 -23.947 -15.522  0.00  0.00    +0.070 C 
ATOM     16  C   UNL     1      36.493 -23.060 -15.620  0.00  0.00    +0.030 C 
ATOM     17  C   UNL     1      35.480 -23.745 -14.941  0.00  0.00    +0.143 C 
ENDBRANCH   2  11
BRANCH   1  18
ATOM     18  C   UNL     1      36.437 -18.467 -22.358  0.00  0.00    -0.074 C 
BRANCH  18  19
ATOM     19  C   UNL     1      35.548 -18.601 -23.589  0.00  0.00    +0.025 C 
BRANCH  19  20
ATOM     20  C   UNL     1      35.168 -17.240 -24.155  0.00  0.00    +0.203 C 
BRANCH  20  21
ATOM     21  O   UNL     1      35.719 -16.227 -23.325  0.00  0.00    -0.472 OA
BRANCH  21  22
ATOM     22  C   UNL     1      34.846 -15.302 -22.814  0.00  0.00    +0.172 C 
ATOM     23  C   UNL     1      34.239 -14.374 -23.653  0.00  0.00    +0.172 C 
ATOM     24  C   UNL     1      34.577 -15.306 -21.450  0.00  0.00    +0.040 C 
ATOM     25  C   UNL     1      33.352 -13.437 -23.120  0.00  0.00    +0.043 C 
ATOM     26  C   UNL     1      33.690 -14.370 -20.917  0.00  0.00    +0.006 C 
ATOM     27  C   UNL     1      33.078 -13.436 -21.752  0.00  0.00    +0.038 C 
BRANCH  27  29
ATOM     28  O   UNL     1      31.442 -11.745 -21.933  0.00  0.00    -0.291 OA
ATOM     29  C   UNL     1      32.153 -12.460 -21.197  0.00  0.00    +0.174 C 
ATOM     30  C   UNL     1      32.031 -12.290 -19.687  0.00  0.00    +0.077 C 
ENDBRANCH  27  29
BRANCH  23  31
ATOM     31  O   UNL     1      34.498 -14.366 -24.990  0.00  0.00    -0.468 OA
ATOM     32  C   UNL     1      33.379 -14.475 -25.867  0.00  0.00    +0.253 C 
ENDBRANCH  23  31
ENDBRANCH  21  22
ENDBRANCH  20  21
ENDBRANCH  19  20
ENDBRANCH  18  19
ENDBRANCH   1  18
TORSDOF 8
ENDMDL
MODEL 6
REMARK VINA RESULT:     -11.3      1.490      2.562
REMARK  Name = 71360
REMARK  8 active torsions:
REMARK  status: ('A' for Active; 'I' for Inactive)
REMARK    1  A    between atoms: N_1  and  C_18
REMARK    2  A    between atoms: C_2  and  C_11
REMARK    3  A    between atoms: C_18  and  C_19
REMARK    4  A    between atoms: C_19  and  C_20
REMARK    5  A    between atoms: C_20  and  O_21
REMARK    6  A    between atoms: O_21  and  C_22
REMARK    7  A    between atoms: C_23  and  O_31
REMARK    8  A    between atoms: C_27  and  C_29
REMARK                            x       y       z     vdW  Elec       q    Type
REMARK                         _______ _______ _______ _____ _____    ______ ____
ROOT
ATOM      1  N   UNL     1      36.343 -19.617 -21.032  0.00  0.00    +0.387 N 
ATOM      2  C   UNL     1      35.594 -18.513 -23.645  0.00  0.00    +0.039 C 
ATOM      3  C   UNL     1      36.778 -17.971 -22.829  0.00  0.00    -0.017 C 
ATOM      4  C   UNL     1      34.574 -19.177 -22.706  0.00  0.00    -0.017 C 
ATOM      5  C   UNL     1      37.369 -19.053 -21.921  0.00  0.00    -0.077 C 
ATOM      6  C   UNL     1      35.243 -20.215 -21.803  0.00  0.00    -0.077 C 
ATOM      7  H   UNL     1      35.957 -18.855 -20.473  0.00  0.00    -0.080 HD
ENDROOT
BRANCH   2  11
ATOM      8  F   UNL     1      33.676 -12.142 -24.623  0.00  0.00    -0.204 F 
ATOM      9  O   UNL     1      34.036 -16.636 -26.298  0.00  0.00    -0.354 OA
ATOM     10  N   UNL     1      34.544 -17.807 -25.750  0.00  0.00    -0.081 NA
ATOM     11  C   UNL     1      34.970 -17.463 -24.537  0.00  0.00    +0.100 A 
ATOM     12  C   UNL     1      34.770 -16.105 -24.249  0.00  0.00    +0.054 A 
ATOM     13  C   UNL     1      34.172 -15.621 -25.400  0.00  0.00    +0.179 A 
ATOM     14  C   UNL     1      35.007 -15.224 -23.183  0.00  0.00    +0.007 C 
ATOM     15  C   UNL     1      33.782 -14.299 -25.585  0.00  0.00    +0.070 C 
ATOM     16  C   UNL     1      34.627 -13.883 -23.335  0.00  0.00    +0.030 C 
ATOM     17  C   UNL     1      34.025 -13.431 -24.515  0.00  0.00    +0.143 C 
ENDBRANCH   2  11
BRANCH   1  18
ATOM     18  C   UNL     1      36.934 -20.607 -20.133  0.00  0.00    -0.074 C 
BRANCH  18  19
ATOM     19  C   UNL     1      35.844 -21.462 -19.496  0.00  0.00    +0.025 C 
BRANCH  19  20
ATOM     20  C   UNL     1      36.273 -21.994 -18.136  0.00  0.00    +0.203 C 
BRANCH  20  21
ATOM     21  O   UNL     1      35.203 -22.745 -17.578  0.00  0.00    -0.472 OA
BRANCH  21  22
ATOM     22  C   UNL     1      35.383 -23.228 -16.309  0.00  0.00    +0.172 C 
ATOM     23  C   UNL     1      34.308 -23.760 -15.604  0.00  0.00    +0.172 C 
ATOM     24  C   UNL     1      36.650 -23.179 -15.737  0.00  0.00    +0.040 C 
ATOM     25  C   UNL     1      34.504 -24.249 -14.312  0.00  0.00    +0.043 C 
ATOM     26  C   UNL     1      36.845 -23.668 -14.445  0.00  0.00    +0.006 C 
ATOM     27  C   UNL     1      35.772 -24.203 -13.732  0.00  0.00    +0.038 C 
BRANCH  27  29
ATOM     28  O   UNL     1      35.014 -25.039 -11.661  0.00  0.00    -0.291 OA
ATOM     29  C   UNL     1      35.976 -24.714 -12.386  0.00  0.00    +0.174 C 
ATOM     30  C   UNL     1      37.387 -24.864 -11.827  0.00  0.00    +0.077 C 
ENDBRANCH  27  29
BRANCH  23  31
ATOM     31  O   UNL     1      33.065 -23.812 -16.158  0.00  0.00    -0.468 OA
ATOM     32  C   UNL     1      31.990 -23.277 -15.390  0.00  0.00    +0.253 C 
ENDBRANCH  23  31
ENDBRANCH  21  22
ENDBRANCH  20  21
ENDBRANCH  19  20
ENDBRANCH  18  19
ENDBRANCH   1  18
TORSDOF 8
ENDMDL
MODEL 7
REMARK VINA RESULT:     -11.2      4.830     11.844
REMARK  Name = 71360
REMARK  8 active torsions:
REMARK  status: ('A' for Active; 'I' for Inactive)
REMARK    1  A    between atoms: N_1  and  C_18
REMARK    2  A    between atoms: C_2  and  C_11
REMARK    3  A    between atoms: C_18  and  C_19
REMARK    4  A    between atoms: C_19  and  C_20
REMARK    5  A    between atoms: C_20  and  O_21
REMARK    6  A    between atoms: O_21  and  C_22
REMARK    7  A    between atoms: C_23  and  O_31
REMARK    8  A    between atoms: C_27  and  C_29
REMARK                            x       y       z     vdW  Elec       q    Type
REMARK                         _______ _______ _______ _____ _____    ______ ____
ROOT
ATOM      1  N   UNL     1      35.412 -15.706 -23.970  0.00  0.00    +0.387 N 
ATOM      2  C   UNL     1      35.119 -18.078 -22.269  0.00  0.00    +0.039 C 
ATOM      3  C   UNL     1      35.356 -16.674 -21.692  0.00  0.00    -0.017 C 
ATOM      4  C   UNL     1      35.669 -18.153 -23.703  0.00  0.00    -0.017 C 
ATOM      5  C   UNL     1      34.819 -15.590 -22.631  0.00  0.00    -0.077 C 
ATOM      6  C   UNL     1      35.120 -17.017 -24.568  0.00  0.00    -0.077 C 
ATOM      7  H   UNL     1      36.425 -15.623 -23.874  0.00  0.00    -0.080 HD
ENDROOT
BRANCH   2  11
ATOM      8  F   UNL     1      34.032 -23.524 -18.475  0.00  0.00    -0.204 F 
ATOM      9  O   UNL     1      37.129 -20.325 -20.295  0.00  0.00    -0.354 OA
ATOM     10  N   UNL     1      36.965 -19.224 -21.126  0.00  0.00    -0.081 NA
ATOM     11  C   UNL     1      35.660 -19.174 -21.378  0.00  0.00    +0.100 A 
ATOM     12  C   UNL     1      34.939 -20.200 -20.749  0.00  0.00    +0.054 A 
ATOM     13  C   UNL     1      35.918 -20.906 -20.071  0.00  0.00    +0.179 A 
ATOM     14  C   UNL     1      33.605 -20.626 -20.659  0.00  0.00    +0.007 C 
ATOM     15  C   UNL     1      35.674 -22.032 -19.291  0.00  0.00    +0.070 C 
ATOM     16  C   UNL     1      33.323 -21.758 -19.880  0.00  0.00    +0.030 C 
ATOM     17  C   UNL     1      34.340 -22.446 -19.210  0.00  0.00    +0.143 C 
ENDBRANCH   2  11
BRANCH   1  18
ATOM     18  C   UNL     1      34.933 -14.630 -24.838  0.00  0.00    -0.074 C 
BRANCH  18  19
ATOM     19  C   UNL     1      34.049 -13.670 -24.050  0.00  0.00    +0.025 C 
BRANCH  19  20
ATOM     20  C   UNL     1      34.450 -12.220 -24.285  0.00  0.00    +0.203 C 
BRANCH  20  21
ATOM     21  O   UNL     1      33.275 -11.431 -24.404  0.00  0.00    -0.472 OA
BRANCH  21  22
ATOM     22  C   UNL     1      33.175 -10.342 -23.578  0.00  0.00    +0.172 C 
ATOM     23  C   UNL     1      32.315 -10.369 -22.485  0.00  0.00    +0.172 C 
ATOM     24  C   UNL     1      33.941  -9.213 -23.849  0.00  0.00    +0.040 C 
ATOM     25  C   UNL     1      32.222  -9.253 -21.652  0.00  0.00    +0.043 C 
ATOM     26  C   UNL     1      33.847  -8.098 -23.016  0.00  0.00    +0.006 C 
ATOM     27  C   UNL     1      32.988  -8.118 -21.918  0.00  0.00    +0.038 C 
BRANCH  27  29
ATOM     28  O   UNL     1      33.307  -6.985 -19.873  0.00  0.00    -0.291 OA
ATOM     29  C   UNL     1      32.891  -6.955 -21.049  0.00  0.00    +0.174 C 
ATOM     30  C   UNL     1      32.271  -5.661 -21.564  0.00  0.00    +0.077 C 
ENDBRANCH  27  29
BRANCH  23  31
ATOM     31  O   UNL     1      31.562 -11.471 -22.215  0.00  0.00    -0.468 OA
ATOM     32  C   UNL     1      30.868 -11.493 -20.970  0.00  0.00    +0.253 C 
ENDBRANCH  23  31
ENDBRANCH  21  22
ENDBRANCH  20  21
ENDBRANCH  19  20
ENDBRANCH  18  19
ENDBRANCH   1  18
TORSDOF 8
ENDMDL
MODEL 8
REMARK VINA RESULT:     -11.1      2.486      4.902
REMARK  Name = 71360
REMARK  8 active torsions:
REMARK  status: ('A' for Active; 'I' for Inactive)
REMARK    1  A    between atoms: N_1  and  C_18
REMARK    2  A    between atoms: C_2  and  C_11
REMARK    3  A    between atoms: C_18  and  C_19
REMARK    4  A    between atoms: C_19  and  C_20
REMARK    5  A    between atoms: C_20  and  O_21
REMARK    6  A    between atoms: O_21  and  C_22
REMARK    7  A    between atoms: C_23  and  O_31
REMARK    8  A    between atoms: C_27  and  C_29
REMARK                            x       y       z     vdW  Elec       q    Type
REMARK                         _______ _______ _______ _____ _____    ______ ____
ROOT
ATOM      1  N   UNL     1      34.221 -22.155 -19.120  0.00  0.00    +0.387 N 
ATOM      2  C   UNL     1      34.884 -20.336 -21.325  0.00  0.00    +0.039 C 
ATOM      3  C   UNL     1      35.943 -20.867 -20.347  0.00  0.00    -0.017 C 
ATOM      4  C   UNL     1      33.500 -20.351 -20.653  0.00  0.00    -0.017 C 
ATOM      5  C   UNL     1      35.536 -22.227 -19.771  0.00  0.00    -0.077 C 
ATOM      6  C   UNL     1      33.182 -21.728 -20.068  0.00  0.00    -0.077 C 
ATOM      7  H   UNL     1      34.275 -21.457 -18.378  0.00  0.00    -0.080 HD
ENDROOT
BRANCH   2  11
ATOM      8  F   UNL     1      34.815 -16.019 -26.481  0.00  0.00    -0.204 F 
ATOM      9  O   UNL     1      36.056 -16.984 -21.935  0.00  0.00    -0.354 OA
ATOM     10  N   UNL     1      35.882 -18.102 -21.129  0.00  0.00    -0.081 NA
ATOM     11  C   UNL     1      35.242 -18.982 -21.894  0.00  0.00    +0.100 A 
ATOM     12  C   UNL     1      34.976 -18.498 -23.184  0.00  0.00    +0.054 A 
ATOM     13  C   UNL     1      35.515 -17.223 -23.162  0.00  0.00    +0.179 A 
ATOM     14  C   UNL     1      34.362 -18.958 -24.358  0.00  0.00    +0.007 C 
ATOM     15  C   UNL     1      35.490 -16.343 -24.238  0.00  0.00    +0.070 C 
ATOM     16  C   UNL     1      34.320 -18.097 -25.464  0.00  0.00    +0.030 C 
ATOM     17  C   UNL     1      34.874 -16.813 -25.403  0.00  0.00    +0.143 C 
ENDBRANCH   2  11
BRANCH   1  18
ATOM     18  C   UNL     1      33.873 -23.446 -18.526  0.00  0.00    -0.074 C 
BRANCH  18  19
ATOM     19  C   UNL     1      33.177 -23.241 -17.185  0.00  0.00    +0.025 C 
BRANCH  19  20
ATOM     20  C   UNL     1      33.912 -23.955 -16.059  0.00  0.00    +0.203 C 
BRANCH  20  21
ATOM     21  O   UNL     1      35.007 -23.151 -15.642  0.00  0.00    -0.472 OA
BRANCH  21  22
ATOM     22  C   UNL     1      36.225 -23.770 -15.540  0.00  0.00    +0.172 C 
ATOM     23  C   UNL     1      37.398 -23.034 -15.677  0.00  0.00    +0.172 C 
ATOM     24  C   UNL     1      36.273 -25.139 -15.301  0.00  0.00    +0.040 C 
ATOM     25  C   UNL     1      38.632 -23.675 -15.572  0.00  0.00    +0.043 C 
ATOM     26  C   UNL     1      37.508 -25.780 -15.195  0.00  0.00    +0.006 C 
ATOM     27  C   UNL     1      38.687 -25.048 -15.331  0.00  0.00    +0.038 C 
BRANCH  27  29
ATOM     28  O   UNL     1      40.629 -26.039 -16.233  0.00  0.00    -0.291 OA
ATOM     29  C   UNL     1      39.974 -25.717 -15.221  0.00  0.00    +0.174 C 
ATOM     30  C   UNL     1      40.556 -26.040 -13.849  0.00  0.00    +0.077 C 
ENDBRANCH  27  29
BRANCH  23  31
ATOM     31  O   UNL     1      37.358 -21.692 -15.911  0.00  0.00    -0.468 OA
ATOM     32  C   UNL     1      37.714 -21.252 -17.220  0.00  0.00    +0.253 C 
ENDBRANCH  23  31
ENDBRANCH  21  22
ENDBRANCH  20  21
ENDBRANCH  19  20
ENDBRANCH  18  19
ENDBRANCH   1  18
TORSDOF 8
ENDMDL
MODEL 9
REMARK VINA RESULT:     -11.1      2.185      3.307
REMARK  Name = 71360
REMARK  8 active torsions:
REMARK  status: ('A' for Active; 'I' for Inactive)
REMARK    1  A    between atoms: N_1  and  C_18
REMARK    2  A    between atoms: C_2  and  C_11
REMARK    3  A    between atoms: C_18  and  C_19
REMARK    4  A    between atoms: C_19  and  C_20
REMARK    5  A    between atoms: C_20  and  O_21
REMARK    6  A    between atoms: O_21  and  C_22
REMARK    7  A    between atoms: C_23  and  O_31
REMARK    8  A    between atoms: C_27  and  C_29
REMARK                            x       y       z     vdW  Elec       q    Type
REMARK                         _______ _______ _______ _____ _____    ______ ____
ROOT
ATOM      1  N   UNL     1      35.310 -21.582 -20.256  0.00  0.00    +0.387 N 
ATOM      2  C   UNL     1      35.258 -18.874 -21.382  0.00  0.00    +0.039 C 
ATOM      3  C   UNL     1      34.041 -19.811 -21.429  0.00  0.00    -0.017 C 
ATOM      4  C   UNL     1      36.550 -19.702 -21.282  0.00  0.00    -0.017 C 
ATOM      5  C   UNL     1      34.061 -20.808 -20.267  0.00  0.00    -0.077 C 
ATOM      6  C   UNL     1      36.480 -20.702 -20.125  0.00  0.00    -0.077 C 
ATOM      7  H   UNL     1      35.384 -22.074 -21.146  0.00  0.00    -0.080 HD
ENDROOT
BRANCH   2  11
ATOM      8  F   UNL     1      34.608 -12.566 -23.621  0.00  0.00    -0.204 F 
ATOM      9  O   UNL     1      35.498 -17.198 -24.563  0.00  0.00    -0.354 OA
ATOM     10  N   UNL     1      35.550 -18.329 -23.758  0.00  0.00    -0.081 NA
ATOM     11  C   UNL     1      35.283 -17.891 -22.531  0.00  0.00    +0.100 A 
ATOM     12  C   UNL     1      35.055 -16.508 -22.479  0.00  0.00    +0.054 A 
ATOM     13  C   UNL     1      35.201 -16.112 -23.797  0.00  0.00    +0.179 A 
ATOM     14  C   UNL     1      34.745 -15.543 -21.509  0.00  0.00    +0.007 C 
ATOM     15  C   UNL     1      35.064 -14.802 -24.243  0.00  0.00    +0.070 C 
ATOM     16  C   UNL     1      34.599 -14.211 -21.922  0.00  0.00    +0.030 C 
ATOM     17  C   UNL     1      34.756 -13.849 -23.265  0.00  0.00    +0.143 C 
ENDBRANCH   2  11
BRANCH   1  18
ATOM     18  C   UNL     1      35.290 -22.569 -19.175  0.00  0.00    -0.074 C 
BRANCH  18  19
ATOM     19  C   UNL     1      33.853 -22.925 -18.811  0.00  0.00    +0.025 C 
BRANCH  19  20
ATOM     20  C   UNL     1      33.699 -23.171 -17.316  0.00  0.00    +0.203 C 
BRANCH  20  21
ATOM     21  O   UNL     1      34.643 -24.154 -16.913  0.00  0.00    -0.472 OA
BRANCH  21  22
ATOM     22  C   UNL     1      35.169 -24.027 -15.654  0.00  0.00    +0.172 C 
ATOM     23  C   UNL     1      36.442 -23.494 -15.479  0.00  0.00    +0.172 C 
ATOM     24  C   UNL     1      34.417 -24.437 -14.559  0.00  0.00    +0.040 C 
ATOM     25  C   UNL     1      36.968 -23.369 -14.192  0.00  0.00    +0.043 C 
ATOM     26  C   UNL     1      34.942 -24.312 -13.273  0.00  0.00    +0.006 C 
ATOM     27  C   UNL     1      36.218 -23.779 -13.090  0.00  0.00    +0.038 C 
BRANCH  27  29
ATOM     28  O   UNL     1      37.794 -22.977 -11.528  0.00  0.00    -0.291 OA
ATOM     29  C   UNL     1      36.766 -23.648 -11.748  0.00  0.00    +0.174 C 
ATOM     30  C   UNL     1      36.086 -24.337 -10.570  0.00  0.00    +0.077 C 
ENDBRANCH  27  29
BRANCH  23  31
ATOM     31  O   UNL     1      37.184 -23.089 -16.547  0.00  0.00    -0.468 OA
ATOM     32  C   UNL     1      37.680 -21.753 -16.523  0.00  0.00    +0.253 C 
ENDBRANCH  23  31
ENDBRANCH  21  22
ENDBRANCH  20  21
ENDBRANCH  19  20
ENDBRANCH  18  19
ENDBRANCH   1  18
TORSDOF 8
ENDMDL
