MODEL 1
REMARK VINA RESULT:     -11.0      0.000      0.000
REMARK  Name = 9912771
REMARK  7 active torsions:
REMARK  status: ('A' for Active; 'I' for Inactive)
REMARK    1  A    between atoms: C_1  and  N_8
REMARK    2  A    between atoms: C_2  and  N_27
REMARK    3  A    between atoms: C_3  and  O_38
REMARK    4  A    between atoms: C_9  and  C_16
REMARK    5  A    between atoms: C_11  and  N_17
REMARK    6  A    between atoms: C_28  and  C_30
REMARK    7  A    between atoms: C_35  and  O_36
REMARK                            x       y       z     vdW  Elec       q    Type
REMARK                         _______ _______ _______ _____ _____    ______ ____
ROOT
ATOM      1  C   UNL     1      31.739 -23.145 -16.499  0.00  0.00    +0.098 C 
ATOM      2  C   UNL     1      32.343 -23.859 -15.474  0.00  0.00    +0.067 C 
ATOM      3  C   UNL     1      30.361 -22.994 -16.555  0.00  0.00    +0.148 C 
ATOM      4  C   UNL     1      31.549 -24.435 -14.482  0.00  0.00    +0.016 C 
ATOM      5  C   UNL     1      29.569 -23.570 -15.562  0.00  0.00    +0.038 C 
ATOM      6  C   UNL     1      30.163 -24.291 -14.526  0.00  0.00    +0.004 C 
ENDROOT
BRANCH   1   8
ATOM      7  O   UNL     1      33.646 -24.402 -18.441  0.00  0.00    -0.270 OA
ATOM      8  N   UNL     1      32.537 -22.556 -17.511  0.00  0.00    -0.277 N 
ATOM      9  C   UNL     1      33.419 -23.182 -18.401  0.00  0.00    +0.250 C 
ATOM     10  H   UNL     1      32.461 -21.579 -17.599  0.00  0.00    +0.155 HD
BRANCH   9  16
ATOM     11  C   UNL     1      35.497 -20.594 -21.103  0.00  0.00    +0.048 C 
ATOM     12  C   UNL     1      34.090 -20.549 -20.981  0.00  0.00    +0.015 C 
ATOM     13  C   UNL     1      36.192 -21.525 -20.299  0.00  0.00    +0.015 C 
ATOM     14  C   UNL     1      33.413 -21.392 -20.100  0.00  0.00    +0.006 C 
ATOM     15  C   UNL     1      35.516 -22.368 -19.418  0.00  0.00    +0.006 C 
ATOM     16  C   UNL     1      34.126 -22.302 -19.319  0.00  0.00    +0.054 C 
BRANCH  11  17
ATOM     17  N   UNL     1      36.173 -19.753 -21.984  0.00  0.00    -0.310 N 
ATOM     18  N   UNL     1      35.156 -17.125 -21.490  0.00  0.00    +0.387 N 
ATOM     19  C   UNL     1      35.766 -19.585 -23.382  0.00  0.00    +0.089 C 
ATOM     20  C   UNL     1      34.722 -18.479 -23.530  0.00  0.00    -0.001 C 
ATOM     21  C   UNL     1      37.136 -18.752 -21.514  0.00  0.00    +0.068 C 
ATOM     22  C   UNL     1      35.140 -17.114 -22.958  0.00  0.00    -0.076 C 
ATOM     23  C   UNL     1      36.443 -17.529 -20.898  0.00  0.00    -0.056 C 
ATOM     24  C   UNL     1      34.750 -15.827 -20.947  0.00  0.00    -0.101 C 
ATOM     25  H   UNL     1      34.480 -17.842 -21.227  0.00  0.00    -0.080 HD
ENDBRANCH  11  17
ENDBRANCH   9  16
ENDBRANCH   1   8
BRANCH   2  27
ATOM     26  O   UNL     1      34.141 -24.212 -13.103  0.00  0.00    -0.270 OA
ATOM     27  N   UNL     1      33.730 -24.018 -15.409  0.00  0.00    -0.279 N 
ATOM     28  C   UNL     1      34.523 -24.179 -14.268  0.00  0.00    +0.250 C 
ATOM     29  H   UNL     1      34.206 -24.016 -16.270  0.00  0.00    +0.155 HD
BRANCH  28  30
ATOM     30  C   UNL     1      35.983 -24.297 -14.521  0.00  0.00    +0.054 C 
ATOM     31  C   UNL     1      36.707 -25.237 -13.817  0.00  0.00    +0.008 C 
ATOM     32  C   UNL     1      36.567 -23.463 -15.451  0.00  0.00    +0.008 C 
ATOM     33  C   UNL     1      38.076 -25.349 -14.054  0.00  0.00    +0.037 C 
ATOM     34  C   UNL     1      37.937 -23.575 -15.689  0.00  0.00    +0.037 C 
ATOM     35  C   UNL     1      38.692 -24.517 -14.991  0.00  0.00    +0.139 C 
BRANCH  35  36
ATOM     36  O   UNL     1      40.028 -24.627 -15.223  0.00  0.00    -0.471 OA
ATOM     37  C   UNL     1      40.626 -25.899 -14.982  0.00  0.00    +0.252 C 
ENDBRANCH  35  36
ENDBRANCH  28  30
ENDBRANCH   2  27
BRANCH   3  38
ATOM     38  O   UNL     1      29.759 -22.294 -17.557  0.00  0.00    -0.504 OA
ATOM     39  H   UNL     1      28.846 -22.092 -17.504  0.00  0.00    +0.292 HD
ENDBRANCH   3  38
TORSDOF 7
ENDMDL
MODEL 2
REMARK VINA RESULT:      -8.9      1.541      5.490
REMARK  Name = 9912771
REMARK  7 active torsions:
REMARK  status: ('A' for Active; 'I' for Inactive)
REMARK    1  A    between atoms: C_1  and  N_8
REMARK    2  A    between atoms: C_2  and  N_27
REMARK    3  A    between atoms: C_3  and  O_38
REMARK    4  A    between atoms: C_9  and  C_16
REMARK    5  A    between atoms: C_11  and  N_17
REMARK    6  A    between atoms: C_28  and  C_30
REMARK    7  A    between atoms: C_35  and  O_36
REMARK                            x       y       z     vdW  Elec       q    Type
REMARK                         _______ _______ _______ _____ _____    ______ ____
ROOT
ATOM      1  C   UNL     1      37.371 -24.560 -14.988  0.00  0.00    +0.098 C 
ATOM      2  C   UNL     1      36.268 -25.055 -14.308  0.00  0.00    +0.067 C 
ATOM      3  C   UNL     1      38.661 -24.816 -14.547  0.00  0.00    +0.148 C 
ATOM      4  C   UNL     1      36.459 -25.825 -13.161  0.00  0.00    +0.016 C 
ATOM      5  C   UNL     1      38.851 -25.586 -13.399  0.00  0.00    +0.038 C 
ATOM      6  C   UNL     1      37.750 -26.090 -12.706  0.00  0.00    +0.004 C 
ENDROOT
BRANCH   1   8
ATOM      7  O   UNL     1      35.811 -22.034 -15.401  0.00  0.00    -0.270 OA
ATOM      8  N   UNL     1      37.186 -23.779 -16.156  0.00  0.00    -0.277 N 
ATOM      9  C   UNL     1      36.446 -22.599 -16.307  0.00  0.00    +0.250 C 
ATOM     10  H   UNL     1      37.637 -24.109 -16.966  0.00  0.00    +0.155 HD
BRANCH   9  16
ATOM     11  C   UNL     1      36.369 -20.938 -20.250  0.00  0.00    +0.048 C 
ATOM     12  C   UNL     1      35.395 -21.871 -19.829  0.00  0.00    +0.015 C 
ATOM     13  C   UNL     1      37.368 -20.572 -19.320  0.00  0.00    +0.015 C 
ATOM     14  C   UNL     1      35.420 -22.411 -18.543  0.00  0.00    +0.006 C 
ATOM     15  C   UNL     1      37.394 -21.114 -18.035  0.00  0.00    +0.006 C 
ATOM     16  C   UNL     1      36.419 -22.033 -17.647  0.00  0.00    +0.054 C 
BRANCH  11  17
ATOM     17  N   UNL     1      36.345 -20.398 -21.534  0.00  0.00    -0.310 N 
ATOM     18  N   UNL     1      35.421 -17.707 -21.233  0.00  0.00    +0.387 N 
ATOM     19  C   UNL     1      35.230 -20.616 -22.460  0.00  0.00    +0.089 C 
ATOM     20  C   UNL     1      34.137 -19.564 -22.274  0.00  0.00    -0.001 C 
ATOM     21  C   UNL     1      37.268 -19.335 -21.945  0.00  0.00    +0.068 C 
ATOM     22  C   UNL     1      34.614 -18.107 -22.392  0.00  0.00    -0.076 C 
ATOM     23  C   UNL     1      36.864 -17.968 -21.376  0.00  0.00    -0.056 C 
ATOM     24  C   UNL     1      35.207 -16.297 -20.900  0.00  0.00    -0.101 C 
ATOM     25  H   UNL     1      35.095 -18.301 -20.470  0.00  0.00    -0.080 HD
ENDBRANCH  11  17
ENDBRANCH   9  16
ENDBRANCH   1   8
BRANCH   2  27
ATOM     26  O   UNL     1      33.848 -24.181 -12.771  0.00  0.00    -0.270 OA
ATOM     27  N   UNL     1      34.964 -24.802 -14.744  0.00  0.00    -0.279 N 
ATOM     28  C   UNL     1      33.866 -24.394 -13.978  0.00  0.00    +0.250 C 
ATOM     29  H   UNL     1      34.798 -24.926 -15.707  0.00  0.00    +0.155 HD
BRANCH  28  30
ATOM     30  C   UNL     1      32.593 -24.234 -14.728  0.00  0.00    +0.054 C 
ATOM     31  C   UNL     1      31.517 -25.028 -14.391  0.00  0.00    +0.008 C 
ATOM     32  C   UNL     1      32.528 -23.295 -15.736  0.00  0.00    +0.008 C 
ATOM     33  C   UNL     1      30.322 -24.878 -15.093  0.00  0.00    +0.037 C 
ATOM     34  C   UNL     1      31.332 -23.144 -16.439  0.00  0.00    +0.037 C 
ATOM     35  C   UNL     1      30.230 -23.935 -16.118  0.00  0.00    +0.139 C 
BRANCH  35  36
ATOM     36  O   UNL     1      29.063 -23.788 -16.803  0.00  0.00    -0.471 OA
ATOM     37  C   UNL     1      28.149 -22.803 -16.323  0.00  0.00    +0.252 C 
ENDBRANCH  35  36
ENDBRANCH  28  30
ENDBRANCH   2  27
BRANCH   3  38
ATOM     38  O   UNL     1      39.751 -24.336 -15.208  0.00  0.00    -0.504 OA
ATOM     39  H   UNL     1      40.356 -23.773 -14.767  0.00  0.00    +0.292 HD
ENDBRANCH   3  38
TORSDOF 7
ENDMDL
MODEL 3
REMARK VINA RESULT:      -8.6      1.513      5.695
REMARK  Name = 9912771
REMARK  7 active torsions:
REMARK  status: ('A' for Active; 'I' for Inactive)
REMARK    1  A    between atoms: C_1  and  N_8
REMARK    2  A    between atoms: C_2  and  N_27
REMARK    3  A    between atoms: C_3  and  O_38
REMARK    4  A    between atoms: C_9  and  C_16
REMARK    5  A    between atoms: C_11  and  N_17
REMARK    6  A    between atoms: C_28  and  C_30
REMARK    7  A    between atoms: C_35  and  O_36
REMARK                            x       y       z     vdW  Elec       q    Type
REMARK                         _______ _______ _______ _____ _____    ______ ____
ROOT
ATOM      1  C   UNL     1      35.898 -23.501 -15.341  0.00  0.00    +0.098 C 
ATOM      2  C   UNL     1      34.864 -24.069 -14.612  0.00  0.00    +0.067 C 
ATOM      3  C   UNL     1      37.218 -23.624 -14.931  0.00  0.00    +0.148 C 
ATOM      4  C   UNL     1      35.156 -24.777 -13.446  0.00  0.00    +0.016 C 
ATOM      5  C   UNL     1      37.509 -24.332 -13.765  0.00  0.00    +0.038 C 
ATOM      6  C   UNL     1      36.478 -24.908 -13.023  0.00  0.00    +0.004 C 
ENDROOT
BRANCH   1   8
ATOM      7  O   UNL     1      34.195 -24.245 -17.693  0.00  0.00    -0.270 OA
ATOM      8  N   UNL     1      35.611 -22.782 -16.528  0.00  0.00    -0.277 N 
ATOM      9  C   UNL     1      34.806 -23.167 -17.608  0.00  0.00    +0.250 C 
ATOM     10  H   UNL     1      36.033 -21.896 -16.603  0.00  0.00    +0.155 HD
BRANCH   9  16
ATOM     11  C   UNL     1      34.562 -20.376 -20.842  0.00  0.00    +0.048 C 
ATOM     12  C   UNL     1      35.810 -20.792 -20.326  0.00  0.00    +0.015 C 
ATOM     13  C   UNL     1      33.398 -20.916 -20.251  0.00  0.00    +0.015 C 
ATOM     14  C   UNL     1      35.888 -21.703 -19.272  0.00  0.00    +0.006 C 
ATOM     15  C   UNL     1      33.477 -21.826 -19.197  0.00  0.00    +0.006 C 
ATOM     16  C   UNL     1      34.723 -22.219 -18.708  0.00  0.00    +0.054 C 
BRANCH  11  17
ATOM     17  N   UNL     1      34.482 -19.465 -21.894  0.00  0.00    -0.310 N 
ATOM     18  N   UNL     1      37.172 -18.648 -22.424  0.00  0.00    +0.387 N 
ATOM     19  C   UNL     1      34.154 -18.052 -21.688  0.00  0.00    +0.089 C 
ATOM     20  C   UNL     1      35.407 -17.224 -21.405  0.00  0.00    -0.001 C 
ATOM     21  C   UNL     1      35.013 -19.772 -23.226  0.00  0.00    +0.068 C 
ATOM     22  C   UNL     1      36.513 -17.337 -22.467  0.00  0.00    -0.076 C 
ATOM     23  C   UNL     1      36.543 -19.675 -23.273  0.00  0.00    -0.056 C 
ATOM     24  C   UNL     1      38.594 -18.536 -22.757  0.00  0.00    -0.101 C 
ATOM     25  H   UNL     1      37.062 -18.964 -21.460  0.00  0.00    -0.080 HD
ENDBRANCH  11  17
ENDBRANCH   9  16
ENDBRANCH   1   8
BRANCH   2  27
ATOM     26  O   UNL     1      32.352 -25.066 -13.316  0.00  0.00    -0.270 OA
ATOM     27  N   UNL     1      33.531 -23.951 -15.017  0.00  0.00    -0.279 N 
ATOM     28  C   UNL     1      32.390 -24.439 -14.369  0.00  0.00    +0.250 C 
ATOM     29  H   UNL     1      33.376 -23.465 -15.858  0.00  0.00    +0.155 HD
BRANCH  28  30
ATOM     30  C   UNL     1      31.104 -24.176 -15.065  0.00  0.00    +0.054 C 
ATOM     31  C   UNL     1      31.011 -23.083 -15.902  0.00  0.00    +0.008 C 
ATOM     32  C   UNL     1      30.045 -25.034 -14.854  0.00  0.00    +0.008 C 
ATOM     33  C   UNL     1      29.805 -22.837 -16.557  0.00  0.00    +0.037 C 
ATOM     34  C   UNL     1      28.838 -24.787 -15.509  0.00  0.00    +0.037 C 
ATOM     35  C   UNL     1      28.718 -23.690 -16.360  0.00  0.00    +0.139 C 
BRANCH  35  36
ATOM     36  O   UNL     1      27.541 -23.449 -17.000  0.00  0.00    -0.471 OA
ATOM     37  C   UNL     1      27.060 -22.106 -16.991  0.00  0.00    +0.252 C 
ENDBRANCH  35  36
ENDBRANCH  28  30
ENDBRANCH   2  27
BRANCH   3  38
ATOM     38  O   UNL     1      38.241 -23.071 -15.640  0.00  0.00    -0.504 OA
ATOM     39  H   UNL     1      38.517 -22.194 -15.459  0.00  0.00    +0.292 HD
ENDBRANCH   3  38
TORSDOF 7
ENDMDL
MODEL 4
REMARK VINA RESULT:      -8.6      1.086      2.247
REMARK  Name = 9912771
REMARK  7 active torsions:
REMARK  status: ('A' for Active; 'I' for Inactive)
REMARK    1  A    between atoms: C_1  and  N_8
REMARK    2  A    between atoms: C_2  and  N_27
REMARK    3  A    between atoms: C_3  and  O_38
REMARK    4  A    between atoms: C_9  and  C_16
REMARK    5  A    between atoms: C_11  and  N_17
REMARK    6  A    between atoms: C_28  and  C_30
REMARK    7  A    between atoms: C_35  and  O_36
REMARK                            x       y       z     vdW  Elec       q    Type
REMARK                         _______ _______ _______ _____ _____    ______ ____
ROOT
ATOM      1  C   UNL     1      31.457 -23.590 -16.514  0.00  0.00    +0.098 C 
ATOM      2  C   UNL     1      32.165 -24.349 -15.594  0.00  0.00    +0.067 C 
ATOM      3  C   UNL     1      30.071 -23.618 -16.553  0.00  0.00    +0.148 C 
ATOM      4  C   UNL     1      31.471 -25.154 -14.691  0.00  0.00    +0.016 C 
ATOM      5  C   UNL     1      29.377 -24.423 -15.650  0.00  0.00    +0.038 C 
ATOM      6  C   UNL     1      30.077 -25.191 -14.719  0.00  0.00    +0.004 C 
ENDROOT
BRANCH   1   8
ATOM      7  O   UNL     1      33.632 -24.275 -18.460  0.00  0.00    -0.270 OA
ATOM      8  N   UNL     1      32.154 -22.769 -17.434  0.00  0.00    -0.277 N 
ATOM      9  C   UNL     1      33.169 -23.130 -18.331  0.00  0.00    +0.250 C 
ATOM     10  H   UNL     1      31.891 -21.821 -17.445  0.00  0.00    +0.155 HD
BRANCH   9  16
ATOM     11  C   UNL     1      34.781 -19.954 -20.702  0.00  0.00    +0.048 C 
ATOM     12  C   UNL     1      35.623 -20.901 -20.077  0.00  0.00    +0.015 C 
ATOM     13  C   UNL     1      33.388 -20.095 -20.516  0.00  0.00    +0.015 C 
ATOM     14  C   UNL     1      35.096 -21.936 -19.305  0.00  0.00    +0.006 C 
ATOM     15  C   UNL     1      32.862 -21.129 -19.743  0.00  0.00    +0.006 C 
ATOM     16  C   UNL     1      33.717 -22.050 -19.138  0.00  0.00    +0.054 C 
BRANCH  11  17
ATOM     17  N   UNL     1      35.306 -18.918 -21.473  0.00  0.00    -0.310 N 
ATOM     18  N   UNL     1      35.641 -19.995 -24.103  0.00  0.00    +0.387 N 
ATOM     19  C   UNL     1      36.735 -18.593 -21.487  0.00  0.00    +0.089 C 
ATOM     20  C   UNL     1      37.484 -19.412 -22.538  0.00  0.00    -0.001 C 
ATOM     21  C   UNL     1      34.535 -18.285 -22.548  0.00  0.00    +0.068 C 
ATOM     22  C   UNL     1      36.926 -19.298 -23.966  0.00  0.00    -0.076 C 
ATOM     23  C   UNL     1      34.462 -19.165 -23.802  0.00  0.00    -0.056 C 
ATOM     24  C   UNL     1      35.500 -20.588 -25.434  0.00  0.00    -0.101 C 
ATOM     25  H   UNL     1      35.666 -20.729 -23.393  0.00  0.00    -0.080 HD
ENDBRANCH  11  17
ENDBRANCH   9  16
ENDBRANCH   1   8
BRANCH   2  27
ATOM     26  O   UNL     1      34.048 -22.113 -14.932  0.00  0.00    -0.270 OA
ATOM     27  N   UNL     1      33.562 -24.329 -15.547  0.00  0.00    -0.279 N 
ATOM     28  C   UNL     1      34.396 -23.250 -15.230  0.00  0.00    +0.250 C 
ATOM     29  H   UNL     1      34.015 -25.176 -15.763  0.00  0.00    +0.155 HD
BRANCH  28  30
ATOM     30  C   UNL     1      35.853 -23.534 -15.294  0.00  0.00    +0.054 C 
ATOM     31  C   UNL     1      36.640 -22.785 -16.145  0.00  0.00    +0.008 C 
ATOM     32  C   UNL     1      36.372 -24.535 -14.500  0.00  0.00    +0.008 C 
ATOM     33  C   UNL     1      38.008 -23.050 -16.204  0.00  0.00    +0.037 C 
ATOM     34  C   UNL     1      37.740 -24.800 -14.560  0.00  0.00    +0.037 C 
ATOM     35  C   UNL     1      38.558 -24.058 -15.411  0.00  0.00    +0.139 C 
BRANCH  35  36
ATOM     36  O   UNL     1      39.893 -24.316 -15.469  0.00  0.00    -0.471 OA
ATOM     37  C   UNL     1      40.289 -25.686 -15.490  0.00  0.00    +0.252 C 
ENDBRANCH  35  36
ENDBRANCH  28  30
ENDBRANCH   2  27
BRANCH   3  38
ATOM     38  O   UNL     1      29.366 -22.876 -17.452  0.00  0.00    -0.504 OA
ATOM     39  H   UNL     1      29.167 -21.979 -17.267  0.00  0.00    +0.292 HD
ENDBRANCH   3  38
TORSDOF 7
ENDMDL
