MODEL 1
REMARK VINA RESULT:     -11.0      0.000      0.000
REMARK  Name = 444698
REMARK  5 active torsions:
REMARK  status: ('A' for Active; 'I' for Inactive)
REMARK    1  A    between atoms: S_1  and  N_4
REMARK    2  A    between atoms: S_1  and  C_18
REMARK    3  A    between atoms: C_5  and  C_15
REMARK    4  A    between atoms: C_15  and  O_16
REMARK    5  A    between atoms: C_21  and  C_24
REMARK                            x       y       z     vdW  Elec       q    Type
REMARK                         _______ _______ _______ _____ _____    ______ ____
ROOT
ATOM      1  S   UNL     1      36.468 -18.947 -22.911  0.00  0.00    +0.064 S 
ATOM      2  O   UNL     1      37.802 -18.574 -22.488  0.00  0.00    -0.153 OA
ATOM      3  O   UNL     1      36.238 -19.769 -24.081  0.00  0.00    -0.153 OA
ENDROOT
BRANCH   1   4
ATOM      4  N   UNL     1      35.516 -17.530 -23.024  0.00  0.00    -0.141 NA
ATOM      5  C   UNL     1      35.509 -16.827 -24.339  0.00  0.00    +0.182 C 
ATOM      6  C   UNL     1      35.432 -15.301 -24.250  0.00  0.00    +0.055 C 
ATOM      7  C   UNL     1      35.453 -16.684 -21.800  0.00  0.00    +0.122 C 
ATOM      8  C   UNL     1      34.509 -14.825 -23.162  0.00  0.00    -0.023 C 
ATOM      9  C   UNL     1      34.518 -15.516 -21.942  0.00  0.00    -0.008 C 
ATOM     10  C   UNL     1      33.696 -13.698 -23.320  0.00  0.00    -0.004 C 
ATOM     11  C   UNL     1      33.715 -15.076 -20.886  0.00  0.00    -0.003 C 
ATOM     12  C   UNL     1      32.885 -13.273 -22.267  0.00  0.00    -0.000 C 
ATOM     13  C   UNL     1      32.895 -13.960 -21.053  0.00  0.00    -0.000 C 
BRANCH   5  15
ATOM     14  O   UNL     1      33.766 -16.887 -26.013  0.00  0.00    -0.249 OA
ATOM     15  C   UNL     1      34.308 -17.387 -25.037  0.00  0.00    +0.330 C 
BRANCH  15  16
ATOM     16  O   UNL     1      33.895 -18.530 -24.438  0.00  0.00    -0.479 OA
ATOM     17  H   UNL     1      34.198 -19.360 -24.753  0.00  0.00    +0.295 HD
ENDBRANCH  15  16
ENDBRANCH   5  15
ENDBRANCH   1   4
BRANCH   1  18
ATOM     18  C   UNL     1      35.817 -19.927 -21.562  0.00  0.00    +0.122 C 
ATOM     19  C   UNL     1      34.456 -20.083 -21.464  0.00  0.00    +0.020 C 
ATOM     20  C   UNL     1      36.704 -20.488 -20.675  0.00  0.00    +0.020 C 
ATOM     21  C   UNL     1      34.820 -21.431 -19.493  0.00  0.00    +0.000 C 
ATOM     22  C   UNL     1      33.950 -20.846 -20.412  0.00  0.00    +0.001 C 
ATOM     23  C   UNL     1      36.197 -21.251 -19.623  0.00  0.00    +0.001 C 
BRANCH  21  24
ATOM     24  C   UNL     1      34.294 -22.223 -18.402  0.00  0.00    +0.000 C 
ATOM     25  C   UNL     1      32.922 -22.457 -18.307  0.00  0.00    +0.000 C 
ATOM     26  C   UNL     1      35.160 -22.752 -17.445  0.00  0.00    +0.000 C 
ATOM     27  C   UNL     1      32.416 -23.220 -17.254  0.00  0.00    +0.000 C 
ATOM     28  C   UNL     1      34.654 -23.516 -16.393  0.00  0.00    +0.000 C 
ATOM     29  C   UNL     1      33.281 -23.750 -16.298  0.00  0.00    +0.000 C 
ENDBRANCH  21  24
ENDBRANCH   1  18
TORSDOF 5
ENDMDL
MODEL 2
REMARK VINA RESULT:     -10.9      5.488      9.598
REMARK  Name = 444698
REMARK  5 active torsions:
REMARK  status: ('A' for Active; 'I' for Inactive)
REMARK    1  A    between atoms: S_1  and  N_4
REMARK    2  A    between atoms: S_1  and  C_18
REMARK    3  A    between atoms: C_5  and  C_15
REMARK    4  A    between atoms: C_15  and  O_16
REMARK    5  A    between atoms: C_21  and  C_24
REMARK                            x       y       z     vdW  Elec       q    Type
REMARK                         _______ _______ _______ _____ _____    ______ ____
ROOT
ATOM      1  S   UNL     1      35.247 -23.717 -15.866  0.00  0.00    +0.064 S 
ATOM      2  O   UNL     1      35.693 -25.039 -16.254  0.00  0.00    -0.153 OA
ATOM      3  O   UNL     1      35.908 -22.963 -14.821  0.00  0.00    -0.153 OA
ENDROOT
BRANCH   1   4
ATOM      4  N   UNL     1      33.570 -23.781 -15.538  0.00  0.00    -0.141 NA
ATOM      5  C   UNL     1      33.129 -24.723 -14.470  0.00  0.00    +0.182 C 
ATOM      6  C   UNL     1      31.778 -25.396 -14.727  0.00  0.00    +0.055 C 
ATOM      7  C   UNL     1      32.666 -23.609 -16.710  0.00  0.00    +0.122 C 
ATOM      8  C   UNL     1      30.769 -24.466 -15.343  0.00  0.00    -0.023 C 
ATOM      9  C   UNL     1      31.213 -23.574 -16.330  0.00  0.00    -0.008 C 
ATOM     10  C   UNL     1      29.415 -24.507 -14.997  0.00  0.00    -0.004 C 
ATOM     11  C   UNL     1      30.301 -22.729 -16.965  0.00  0.00    -0.003 C 
ATOM     12  C   UNL     1      28.511 -23.649 -15.625  0.00  0.00    -0.000 C 
ATOM     13  C   UNL     1      28.953 -22.763 -16.607  0.00  0.00    -0.000 C 
BRANCH   5  15
ATOM     14  O   UNL     1      32.102 -23.247 -12.855  0.00  0.00    -0.249 OA
ATOM     15  C   UNL     1      33.081 -23.871 -13.239  0.00  0.00    +0.330 C 
BRANCH  15  16
ATOM     16  O   UNL     1      34.277 -23.881 -12.602  0.00  0.00    -0.479 OA
ATOM     17  H   UNL     1      35.044 -23.574 -13.044  0.00  0.00    +0.295 HD
ENDBRANCH  15  16
ENDBRANCH   5  15
ENDBRANCH   1   4
BRANCH   1  18
ATOM     18  C   UNL     1      35.472 -22.710 -17.329  0.00  0.00    +0.122 C 
ATOM     19  C   UNL     1      36.653 -22.026 -17.477  0.00  0.00    +0.020 C 
ATOM     20  C   UNL     1      34.454 -22.659 -18.250  0.00  0.00    +0.020 C 
ATOM     21  C   UNL     1      35.816 -21.166 -19.573  0.00  0.00    +0.000 C 
ATOM     22  C   UNL     1      36.828 -21.241 -18.617  0.00  0.00    +0.001 C 
ATOM     23  C   UNL     1      34.629 -21.874 -19.389  0.00  0.00    +0.001 C 
BRANCH  21  24
ATOM     24  C   UNL     1      35.998 -20.352 -20.755  0.00  0.00    +0.000 C 
ATOM     25  C   UNL     1      37.197 -19.668 -20.955  0.00  0.00    +0.000 C 
ATOM     26  C   UNL     1      34.972 -20.251 -21.696  0.00  0.00    +0.000 C 
ATOM     27  C   UNL     1      37.370 -18.883 -22.095  0.00  0.00    +0.000 C 
ATOM     28  C   UNL     1      35.146 -19.467 -22.836  0.00  0.00    +0.000 C 
ATOM     29  C   UNL     1      36.346 -18.782 -23.036  0.00  0.00    +0.000 C 
ENDBRANCH  21  24
ENDBRANCH   1  18
TORSDOF 5
ENDMDL
MODEL 3
REMARK VINA RESULT:     -10.6      2.286      3.858
REMARK  Name = 444698
REMARK  5 active torsions:
REMARK  status: ('A' for Active; 'I' for Inactive)
REMARK    1  A    between atoms: S_1  and  N_4
REMARK    2  A    between atoms: S_1  and  C_18
REMARK    3  A    between atoms: C_5  and  C_15
REMARK    4  A    between atoms: C_15  and  O_16
REMARK    5  A    between atoms: C_21  and  C_24
REMARK                            x       y       z     vdW  Elec       q    Type
REMARK                         _______ _______ _______ _____ _____    ______ ____
ROOT
ATOM      1  S   UNL     1      34.756 -16.194 -25.600  0.00  0.00    +0.064 S 
ATOM      2  O   UNL     1      36.111 -15.906 -26.023  0.00  0.00    -0.153 OA
ATOM      3  O   UNL     1      33.797 -16.825 -26.484  0.00  0.00    -0.153 OA
ENDROOT
BRANCH   1   4
ATOM      4  N   UNL     1      34.070 -14.767 -24.954  0.00  0.00    -0.141 NA
ATOM      5  C   UNL     1      34.356 -13.495 -25.679  0.00  0.00    +0.182 C 
ATOM      6  C   UNL     1      34.516 -12.267 -24.780  0.00  0.00    +0.055 C 
ATOM      7  C   UNL     1      33.980 -14.697 -23.469  0.00  0.00    +0.122 C 
ATOM      8  C   UNL     1      33.544 -12.251 -23.633  0.00  0.00    -0.023 C 
ATOM      9  C   UNL     1      33.275 -13.463 -22.981  0.00  0.00    -0.008 C 
ATOM     10  C   UNL     1      32.953 -11.068 -23.177  0.00  0.00    -0.004 C 
ATOM     11  C   UNL     1      32.419 -13.486 -21.878  0.00  0.00    -0.003 C 
ATOM     12  C   UNL     1      32.086 -11.100 -22.084  0.00  0.00    -0.000 C 
ATOM     13  C   UNL     1      31.820 -12.306 -21.436  0.00  0.00    -0.000 C 
BRANCH   5  15
ATOM     14  O   UNL     1      32.922 -12.328 -27.237  0.00  0.00    -0.249 OA
ATOM     15  C   UNL     1      33.185 -13.339 -26.601  0.00  0.00    +0.330 C 
BRANCH  15  16
ATOM     16  O   UNL     1      32.448 -14.475 -26.636  0.00  0.00    -0.479 OA
ATOM     17  H   UNL     1      31.512 -14.425 -26.663  0.00  0.00    +0.295 HD
ENDBRANCH  15  16
ENDBRANCH   5  15
ENDBRANCH   1   4
BRANCH   1  18
ATOM     18  C   UNL     1      34.935 -17.362 -24.256  0.00  0.00    +0.122 C 
ATOM     19  C   UNL     1      35.525 -16.934 -23.092  0.00  0.00    +0.020 C 
ATOM     20  C   UNL     1      34.476 -18.644 -24.438  0.00  0.00    +0.020 C 
ATOM     21  C   UNL     1      35.209 -19.154 -22.194  0.00  0.00    +0.000 C 
ATOM     22  C   UNL     1      35.664 -17.845 -22.045  0.00  0.00    +0.001 C 
ATOM     23  C   UNL     1      34.616 -19.555 -23.391  0.00  0.00    +0.001 C 
BRANCH  21  24
ATOM     24  C   UNL     1      35.355 -20.099 -21.108  0.00  0.00    +0.000 C 
ATOM     25  C   UNL     1      36.610 -20.327 -20.544  0.00  0.00    +0.000 C 
ATOM     26  C   UNL     1      34.238 -20.781 -20.624  0.00  0.00    +0.000 C 
ATOM     27  C   UNL     1      36.749 -21.239 -19.497  0.00  0.00    +0.000 C 
ATOM     28  C   UNL     1      34.377 -21.691 -19.576  0.00  0.00    +0.000 C 
ATOM     29  C   UNL     1      35.633 -21.920 -19.012  0.00  0.00    +0.000 C 
ENDBRANCH  21  24
ENDBRANCH   1  18
TORSDOF 5
ENDMDL
MODEL 4
REMARK VINA RESULT:      -9.7      1.463      7.872
REMARK  Name = 444698
REMARK  5 active torsions:
REMARK  status: ('A' for Active; 'I' for Inactive)
REMARK    1  A    between atoms: S_1  and  N_4
REMARK    2  A    between atoms: S_1  and  C_18
REMARK    3  A    between atoms: C_5  and  C_15
REMARK    4  A    between atoms: C_15  and  O_16
REMARK    5  A    between atoms: C_21  and  C_24
REMARK                            x       y       z     vdW  Elec       q    Type
REMARK                         _______ _______ _______ _____ _____    ______ ____
ROOT
ATOM      1  S   UNL     1      36.533 -18.669 -22.652  0.00  0.00    +0.064 S 
ATOM      2  O   UNL     1      36.128 -19.246 -23.917  0.00  0.00    -0.153 OA
ATOM      3  O   UNL     1      37.905 -18.287 -22.390  0.00  0.00    -0.153 OA
ENDROOT
BRANCH   1   4
ATOM      4  N   UNL     1      35.980 -19.680 -21.389  0.00  0.00    -0.141 NA
ATOM      5  C   UNL     1      36.993 -20.563 -20.741  0.00  0.00    +0.182 C 
ATOM      6  C   UNL     1      36.466 -21.933 -20.309  0.00  0.00    +0.055 C 
ATOM      7  C   UNL     1      34.602 -20.224 -21.541  0.00  0.00    +0.122 C 
ATOM      8  C   UNL     1      35.077 -21.871 -19.734  0.00  0.00    -0.023 C 
ATOM      9  C   UNL     1      34.149 -21.018 -20.348  0.00  0.00    -0.008 C 
ATOM     10  C   UNL     1      34.684 -22.669 -18.656  0.00  0.00    -0.004 C 
ATOM     11  C   UNL     1      32.834 -20.967 -19.880  0.00  0.00    -0.003 C 
ATOM     12  C   UNL     1      33.373 -22.604 -18.183  0.00  0.00    -0.000 C 
ATOM     13  C   UNL     1      32.450 -21.755 -18.794  0.00  0.00    -0.000 C 
BRANCH   5  15
ATOM     14  O   UNL     1      37.419 -20.147 -18.398  0.00  0.00    -0.249 OA
ATOM     15  C   UNL     1      37.457 -19.767 -19.560  0.00  0.00    +0.330 C 
BRANCH  15  16
ATOM     16  O   UNL     1      37.927 -18.558 -19.952  0.00  0.00    -0.479 OA
ATOM     17  H   UNL     1      37.445 -18.047 -20.572  0.00  0.00    +0.295 HD
ENDBRANCH  15  16
ENDBRANCH   5  15
ENDBRANCH   1   4
BRANCH   1  18
ATOM     18  C   UNL     1      35.630 -17.127 -22.542  0.00  0.00    +0.122 C 
ATOM     19  C   UNL     1      35.296 -16.652 -21.297  0.00  0.00    +0.020 C 
ATOM     20  C   UNL     1      35.303 -16.476 -23.707  0.00  0.00    +0.020 C 
ATOM     21  C   UNL     1      34.244 -14.763 -22.374  0.00  0.00    +0.000 C 
ATOM     22  C   UNL     1      34.592 -15.451 -21.212  0.00  0.00    +0.001 C 
ATOM     23  C   UNL     1      34.599 -15.276 -23.621  0.00  0.00    +0.001 C 
BRANCH  21  24
ATOM     24  C   UNL     1      33.514 -13.517 -22.285  0.00  0.00    +0.000 C 
ATOM     25  C   UNL     1      33.685 -12.536 -23.261  0.00  0.00    +0.000 C 
ATOM     26  C   UNL     1      32.637 -13.298 -21.222  0.00  0.00    +0.000 C 
ATOM     27  C   UNL     1      32.981 -11.335 -23.173  0.00  0.00    +0.000 C 
ATOM     28  C   UNL     1      31.932 -12.098 -21.135  0.00  0.00    +0.000 C 
ATOM     29  C   UNL     1      32.104 -11.115 -22.111  0.00  0.00    +0.000 C 
ENDBRANCH  21  24
ENDBRANCH   1  18
TORSDOF 5
ENDMDL
MODEL 5
REMARK VINA RESULT:      -9.6      5.547      9.874
REMARK  Name = 444698
REMARK  5 active torsions:
REMARK  status: ('A' for Active; 'I' for Inactive)
REMARK    1  A    between atoms: S_1  and  N_4
REMARK    2  A    between atoms: S_1  and  C_18
REMARK    3  A    between atoms: C_5  and  C_15
REMARK    4  A    between atoms: C_15  and  O_16
REMARK    5  A    between atoms: C_21  and  C_24
REMARK                            x       y       z     vdW  Elec       q    Type
REMARK                         _______ _______ _______ _____ _____    ______ ____
ROOT
ATOM      1  S   UNL     1      36.940 -23.278 -15.498  0.00  0.00    +0.064 S 
ATOM      2  O   UNL     1      37.575 -24.519 -15.892  0.00  0.00    -0.153 OA
ATOM      3  O   UNL     1      37.589 -22.335 -14.611  0.00  0.00    -0.153 OA
ENDROOT
BRANCH   1   4
ATOM      4  N   UNL     1      35.378 -23.630 -14.898  0.00  0.00    -0.141 NA
ATOM      5  C   UNL     1      35.229 -24.883 -14.103  0.00  0.00    +0.182 C 
ATOM      6  C   UNL     1      33.895 -25.609 -14.296  0.00  0.00    +0.055 C 
ATOM      7  C   UNL     1      34.237 -23.240 -15.772  0.00  0.00    +0.122 C 
ATOM      8  C   UNL     1      32.727 -24.668 -14.401  0.00  0.00    -0.023 C 
ATOM      9  C   UNL     1      32.898 -23.486 -15.136  0.00  0.00    -0.008 C 
ATOM     10  C   UNL     1      31.482 -24.965 -13.838  0.00  0.00    -0.004 C 
ATOM     11  C   UNL     1      31.824 -22.608 -15.303  0.00  0.00    -0.003 C 
ATOM     12  C   UNL     1      30.418 -24.077 -13.995  0.00  0.00    -0.000 C 
ATOM     13  C   UNL     1      30.588 -22.902 -14.727  0.00  0.00    -0.000 C 
BRANCH   5  15
ATOM     14  O   UNL     1      35.085 -25.081 -11.699  0.00  0.00    -0.249 OA
ATOM     15  C   UNL     1      35.396 -24.429 -12.686  0.00  0.00    +0.330 C 
BRANCH  15  16
ATOM     16  O   UNL     1      35.939 -23.188 -12.641  0.00  0.00    -0.479 OA
ATOM     17  H   UNL     1      35.400 -22.436 -12.787  0.00  0.00    +0.295 HD
ENDBRANCH  15  16
ENDBRANCH   5  15
ENDBRANCH   1   4
BRANCH   1  18
ATOM     18  C   UNL     1      36.738 -22.363 -17.023  0.00  0.00    +0.122 C 
ATOM     19  C   UNL     1      37.586 -21.312 -17.273  0.00  0.00    +0.020 C 
ATOM     20  C   UNL     1      35.741 -22.746 -17.888  0.00  0.00    +0.020 C 
ATOM     21  C   UNL     1      36.427 -20.960 -19.363  0.00  0.00    +0.000 C 
ATOM     22  C   UNL     1      37.428 -20.600 -18.462  0.00  0.00    +0.001 C 
ATOM     23  C   UNL     1      35.583 -22.033 -19.076  0.00  0.00    +0.001 C 
BRANCH  21  24
ATOM     24  C   UNL     1      36.263 -20.221 -20.596  0.00  0.00    +0.000 C 
ATOM     25  C   UNL     1      37.301 -19.420 -21.073  0.00  0.00    +0.000 C 
ATOM     26  C   UNL     1      35.066 -20.309 -21.307  0.00  0.00    +0.000 C 
ATOM     27  C   UNL     1      37.141 -18.707 -22.261  0.00  0.00    +0.000 C 
ATOM     28  C   UNL     1      34.907 -19.596 -22.495  0.00  0.00    +0.000 C 
ATOM     29  C   UNL     1      35.945 -18.795 -22.973  0.00  0.00    +0.000 C 
ENDBRANCH  21  24
ENDBRANCH   1  18
TORSDOF 5
ENDMDL
MODEL 6
REMARK VINA RESULT:      -9.1      5.339     10.184
REMARK  Name = 444698
REMARK  5 active torsions:
REMARK  status: ('A' for Active; 'I' for Inactive)
REMARK    1  A    between atoms: S_1  and  N_4
REMARK    2  A    between atoms: S_1  and  C_18
REMARK    3  A    between atoms: C_5  and  C_15
REMARK    4  A    between atoms: C_15  and  O_16
REMARK    5  A    between atoms: C_21  and  C_24
REMARK                            x       y       z     vdW  Elec       q    Type
REMARK                         _______ _______ _______ _____ _____    ______ ____
ROOT
ATOM      1  S   UNL     1      33.150 -23.696 -16.695  0.00  0.00    +0.064 S 
ATOM      2  O   UNL     1      32.249 -22.815 -15.980  0.00  0.00    -0.153 OA
ATOM      3  O   UNL     1      32.672 -24.859 -17.413  0.00  0.00    -0.153 OA
ENDROOT
BRANCH   1   4
ATOM      4  N   UNL     1      34.408 -24.166 -15.636  0.00  0.00    -0.141 NA
ATOM      5  C   UNL     1      34.689 -23.264 -14.482  0.00  0.00    +0.182 C 
ATOM      6  C   UNL     1      36.165 -23.163 -14.091  0.00  0.00    +0.055 C 
ATOM      7  C   UNL     1      35.574 -24.847 -16.265  0.00  0.00    +0.122 C 
ATOM      8  C   UNL     1      36.885 -24.481 -14.180  0.00  0.00    -0.023 C 
ATOM      9  C   UNL     1      36.588 -25.321 -15.263  0.00  0.00    -0.008 C 
ATOM     10  C   UNL     1      37.862 -24.856 -13.253  0.00  0.00    -0.004 C 
ATOM     11  C   UNL     1      37.271 -26.530 -15.413  0.00  0.00    -0.003 C 
ATOM     12  C   UNL     1      38.529 -26.072 -13.400  0.00  0.00    -0.000 C 
ATOM     13  C   UNL     1      38.235 -26.907 -14.478  0.00  0.00    -0.000 C 
BRANCH   5  15
ATOM     14  O   UNL     1      34.192 -24.822 -12.703  0.00  0.00    -0.249 OA
ATOM     15  C   UNL     1      33.875 -23.847 -13.368  0.00  0.00    +0.330 C 
BRANCH  15  16
ATOM     16  O   UNL     1      32.728 -23.146 -13.194  0.00  0.00    -0.479 OA
ATOM     17  H   UNL     1      32.006 -23.277 -13.777  0.00  0.00    +0.295 HD
ENDBRANCH  15  16
ENDBRANCH   5  15
ENDBRANCH   1   4
BRANCH   1  18
ATOM     18  C   UNL     1      33.875 -22.671 -17.972  0.00  0.00    +0.122 C 
ATOM     19  C   UNL     1      33.040 -22.080 -18.888  0.00  0.00    +0.020 C 
ATOM     20  C   UNL     1      35.239 -22.515 -17.988  0.00  0.00    +0.020 C 
ATOM     21  C   UNL     1      34.986 -21.100 -19.930  0.00  0.00    +0.000 C 
ATOM     22  C   UNL     1      33.605 -21.282 -19.882  0.00  0.00    +0.001 C 
ATOM     23  C   UNL     1      35.804 -21.717 -18.983  0.00  0.00    +0.001 C 
BRANCH  21  24
ATOM     24  C   UNL     1      35.572 -20.273 -20.962  0.00  0.00    +0.000 C 
ATOM     25  C   UNL     1      36.869 -19.783 -20.812  0.00  0.00    +0.000 C 
ATOM     26  C   UNL     1      34.838 -19.965 -22.108  0.00  0.00    +0.000 C 
ATOM     27  C   UNL     1      37.432 -18.984 -21.808  0.00  0.00    +0.000 C 
ATOM     28  C   UNL     1      35.401 -19.167 -23.104  0.00  0.00    +0.000 C 
ATOM     29  C   UNL     1      36.699 -18.676 -22.954  0.00  0.00    +0.000 C 
ENDBRANCH  21  24
ENDBRANCH   1  18
TORSDOF 5
ENDMDL
MODEL 7
REMARK VINA RESULT:      -9.1      5.978     11.610
REMARK  Name = 444698
REMARK  5 active torsions:
REMARK  status: ('A' for Active; 'I' for Inactive)
REMARK    1  A    between atoms: S_1  and  N_4
REMARK    2  A    between atoms: S_1  and  C_18
REMARK    3  A    between atoms: C_5  and  C_15
REMARK    4  A    between atoms: C_15  and  O_16
REMARK    5  A    between atoms: C_21  and  C_24
REMARK                            x       y       z     vdW  Elec       q    Type
REMARK                         _______ _______ _______ _____ _____    ______ ____
ROOT
ATOM      1  S   UNL     1      31.876 -11.375 -20.808  0.00  0.00    +0.064 S 
ATOM      2  O   UNL     1      32.546 -11.171 -19.540  0.00  0.00    -0.153 OA
ATOM      3  O   UNL     1      30.445 -11.583 -20.893  0.00  0.00    -0.153 OA
ENDROOT
BRANCH   1   4
ATOM      4  N   UNL     1      32.678 -12.628 -21.652  0.00  0.00    -0.141 NA
ATOM      5  C   UNL     1      33.732 -13.374 -20.908  0.00  0.00    +0.182 C 
ATOM      6  C   UNL     1      34.928 -13.812 -21.756  0.00  0.00    +0.055 C 
ATOM      7  C   UNL     1      32.907 -12.396 -23.106  0.00  0.00    +0.122 C 
ATOM      8  C   UNL     1      34.530 -14.284 -23.127  0.00  0.00    -0.023 C 
ATOM      9  C   UNL     1      33.521 -13.580 -23.799  0.00  0.00    -0.008 C 
ATOM     10  C   UNL     1      35.168 -15.358 -23.756  0.00  0.00    -0.004 C 
ATOM     11  C   UNL     1      33.156 -13.951 -25.095  0.00  0.00    -0.003 C 
ATOM     12  C   UNL     1      34.789 -15.734 -25.045  0.00  0.00    -0.000 C 
ATOM     13  C   UNL     1      33.786 -15.032 -25.714  0.00  0.00    -0.000 C 
BRANCH   5  15
ATOM     14  O   UNL     1      31.802 -14.606 -20.134  0.00  0.00    -0.249 OA
ATOM     15  C   UNL     1      33.005 -14.558 -20.349  0.00  0.00    +0.330 C 
BRANCH  15  16
ATOM     16  O   UNL     1      33.863 -15.579 -20.109  0.00  0.00    -0.479 OA
ATOM     17  H   UNL     1      34.684 -15.411 -19.688  0.00  0.00    +0.295 HD
ENDBRANCH  15  16
ENDBRANCH   5  15
ENDBRANCH   1   4
BRANCH   1  18
ATOM     18  C   UNL     1      32.144  -9.856 -21.717  0.00  0.00    +0.122 C 
ATOM     19  C   UNL     1      31.618  -9.749 -22.981  0.00  0.00    +0.020 C 
ATOM     20  C   UNL     1      32.866  -8.854 -21.116  0.00  0.00    +0.020 C 
ATOM     21  C   UNL     1      32.555  -7.526 -23.110  0.00  0.00    +0.000 C 
ATOM     22  C   UNL     1      31.827  -8.565 -23.689  0.00  0.00    +0.001 C 
ATOM     23  C   UNL     1      33.075  -7.671 -21.824  0.00  0.00    +0.001 C 
BRANCH  21  24
ATOM     24  C   UNL     1      32.772  -6.299 -23.845  0.00  0.00    +0.000 C 
ATOM     25  C   UNL     1      31.880  -5.235 -23.707  0.00  0.00    +0.000 C 
ATOM     26  C   UNL     1      33.874  -6.179 -24.692  0.00  0.00    +0.000 C 
ATOM     27  C   UNL     1      32.090  -4.053 -24.416  0.00  0.00    +0.000 C 
ATOM     28  C   UNL     1      34.084  -4.997 -25.400  0.00  0.00    +0.000 C 
ATOM     29  C   UNL     1      33.192  -3.932 -25.263  0.00  0.00    +0.000 C 
ENDBRANCH  21  24
ENDBRANCH   1  18
TORSDOF 5
ENDMDL
MODEL 8
REMARK VINA RESULT:      -9.1      5.616     10.412
REMARK  Name = 444698
REMARK  5 active torsions:
REMARK  status: ('A' for Active; 'I' for Inactive)
REMARK    1  A    between atoms: S_1  and  N_4
REMARK    2  A    between atoms: S_1  and  C_18
REMARK    3  A    between atoms: C_5  and  C_15
REMARK    4  A    between atoms: C_15  and  O_16
REMARK    5  A    between atoms: C_21  and  C_24
REMARK                            x       y       z     vdW  Elec       q    Type
REMARK                         _______ _______ _______ _____ _____    ______ ____
ROOT
ATOM      1  S   UNL     1      33.716 -23.792 -16.033  0.00  0.00    +0.064 S 
ATOM      2  O   UNL     1      32.904 -22.888 -15.243  0.00  0.00    -0.153 OA
ATOM      3  O   UNL     1      33.159 -24.978 -16.650  0.00  0.00    -0.153 OA
ENDROOT
BRANCH   1   4
ATOM      4  N   UNL     1      35.094 -24.227 -15.119  0.00  0.00    -0.141 NA
ATOM      5  C   UNL     1      35.229 -23.608 -13.769  0.00  0.00    +0.182 C 
ATOM      6  C   UNL     1      36.667 -23.289 -13.351  0.00  0.00    +0.055 C 
ATOM      7  C   UNL     1      36.347 -24.455 -15.891  0.00  0.00    +0.122 C 
ATOM      8  C   UNL     1      37.647 -24.351 -13.770  0.00  0.00    -0.023 C 
ATOM      9  C   UNL     1      37.486 -24.933 -15.035  0.00  0.00    -0.008 C 
ATOM     10  C   UNL     1      38.725 -24.725 -12.962  0.00  0.00    -0.004 C 
ATOM     11  C   UNL     1      38.403 -25.886 -15.485  0.00  0.00    -0.003 C 
ATOM     12  C   UNL     1      39.629 -25.688 -13.410  0.00  0.00    -0.000 C 
ATOM     13  C   UNL     1      39.469 -26.267 -14.670  0.00  0.00    -0.000 C 
BRANCH   5  15
ATOM     14  O   UNL     1      35.108 -25.009 -11.803  0.00  0.00    -0.249 OA
ATOM     15  C   UNL     1      34.613 -24.618 -12.850  0.00  0.00    +0.330 C 
BRANCH  15  16
ATOM     16  O   UNL     1      33.423 -25.046 -13.337  0.00  0.00    -0.479 OA
ATOM     17  H   UNL     1      32.981 -24.549 -13.997  0.00  0.00    +0.295 HD
ENDBRANCH  15  16
ENDBRANCH   5  15
ENDBRANCH   1   4
BRANCH   1  18
ATOM     18  C   UNL     1      34.277 -22.809 -17.420  0.00  0.00    +0.122 C 
ATOM     19  C   UNL     1      35.588 -22.402 -17.445  0.00  0.00    +0.020 C 
ATOM     20  C   UNL     1      33.375 -22.499 -18.408  0.00  0.00    +0.020 C 
ATOM     21  C   UNL     1      35.138 -21.302 -19.547  0.00  0.00    +0.000 C 
ATOM     22  C   UNL     1      36.025 -21.636 -18.525  0.00  0.00    +0.001 C 
ATOM     23  C   UNL     1      33.812 -21.733 -19.489  0.00  0.00    +0.001 C 
BRANCH  21  24
ATOM     24  C   UNL     1      35.591 -20.507 -20.668  0.00  0.00    +0.000 C 
ATOM     25  C   UNL     1      34.735 -20.259 -21.740  0.00  0.00    +0.000 C 
ATOM     26  C   UNL     1      36.887 -19.990 -20.675  0.00  0.00    +0.000 C 
ATOM     27  C   UNL     1      35.174 -19.493 -22.820  0.00  0.00    +0.000 C 
ATOM     28  C   UNL     1      37.326 -19.223 -21.755  0.00  0.00    +0.000 C 
ATOM     29  C   UNL     1      36.468 -18.975 -22.828  0.00  0.00    +0.000 C 
ENDBRANCH  21  24
ENDBRANCH   1  18
TORSDOF 5
ENDMDL
MODEL 9
REMARK VINA RESULT:      -9.1      5.676      8.591
REMARK  Name = 444698
REMARK  5 active torsions:
REMARK  status: ('A' for Active; 'I' for Inactive)
REMARK    1  A    between atoms: S_1  and  N_4
REMARK    2  A    between atoms: S_1  and  C_18
REMARK    3  A    between atoms: C_5  and  C_15
REMARK    4  A    between atoms: C_15  and  O_16
REMARK    5  A    between atoms: C_21  and  C_24
REMARK                            x       y       z     vdW  Elec       q    Type
REMARK                         _______ _______ _______ _____ _____    ______ ____
ROOT
ATOM      1  S   UNL     1      31.567 -11.208 -20.957  0.00  0.00    +0.064 S 
ATOM      2  O   UNL     1      30.280 -11.418 -21.588  0.00  0.00    -0.153 OA
ATOM      3  O   UNL     1      31.711 -11.135 -19.518  0.00  0.00    -0.153 OA
ENDROOT
BRANCH   1   4
ATOM      4  N   UNL     1      32.304  -9.837 -21.666  0.00  0.00    -0.141 NA
ATOM      5  C   UNL     1      31.680  -8.513 -21.379  0.00  0.00    +0.182 C 
ATOM      6  C   UNL     1      31.727  -7.517 -22.539  0.00  0.00    +0.055 C 
ATOM      7  C   UNL     1      32.887 -10.033 -23.022  0.00  0.00    +0.122 C 
ATOM      8  C   UNL     1      33.026  -7.562 -23.296  0.00  0.00    -0.023 C 
ATOM      9  C   UNL     1      33.605  -8.817 -23.535  0.00  0.00    -0.008 C 
ATOM     10  C   UNL     1      33.631  -6.408 -23.802  0.00  0.00    -0.004 C 
ATOM     11  C   UNL     1      34.784  -8.910 -24.278  0.00  0.00    -0.003 C 
ATOM     12  C   UNL     1      34.817  -6.506 -24.531  0.00  0.00    -0.000 C 
ATOM     13  C   UNL     1      35.392  -7.754 -24.769  0.00  0.00    -0.000 C 
BRANCH   5  15
ATOM     14  O   UNL     1      33.451  -7.306 -20.262  0.00  0.00    -0.249 OA
ATOM     15  C   UNL     1      32.449  -8.004 -20.199  0.00  0.00    +0.330 C 
BRANCH  15  16
ATOM     16  O   UNL     1      31.884  -8.423 -19.041  0.00  0.00    -0.479 OA
ATOM     17  H   UNL     1      32.120  -9.255 -18.679  0.00  0.00    +0.295 HD
ENDBRANCH  15  16
ENDBRANCH   5  15
ENDBRANCH   1   4
BRANCH   1  18
ATOM     18  C   UNL     1      32.540 -12.639 -21.415  0.00  0.00    +0.122 C 
ATOM     19  C   UNL     1      32.773 -12.872 -22.748  0.00  0.00    +0.020 C 
ATOM     20  C   UNL     1      33.018 -13.451 -20.415  0.00  0.00    +0.020 C 
ATOM     21  C   UNL     1      34.032 -14.834 -22.116  0.00  0.00    +0.000 C 
ATOM     22  C   UNL     1      33.531 -13.988 -23.104  0.00  0.00    +0.001 C 
ATOM     23  C   UNL     1      33.776 -14.566 -20.771  0.00  0.00    +0.001 C 
BRANCH  21  24
ATOM     24  C   UNL     1      34.818 -15.991 -22.486  0.00  0.00    +0.000 C 
ATOM     25  C   UNL     1      35.051 -16.277 -23.831  0.00  0.00    +0.000 C 
ATOM     26  C   UNL     1      35.344 -16.822 -21.495  0.00  0.00    +0.000 C 
ATOM     27  C   UNL     1      35.808 -17.393 -24.186  0.00  0.00    +0.000 C 
ATOM     28  C   UNL     1      36.102 -17.938 -21.850  0.00  0.00    +0.000 C 
ATOM     29  C   UNL     1      36.334 -18.224 -23.197  0.00  0.00    +0.000 C 
ENDBRANCH  21  24
ENDBRANCH   1  18
TORSDOF 5
ENDMDL
