MODEL 1
REMARK VINA RESULT:     -12.0      0.000      0.000
REMARK  Name = 24941248
REMARK  7 active torsions:
REMARK  status: ('A' for Active; 'I' for Inactive)
REMARK    1  A    between atoms: N_2  and  C_24
REMARK    2  A    between atoms: C_6  and  C_14
REMARK    3  A    between atoms: C_13  and  C_19
REMARK    4  A    between atoms: C_19  and  C_20
REMARK    5  A    between atoms: C_20  and  C_21
REMARK    6  A    between atoms: C_21  and  O_22
REMARK    7  A    between atoms: C_24  and  C_26
REMARK                            x       y       z     vdW  Elec       q    Type
REMARK                         _______ _______ _______ _____ _____    ______ ____
ROOT
ATOM      1  O   UNL     1      33.840 -15.677 -26.620  0.00  0.00    -0.352 OA
ATOM      2  N   UNL     1      35.881 -17.763 -22.042  0.00  0.00    -0.316 N 
ATOM      3  N   UNL     1      33.473 -14.391 -26.243  0.00  0.00    -0.077 NA
ATOM      4  N   UNL     1      35.357 -18.082 -24.343  0.00  0.00    -0.226 NA
ATOM      5  C   UNL     1      34.373 -15.482 -24.452  0.00  0.00    +0.062 A 
ATOM      6  C   UNL     1      33.798 -14.296 -24.950  0.00  0.00    +0.123 A 
ATOM      7  C   UNL     1      35.357 -17.260 -23.262  0.00  0.00    +0.129 C 
ATOM      8  C   UNL     1      34.883 -15.952 -23.241  0.00  0.00    +0.039 C 
ATOM      9  C   UNL     1      34.375 -16.324 -25.551  0.00  0.00    +0.196 A 
ATOM     10  C   UNL     1      34.861 -17.617 -25.515  0.00  0.00    +0.140 C 
ATOM     11  H   UNL     1      35.887 -17.176 -21.251  0.00  0.00    +0.148 HD
ENDROOT
BRANCH   6  14
ATOM     12 CL   UNL     1      34.806  -9.278 -24.326  0.00  0.00    -0.082 Cl
ATOM     13  C   UNL     1      32.406 -11.883 -22.466  0.00  0.00    -0.021 C 
ATOM     14  C   UNL     1      33.552 -13.076 -24.226  0.00  0.00    +0.021 C 
ATOM     15  C   UNL     1      32.645 -13.065 -23.167  0.00  0.00    -0.003 C 
ATOM     16  C   UNL     1      33.075 -10.712 -22.825  0.00  0.00    +0.007 C 
ATOM     17  C   UNL     1      34.221 -11.905 -24.585  0.00  0.00    +0.013 C 
ATOM     18  C   UNL     1      33.981 -10.723 -23.884  0.00  0.00    +0.057 C 
BRANCH  13  19
ATOM     19  C   UNL     1      31.436 -11.870 -21.334  0.00  0.00    +0.029 C 
BRANCH  19  20
ATOM     20  C   UNL     1      32.099 -12.221 -19.996  0.00  0.00    +0.036 C 
BRANCH  20  21
ATOM     21  C   UNL     1      31.799 -11.189 -18.919  0.00  0.00    +0.138 C 
BRANCH  21  22
ATOM     22  O   UNL     1      32.678 -10.084 -19.083  0.00  0.00    -0.382 OA
ATOM     23  H   UNL     1      33.482 -10.377 -19.539  0.00  0.00    +0.210 HD
ENDBRANCH  21  22
ENDBRANCH  20  21
ENDBRANCH  19  20
ENDBRANCH  13  19
ENDBRANCH   6  14
BRANCH   2  24
ATOM     24  C   UNL     1      36.399 -19.085 -21.915  0.00  0.00    +0.093 C 
ATOM     25  C   UNL     1      37.782 -19.030 -21.271  0.00  0.00    +0.026 C 
BRANCH  24  26
ATOM     26  C   UNL     1      35.426 -19.957 -21.152  0.00  0.00    -0.005 C 
ATOM     27  C   UNL     1      34.054 -19.784 -21.320  0.00  0.00    -0.003 C 
ATOM     28  C   UNL     1      35.903 -20.937 -20.280  0.00  0.00    -0.003 C 
ATOM     29  C   UNL     1      33.156 -20.587 -20.616  0.00  0.00    -0.000 C 
ATOM     30  C   UNL     1      35.007 -21.740 -19.576  0.00  0.00    -0.000 C 
ATOM     31  C   UNL     1      33.633 -21.566 -19.745  0.00  0.00    -0.000 C 
ENDBRANCH  24  26
ENDBRANCH   2  24
TORSDOF 7
ENDMDL
MODEL 2
REMARK VINA RESULT:     -11.4      1.675      2.418
REMARK  Name = 24941248
REMARK  7 active torsions:
REMARK  status: ('A' for Active; 'I' for Inactive)
REMARK    1  A    between atoms: N_2  and  C_24
REMARK    2  A    between atoms: C_6  and  C_14
REMARK    3  A    between atoms: C_13  and  C_19
REMARK    4  A    between atoms: C_19  and  C_20
REMARK    5  A    between atoms: C_20  and  C_21
REMARK    6  A    between atoms: C_21  and  O_22
REMARK    7  A    between atoms: C_24  and  C_26
REMARK                            x       y       z     vdW  Elec       q    Type
REMARK                         _______ _______ _______ _____ _____    ______ ____
ROOT
ATOM      1  O   UNL     1      33.933 -14.858 -26.329  0.00  0.00    -0.352 OA
ATOM      2  N   UNL     1      35.706 -17.607 -21.995  0.00  0.00    -0.316 N 
ATOM      3  N   UNL     1      33.434 -13.686 -25.774  0.00  0.00    -0.077 NA
ATOM      4  N   UNL     1      35.420 -17.537 -24.358  0.00  0.00    -0.226 NA
ATOM      5  C   UNL     1      34.249 -15.025 -24.116  0.00  0.00    +0.062 A 
ATOM      6  C   UNL     1      33.631 -13.806 -24.457  0.00  0.00    +0.123 A 
ATOM      7  C   UNL     1      35.258 -16.926 -23.156  0.00  0.00    +0.129 C 
ATOM      8  C   UNL     1      34.682 -15.674 -22.958  0.00  0.00    +0.039 C 
ATOM      9  C   UNL     1      34.417 -15.653 -25.338  0.00  0.00    +0.196 A 
ATOM     10  C   UNL     1      34.997 -16.900 -25.477  0.00  0.00    +0.140 C 
ATOM     11  H   UNL     1      35.594 -17.173 -21.118  0.00  0.00    +0.148 HD
ENDROOT
BRANCH   6  14
ATOM     12 CL   UNL     1      31.539 -12.436 -19.949  0.00  0.00    -0.082 Cl
ATOM     13  C   UNL     1      33.021 -10.401 -23.057  0.00  0.00    -0.021 C 
ATOM     14  C   UNL     1      33.226 -12.754 -23.562  0.00  0.00    +0.021 C 
ATOM     15  C   UNL     1      33.413 -11.420 -23.924  0.00  0.00    -0.003 C 
ATOM     16  C   UNL     1      32.441 -10.715 -21.827  0.00  0.00    +0.007 C 
ATOM     17  C   UNL     1      32.646 -13.068 -22.333  0.00  0.00    +0.013 C 
ATOM     18  C   UNL     1      32.254 -12.049 -21.465  0.00  0.00    +0.057 C 
BRANCH  13  19
ATOM     19  C   UNL     1      33.222  -8.974 -23.443  0.00  0.00    +0.029 C 
BRANCH  19  20
ATOM     20  C   UNL     1      32.614  -8.004 -22.421  0.00  0.00    +0.036 C 
BRANCH  20  21
ATOM     21  C   UNL     1      33.680  -7.312 -21.584  0.00  0.00    +0.138 C 
BRANCH  21  22
ATOM     22  O   UNL     1      33.527  -7.707 -20.227  0.00  0.00    -0.382 OA
ATOM     23  H   UNL     1      33.329  -8.656 -20.188  0.00  0.00    +0.210 HD
ENDBRANCH  21  22
ENDBRANCH  20  21
ENDBRANCH  19  20
ENDBRANCH  13  19
ENDBRANCH   6  14
BRANCH   2  24
ATOM     24  C   UNL     1      36.313 -18.896 -22.047  0.00  0.00    +0.093 C 
ATOM     25  C   UNL     1      37.774 -18.789 -21.617  0.00  0.00    +0.026 C 
BRANCH  24  26
ATOM     26  C   UNL     1      35.522 -19.880 -21.212  0.00  0.00    -0.005 C 
ATOM     27  C   UNL     1      36.186 -20.812 -20.416  0.00  0.00    -0.003 C 
ATOM     28  C   UNL     1      34.127 -19.854 -21.238  0.00  0.00    -0.003 C 
ATOM     29  C   UNL     1      35.457 -21.720 -19.647  0.00  0.00    -0.000 C 
ATOM     30  C   UNL     1      33.398 -20.761 -20.469  0.00  0.00    -0.000 C 
ATOM     31  C   UNL     1      34.063 -21.693 -19.673  0.00  0.00    -0.000 C 
ENDBRANCH  24  26
ENDBRANCH   2  24
TORSDOF 7
ENDMDL
MODEL 3
REMARK VINA RESULT:     -10.6      7.616     12.776
REMARK  Name = 24941248
REMARK  7 active torsions:
REMARK  status: ('A' for Active; 'I' for Inactive)
REMARK    1  A    between atoms: N_2  and  C_24
REMARK    2  A    between atoms: C_6  and  C_14
REMARK    3  A    between atoms: C_13  and  C_19
REMARK    4  A    between atoms: C_19  and  C_20
REMARK    5  A    between atoms: C_20  and  C_21
REMARK    6  A    between atoms: C_21  and  O_22
REMARK    7  A    between atoms: C_24  and  C_26
REMARK                            x       y       z     vdW  Elec       q    Type
REMARK                         _______ _______ _______ _____ _____    ______ ____
ROOT
ATOM      1  O   UNL     1      31.754 -24.256 -15.070  0.00  0.00    -0.352 OA
ATOM      2  N   UNL     1      34.716 -22.063 -19.058  0.00  0.00    -0.316 N 
ATOM      3  N   UNL     1      32.715 -24.668 -14.156  0.00  0.00    -0.077 NA
ATOM      4  N   UNL     1      32.554 -22.608 -18.219  0.00  0.00    -0.226 NA
ATOM      5  C   UNL     1      33.739 -23.698 -15.950  0.00  0.00    +0.062 A 
ATOM      6  C   UNL     1      33.889 -24.328 -14.698  0.00  0.00    +0.123 A 
ATOM      7  C   UNL     1      33.901 -22.625 -18.040  0.00  0.00    +0.129 C 
ATOM      8  C   UNL     1      34.563 -23.151 -16.935  0.00  0.00    +0.039 C 
ATOM      9  C   UNL     1      32.367 -23.679 -16.138  0.00  0.00    +0.196 A 
ATOM     10  C   UNL     1      31.762 -23.141 -17.257  0.00  0.00    +0.140 C 
ATOM     11  H   UNL     1      35.693 -22.068 -18.938  0.00  0.00    +0.148 HD
ENDROOT
BRANCH   6  14
ATOM     12 CL   UNL     1      36.733 -23.870 -10.423  0.00  0.00    -0.082 Cl
ATOM     13  C   UNL     1      37.315 -25.618 -13.973  0.00  0.00    -0.021 C 
ATOM     14  C   UNL     1      35.119 -24.612 -14.008  0.00  0.00    +0.021 C 
ATOM     15  C   UNL     1      36.123 -25.342 -14.643  0.00  0.00    -0.003 C 
ATOM     16  C   UNL     1      37.503 -25.163 -12.668  0.00  0.00    +0.007 C 
ATOM     17  C   UNL     1      35.308 -24.156 -12.702  0.00  0.00    +0.013 C 
ATOM     18  C   UNL     1      36.500 -24.432 -12.033  0.00  0.00    +0.057 C 
BRANCH  13  19
ATOM     19  C   UNL     1      38.388 -26.401 -14.652  0.00  0.00    +0.029 C 
BRANCH  19  20
ATOM     20  C   UNL     1      39.789 -26.016 -14.158  0.00  0.00    +0.036 C 
BRANCH  20  21
ATOM     21  C   UNL     1      40.579 -25.253 -15.212  0.00  0.00    +0.138 C 
BRANCH  21  22
ATOM     22  O   UNL     1      40.629 -26.030 -16.401  0.00  0.00    -0.382 OA
ATOM     23  H   UNL     1      40.593 -26.972 -16.172  0.00  0.00    +0.210 HD
ENDBRANCH  21  22
ENDBRANCH  20  21
ENDBRANCH  19  20
ENDBRANCH  13  19
ENDBRANCH   6  14
BRANCH   2  24
ATOM     24  C   UNL     1      34.175 -21.490 -20.246  0.00  0.00    +0.093 C 
ATOM     25  C   UNL     1      32.834 -20.833 -19.930  0.00  0.00    +0.026 C 
BRANCH  24  26
ATOM     26  C   UNL     1      35.171 -20.533 -20.865  0.00  0.00    -0.005 C 
ATOM     27  C   UNL     1      34.799 -19.747 -21.954  0.00  0.00    -0.003 C 
ATOM     28  C   UNL     1      36.462 -20.437 -20.344  0.00  0.00    -0.003 C 
ATOM     29  C   UNL     1      35.717 -18.865 -22.525  0.00  0.00    -0.000 C 
ATOM     30  C   UNL     1      37.380 -19.556 -20.915  0.00  0.00    -0.000 C 
ATOM     31  C   UNL     1      37.007 -18.769 -22.004  0.00  0.00    -0.000 C 
ENDBRANCH  24  26
ENDBRANCH   2  24
TORSDOF 7
ENDMDL
MODEL 4
REMARK VINA RESULT:     -10.0      3.965      9.987
REMARK  Name = 24941248
REMARK  7 active torsions:
REMARK  status: ('A' for Active; 'I' for Inactive)
REMARK    1  A    between atoms: N_2  and  C_24
REMARK    2  A    between atoms: C_6  and  C_14
REMARK    3  A    between atoms: C_13  and  C_19
REMARK    4  A    between atoms: C_19  and  C_20
REMARK    5  A    between atoms: C_20  and  C_21
REMARK    6  A    between atoms: C_21  and  O_22
REMARK    7  A    between atoms: C_24  and  C_26
REMARK                            x       y       z     vdW  Elec       q    Type
REMARK                         _______ _______ _______ _____ _____    ______ ____
ROOT
ATOM      1  O   UNL     1      31.686 -12.664 -20.555  0.00  0.00    -0.352 OA
ATOM      2  N   UNL     1      33.091  -8.366 -23.561  0.00  0.00    -0.316 N 
ATOM      3  N   UNL     1      32.219 -13.732 -21.266  0.00  0.00    -0.077 NA
ATOM      4  N   UNL     1      31.994  -9.193 -21.615  0.00  0.00    -0.226 NA
ATOM      5  C   UNL     1      32.690 -11.782 -22.354  0.00  0.00    +0.062 A 
ATOM      6  C   UNL     1      32.812 -13.186 -22.333  0.00  0.00    +0.123 A 
ATOM      7  C   UNL     1      32.702  -9.460 -22.743  0.00  0.00    +0.129 C 
ATOM      8  C   UNL     1      33.086 -10.726 -23.176  0.00  0.00    +0.039 C 
ATOM      9  C   UNL     1      31.969 -11.505 -21.207  0.00  0.00    +0.196 A 
ATOM     10  C   UNL     1      31.615 -10.225 -20.823  0.00  0.00    +0.140 C 
ATOM     11  H   UNL     1      33.606  -8.548 -24.381  0.00  0.00    +0.148 HD
ENDROOT
BRANCH   6  14
ATOM     12 CL   UNL     1      33.673 -14.340 -27.283  0.00  0.00    -0.082 Cl
ATOM     13  C   UNL     1      34.969 -15.848 -23.813  0.00  0.00    -0.021 C 
ATOM     14  C   UNL     1      33.477 -14.019 -23.301  0.00  0.00    +0.021 C 
ATOM     15  C   UNL     1      34.324 -15.042 -22.875  0.00  0.00    -0.003 C 
ATOM     16  C   UNL     1      34.768 -15.631 -25.176  0.00  0.00    +0.007 C 
ATOM     17  C   UNL     1      33.276 -13.801 -24.664  0.00  0.00    +0.013 C 
ATOM     18  C   UNL     1      33.921 -14.607 -25.601  0.00  0.00    +0.057 C 
BRANCH  13  19
ATOM     19  C   UNL     1      35.876 -16.941 -23.358  0.00  0.00    +0.029 C 
BRANCH  19  20
ATOM     20  C   UNL     1      35.314 -18.333 -23.679  0.00  0.00    +0.036 C 
BRANCH  20  21
ATOM     21  C   UNL     1      35.261 -19.227 -22.449  0.00  0.00    +0.138 C 
BRANCH  21  22
ATOM     22  O   UNL     1      35.444 -18.426 -21.290  0.00  0.00    -0.382 OA
ATOM     23  H   UNL     1      35.851 -17.582 -21.542  0.00  0.00    +0.210 HD
ENDBRANCH  21  22
ENDBRANCH  20  21
ENDBRANCH  19  20
ENDBRANCH  13  19
ENDBRANCH   6  14
BRANCH   2  24
ATOM     24  C   UNL     1      32.767  -7.015 -23.243  0.00  0.00    +0.093 C 
ATOM     25  C   UNL     1      33.287  -6.682 -21.846  0.00  0.00    +0.026 C 
BRANCH  24  26
ATOM     26  C   UNL     1      33.300  -6.084 -24.310  0.00  0.00    -0.005 C 
ATOM     27  C   UNL     1      32.519  -5.022 -24.763  0.00  0.00    -0.003 C 
ATOM     28  C   UNL     1      34.574  -6.288 -24.840  0.00  0.00    -0.003 C 
ATOM     29  C   UNL     1      33.010  -4.164 -25.747  0.00  0.00    -0.000 C 
ATOM     30  C   UNL     1      35.066  -5.431 -25.824  0.00  0.00    -0.000 C 
ATOM     31  C   UNL     1      34.284  -4.368 -26.277  0.00  0.00    -0.000 C 
ENDBRANCH  24  26
ENDBRANCH   2  24
TORSDOF 7
ENDMDL
MODEL 5
REMARK VINA RESULT:      -9.4      7.572     12.277
REMARK  Name = 24941248
REMARK  7 active torsions:
REMARK  status: ('A' for Active; 'I' for Inactive)
REMARK    1  A    between atoms: N_2  and  C_24
REMARK    2  A    between atoms: C_6  and  C_14
REMARK    3  A    between atoms: C_13  and  C_19
REMARK    4  A    between atoms: C_19  and  C_20
REMARK    5  A    between atoms: C_20  and  C_21
REMARK    6  A    between atoms: C_21  and  O_22
REMARK    7  A    between atoms: C_24  and  C_26
REMARK                            x       y       z     vdW  Elec       q    Type
REMARK                         _______ _______ _______ _____ _____    ______ ____
ROOT
ATOM      1  O   UNL     1      32.298 -24.151 -15.597  0.00  0.00    -0.352 OA
ATOM      2  N   UNL     1      34.899 -21.646 -19.651  0.00  0.00    -0.316 N 
ATOM      3  N   UNL     1      33.331 -24.528 -14.747  0.00  0.00    -0.077 NA
ATOM      4  N   UNL     1      32.824 -22.357 -18.723  0.00  0.00    -0.226 NA
ATOM      5  C   UNL     1      34.194 -23.438 -16.557  0.00  0.00    +0.062 A 
ATOM      6  C   UNL     1      34.450 -24.095 -15.337  0.00  0.00    +0.123 A 
ATOM      7  C   UNL     1      34.177 -22.292 -18.614  0.00  0.00    +0.129 C 
ATOM      8  C   UNL     1      34.928 -22.808 -17.562  0.00  0.00    +0.039 C 
ATOM      9  C   UNL     1      32.816 -23.503 -16.674  0.00  0.00    +0.196 A 
ATOM     10  C   UNL     1      32.119 -22.971 -17.742  0.00  0.00    +0.140 C 
ATOM     11  H   UNL     1      35.880 -21.591 -19.582  0.00  0.00    +0.148 HD
ENDROOT
BRANCH   6  14
ATOM     12 CL   UNL     1      38.880 -26.730 -15.242  0.00  0.00    -0.082 Cl
ATOM     13  C   UNL     1      37.359 -23.771 -13.021  0.00  0.00    -0.021 C 
ATOM     14  C   UNL     1      35.730 -24.319 -14.719  0.00  0.00    +0.021 C 
ATOM     15  C   UNL     1      36.117 -23.555 -13.619  0.00  0.00    -0.003 C 
ATOM     16  C   UNL     1      38.213 -24.753 -13.523  0.00  0.00    +0.007 C 
ATOM     17  C   UNL     1      36.585 -25.301 -15.221  0.00  0.00    +0.013 C 
ATOM     18  C   UNL     1      37.826 -25.518 -14.623  0.00  0.00    +0.057 C 
BRANCH  13  19
ATOM     19  C   UNL     1      37.773 -22.952 -11.846  0.00  0.00    +0.029 C 
BRANCH  19  20
ATOM     20  C   UNL     1      36.902 -23.223 -10.612  0.00  0.00    +0.036 C 
BRANCH  20  21
ATOM     21  C   UNL     1      36.366 -24.647 -10.590  0.00  0.00    +0.138 C 
BRANCH  21  22
ATOM     22  O   UNL     1      35.362 -24.744  -9.589  0.00  0.00    -0.382 OA
ATOM     23  H   UNL     1      34.698 -24.052  -9.729  0.00  0.00    +0.210 HD
ENDBRANCH  21  22
ENDBRANCH  20  21
ENDBRANCH  19  20
ENDBRANCH  13  19
ENDBRANCH   6  14
BRANCH   2  24
ATOM     24  C   UNL     1      34.262 -21.072 -20.790  0.00  0.00    +0.093 C 
ATOM     25  C   UNL     1      32.972 -20.379 -20.356  0.00  0.00    +0.026 C 
BRANCH  24  26
ATOM     26  C   UNL     1      35.216 -20.147 -21.513  0.00  0.00    -0.005 C 
ATOM     27  C   UNL     1      36.433 -19.804 -20.927  0.00  0.00    -0.003 C 
ATOM     28  C   UNL     1      34.877 -19.637 -22.767  0.00  0.00    -0.003 C 
ATOM     29  C   UNL     1      37.313 -18.950 -21.593  0.00  0.00    -0.000 C 
ATOM     30  C   UNL     1      35.756 -18.783 -23.433  0.00  0.00    -0.000 C 
ATOM     31  C   UNL     1      36.974 -18.440 -22.846  0.00  0.00    -0.000 C 
ENDBRANCH  24  26
ENDBRANCH   2  24
TORSDOF 7
ENDMDL
