MODEL 1
REMARK VINA RESULT:     -11.7      0.000      0.000
REMARK  Name = 46937030
REMARK  7 active torsions:
REMARK  status: ('A' for Active; 'I' for Inactive)
REMARK    1  A    between atoms: C_3  and  C_10
REMARK    2  A    between atoms: C_7  and  C_25
REMARK    3  A    between atoms: N_9  and  C_12
REMARK    4  A    between atoms: C_12  and  C_13
REMARK    5  A    between atoms: C_18  and  C_21
REMARK    6  A    between atoms: C_25  and  N_26
REMARK    7  A    between atoms: N_26  and  C_29
REMARK                            x       y       z     vdW  Elec       q    Type
REMARK                         _______ _______ _______ _____ _____    ______ ____
ROOT
ATOM      1  O   UNL     1      35.516 -25.467 -11.999  0.00  0.00    -0.277 OA
ATOM      2  N   UNL     1      36.288 -24.286 -13.829  0.00  0.00    -0.275 N 
ATOM      3  C   UNL     1      36.186 -23.242 -14.847  0.00  0.00    +0.152 C 
ATOM      4  C   UNL     1      37.633 -22.919 -15.207  0.00  0.00    +0.031 C 
ATOM      5  C   UNL     1      37.645 -24.811 -13.751  0.00  0.00    +0.094 C 
ATOM      6  C   UNL     1      38.363 -24.237 -14.962  0.00  0.00    +0.024 C 
ATOM      7  C   UNL     1      35.316 -24.672 -12.920  0.00  0.00    +0.204 C 
ENDROOT
BRANCH   3  10
ATOM      8  O   UNL     1      35.288 -25.024 -16.156  0.00  0.00    -0.273 OA
ATOM      9  N   UNL     1      35.055 -22.836 -16.917  0.00  0.00    -0.299 N 
ATOM     10  C   UNL     1      35.461 -23.815 -16.027  0.00  0.00    +0.241 C 
ATOM     11  H   UNL     1      35.252 -21.896 -16.703  0.00  0.00    +0.150 HD
BRANCH   9  12
ATOM     12  C   UNL     1      34.355 -23.128 -18.148  0.00  0.00    +0.116 C 
BRANCH  12  13
ATOM     13  C   UNL     1      34.569 -22.060 -19.182  0.00  0.00    -0.003 C 
ATOM     14  C   UNL     1      35.865 -21.679 -19.531  0.00  0.00    -0.003 C 
ATOM     15  C   UNL     1      33.473 -21.451 -19.793  0.00  0.00    -0.003 C 
ATOM     16  C   UNL     1      36.064 -20.687 -20.492  0.00  0.00    +0.002 C 
ATOM     17  C   UNL     1      33.673 -20.459 -20.753  0.00  0.00    +0.002 C 
ATOM     18  C   UNL     1      34.968 -20.078 -21.103  0.00  0.00    +0.031 C 
BRANCH  18  21
ATOM     19  N   UNL     1      34.890 -19.271 -23.450  0.00  0.00    -0.343 N 
ATOM     20  N   UNL     1      35.649 -17.864 -21.746  0.00  0.00    -0.285 NA
ATOM     21  C   UNL     1      35.176 -19.045 -22.105  0.00  0.00    +0.117 C 
ATOM     22  H   UNL     1      35.038 -18.557 -24.112  0.00  0.00    +0.144 HD
ATOM     23  H   UNL     1      34.540 -20.145 -23.739  0.00  0.00    +0.144 HD
ATOM     24  H   UNL     1      35.791 -17.164 -22.423  0.00  0.00    +0.188 HD
ENDBRANCH  18  21
ENDBRANCH  12  13
ENDBRANCH   9  12
ENDBRANCH   3  10
BRANCH   7  25
ATOM     25  C   UNL     1      33.952 -24.057 -13.106  0.00  0.00    +0.006 C 
BRANCH  25  26
ATOM     26  N   UNL     1      33.145 -25.024 -13.832  0.00  0.00    +0.391 N 
ATOM     27  H   UNL     1      33.429 -25.029 -14.813  0.00  0.00    -0.084 HD
ATOM     28  H   UNL     1      33.287 -25.946 -13.420  0.00  0.00    -0.084 HD
BRANCH  26  29
ATOM     29  C   UNL     1      31.723 -24.679 -13.744  0.00  0.00    -0.061 C 
ATOM     30  C   UNL     1      31.525 -23.171 -13.947  0.00  0.00    -0.021 C 
ATOM     31  C   UNL     1      30.927 -25.613 -14.669  0.00  0.00    -0.021 C 
ATOM     32  C   UNL     1      29.453 -25.244 -14.841  0.00  0.00    -0.002 C 
ATOM     33  C   UNL     1      31.930 -22.579 -15.297  0.00  0.00    -0.002 C 
ATOM     34  C   UNL     1      29.120 -24.568 -16.174  0.00  0.00    -0.000 C 
ATOM     35  C   UNL     1      31.177 -23.062 -16.536  0.00  0.00    -0.000 C 
ATOM     36  C   UNL     1      29.658 -23.150 -16.382  0.00  0.00    -0.000 C 
ENDBRANCH  26  29
ENDBRANCH  25  26
ENDBRANCH   7  25
TORSDOF 7
ENDMDL
MODEL 2
REMARK VINA RESULT:      -9.6      1.824      5.226
REMARK  Name = 46937030
REMARK  7 active torsions:
REMARK  status: ('A' for Active; 'I' for Inactive)
REMARK    1  A    between atoms: C_3  and  C_10
REMARK    2  A    between atoms: C_7  and  C_25
REMARK    3  A    between atoms: N_9  and  C_12
REMARK    4  A    between atoms: C_12  and  C_13
REMARK    5  A    between atoms: C_18  and  C_21
REMARK    6  A    between atoms: C_25  and  N_26
REMARK    7  A    between atoms: N_26  and  C_29
REMARK                            x       y       z     vdW  Elec       q    Type
REMARK                         _______ _______ _______ _____ _____    ______ ____
ROOT
ATOM      1  O   UNL     1      32.933 -23.999 -13.305  0.00  0.00    -0.277 OA
ATOM      2  N   UNL     1      33.296 -23.637 -15.558  0.00  0.00    -0.275 N 
ATOM      3  C   UNL     1      34.045 -23.799 -16.803  0.00  0.00    +0.152 C 
ATOM      4  C   UNL     1      33.000 -23.630 -17.901  0.00  0.00    +0.031 C 
ATOM      5  C   UNL     1      31.961 -23.113 -15.815  0.00  0.00    +0.094 C 
ATOM      6  C   UNL     1      31.976 -22.688 -17.274  0.00  0.00    +0.024 C 
ATOM      7  C   UNL     1      33.674 -24.046 -14.289  0.00  0.00    +0.204 C 
ENDROOT
BRANCH   3  10
ATOM      8  O   UNL     1      35.306 -21.978 -15.911  0.00  0.00    -0.273 OA
ATOM      9  N   UNL     1      35.663 -22.624 -18.119  0.00  0.00    -0.299 N 
ATOM     10  C   UNL     1      35.069 -22.706 -16.872  0.00  0.00    +0.241 C 
ATOM     11  H   UNL     1      35.390 -23.267 -18.813  0.00  0.00    +0.150 HD
BRANCH   9  12
ATOM     12  C   UNL     1      36.667 -21.640 -18.454  0.00  0.00    +0.116 C 
BRANCH  12  13
ATOM     13  C   UNL     1      36.303 -20.862 -19.686  0.00  0.00    -0.003 C 
ATOM     14  C   UNL     1      35.019 -20.967 -20.221  0.00  0.00    -0.003 C 
ATOM     15  C   UNL     1      37.248 -20.037 -20.294  0.00  0.00    -0.003 C 
ATOM     16  C   UNL     1      34.680 -20.245 -21.366  0.00  0.00    +0.002 C 
ATOM     17  C   UNL     1      36.909 -19.315 -21.439  0.00  0.00    +0.002 C 
ATOM     18  C   UNL     1      35.625 -19.419 -21.974  0.00  0.00    +0.031 C 
BRANCH  18  21
ATOM     19  N   UNL     1      35.576 -17.310 -23.285  0.00  0.00    -0.343 N 
ATOM     20  N   UNL     1      34.646 -19.266 -24.164  0.00  0.00    -0.285 NA
ATOM     21  C   UNL     1      35.272 -18.665 -23.167  0.00  0.00    +0.117 C 
ATOM     22  H   UNL     1      35.327 -16.820 -24.102  0.00  0.00    +0.144 HD
ATOM     23  H   UNL     1      36.038 -16.844 -22.552  0.00  0.00    +0.144 HD
ATOM     24  H   UNL     1      34.406 -18.757 -24.972  0.00  0.00    +0.188 HD
ENDBRANCH  18  21
ENDBRANCH  12  13
ENDBRANCH   9  12
ENDBRANCH   3  10
BRANCH   7  25
ATOM     25  C   UNL     1      35.081 -24.571 -14.154  0.00  0.00    +0.006 C 
BRANCH  25  26
ATOM     26  N   UNL     1      35.783 -23.678 -13.246  0.00  0.00    +0.391 N 
ATOM     27  H   UNL     1      35.272 -22.797 -13.181  0.00  0.00    -0.084 HD
ATOM     28  H   UNL     1      35.842 -24.120 -12.329  0.00  0.00    -0.084 HD
BRANCH  26  29
ATOM     29  C   UNL     1      37.141 -23.413 -13.732  0.00  0.00    -0.061 C 
ATOM     30  C   UNL     1      38.160 -23.598 -12.600  0.00  0.00    -0.021 C 
ATOM     31  C   UNL     1      37.376 -24.224 -15.015  0.00  0.00    -0.021 C 
ATOM     32  C   UNL     1      38.817 -24.211 -15.529  0.00  0.00    -0.002 C 
ATOM     33  C   UNL     1      38.289 -24.992 -11.985  0.00  0.00    -0.002 C 
ATOM     34  C   UNL     1      39.602 -25.495 -15.248  0.00  0.00    -0.000 C 
ATOM     35  C   UNL     1      38.771 -26.123 -12.893  0.00  0.00    -0.000 C 
ATOM     36  C   UNL     1      39.962 -25.778 -13.787  0.00  0.00    -0.000 C 
ENDBRANCH  26  29
ENDBRANCH  25  26
ENDBRANCH   7  25
TORSDOF 7
ENDMDL
MODEL 3
REMARK VINA RESULT:      -9.5      4.979     10.371
REMARK  Name = 46937030
REMARK  7 active torsions:
REMARK  status: ('A' for Active; 'I' for Inactive)
REMARK    1  A    between atoms: C_3  and  C_10
REMARK    2  A    between atoms: C_7  and  C_25
REMARK    3  A    between atoms: N_9  and  C_12
REMARK    4  A    between atoms: C_12  and  C_13
REMARK    5  A    between atoms: C_18  and  C_21
REMARK    6  A    between atoms: C_25  and  N_26
REMARK    7  A    between atoms: N_26  and  C_29
REMARK                            x       y       z     vdW  Elec       q    Type
REMARK                         _______ _______ _______ _____ _____    ______ ____
ROOT
ATOM      1  O   UNL     1      35.326 -15.063 -23.626  0.00  0.00    -0.277 OA
ATOM      2  N   UNL     1      35.157 -17.343 -23.296  0.00  0.00    -0.275 N 
ATOM      3  C   UNL     1      34.861 -18.528 -22.493  0.00  0.00    +0.152 C 
ATOM      4  C   UNL     1      34.472 -19.593 -23.514  0.00  0.00    +0.031 C 
ATOM      5  C   UNL     1      35.251 -17.679 -24.711  0.00  0.00    +0.094 C 
ATOM      6  C   UNL     1      35.265 -19.198 -24.758  0.00  0.00    +0.024 C 
ATOM      7  C   UNL     1      35.204 -16.026 -22.867  0.00  0.00    +0.204 C 
ENDROOT
BRANCH   3  10
ATOM      8  O   UNL     1      37.185 -18.354 -21.972  0.00  0.00    -0.273 OA
ATOM      9  N   UNL     1      35.906 -19.975 -20.898  0.00  0.00    -0.299 N 
ATOM     10  C   UNL     1      36.114 -18.920 -21.769  0.00  0.00    +0.241 C 
ATOM     11  H   UNL     1      34.998 -20.348 -20.820  0.00  0.00    +0.150 HD
BRANCH   9  12
ATOM     12  C   UNL     1      36.957 -20.558 -20.095  0.00  0.00    +0.116 C 
BRANCH  12  13
ATOM     13  C   UNL     1      36.411 -21.400 -18.978  0.00  0.00    -0.003 C 
ATOM     14  C   UNL     1      35.150 -21.984 -19.099  0.00  0.00    -0.003 C 
ATOM     15  C   UNL     1      37.164 -21.596 -17.820  0.00  0.00    -0.003 C 
ATOM     16  C   UNL     1      34.642 -22.765 -18.061  0.00  0.00    +0.002 C 
ATOM     17  C   UNL     1      36.655 -22.378 -16.782  0.00  0.00    +0.002 C 
ATOM     18  C   UNL     1      35.395 -22.963 -16.903  0.00  0.00    +0.031 C 
BRANCH  18  21
ATOM     19  N   UNL     1      33.990 -23.248 -14.876  0.00  0.00    -0.343 N 
ATOM     20  N   UNL     1      35.218 -25.048 -15.720  0.00  0.00    -0.285 NA
ATOM     21  C   UNL     1      34.866 -23.778 -15.822  0.00  0.00    +0.117 C 
ATOM     22  H   UNL     1      33.644 -23.819 -14.152  0.00  0.00    +0.144 HD
ATOM     23  H   UNL     1      33.717 -22.304 -14.932  0.00  0.00    +0.144 HD
ATOM     24  H   UNL     1      34.862 -25.601 -14.989  0.00  0.00    +0.188 HD
ENDBRANCH  18  21
ENDBRANCH  12  13
ENDBRANCH   9  12
ENDBRANCH   3  10
BRANCH   7  25
ATOM     25  C   UNL     1      35.095 -15.809 -21.379  0.00  0.00    +0.006 C 
BRANCH  25  26
ATOM     26  N   UNL     1      34.730 -14.416 -21.178  0.00  0.00    +0.391 N 
ATOM     27  H   UNL     1      34.761 -14.202 -20.181  0.00  0.00    -0.084 HD
ATOM     28  H   UNL     1      35.390 -13.827 -21.686  0.00  0.00    -0.084 HD
BRANCH  26  29
ATOM     29  C   UNL     1      33.379 -14.159 -21.684  0.00  0.00    -0.061 C 
ATOM     30  C   UNL     1      32.345 -14.340 -20.565  0.00  0.00    -0.021 C 
ATOM     31  C   UNL     1      33.372 -12.812 -22.422  0.00  0.00    -0.021 C 
ATOM     32  C   UNL     1      31.987 -12.308 -22.831  0.00  0.00    -0.002 C 
ATOM     33  C   UNL     1      32.435 -13.404 -19.359  0.00  0.00    -0.002 C 
ATOM     34  C   UNL     1      31.434 -11.186 -21.948  0.00  0.00    -0.000 C 
ATOM     35  C   UNL     1      32.224 -11.911 -19.607  0.00  0.00    -0.000 C 
ATOM     36  C   UNL     1      31.045 -11.562 -20.516  0.00  0.00    -0.000 C 
ENDBRANCH  26  29
ENDBRANCH  25  26
ENDBRANCH   7  25
TORSDOF 7
ENDMDL
MODEL 4
REMARK VINA RESULT:      -9.4      1.538      2.006
REMARK  Name = 46937030
REMARK  7 active torsions:
REMARK  status: ('A' for Active; 'I' for Inactive)
REMARK    1  A    between atoms: C_3  and  C_10
REMARK    2  A    between atoms: C_7  and  C_25
REMARK    3  A    between atoms: N_9  and  C_12
REMARK    4  A    between atoms: C_12  and  C_13
REMARK    5  A    between atoms: C_18  and  C_21
REMARK    6  A    between atoms: C_25  and  N_26
REMARK    7  A    between atoms: N_26  and  C_29
REMARK                            x       y       z     vdW  Elec       q    Type
REMARK                         _______ _______ _______ _____ _____    ______ ____
ROOT
ATOM      1  O   UNL     1      34.463 -25.439 -11.877  0.00  0.00    -0.277 OA
ATOM      2  N   UNL     1      36.248 -24.140 -12.557  0.00  0.00    -0.275 N 
ATOM      3  C   UNL     1      36.853 -23.039 -13.306  0.00  0.00    +0.152 C 
ATOM      4  C   UNL     1      38.098 -22.673 -12.505  0.00  0.00    +0.031 C 
ATOM      5  C   UNL     1      37.163 -24.647 -11.542  0.00  0.00    +0.094 C 
ATOM      6  C   UNL     1      38.499 -23.992 -11.849  0.00  0.00    +0.024 C 
ATOM      7  C   UNL     1      34.941 -24.594 -12.637  0.00  0.00    +0.204 C 
ENDROOT
BRANCH   3  10
ATOM      8  O   UNL     1      37.354 -24.755 -14.889  0.00  0.00    -0.273 OA
ATOM      9  N   UNL     1      37.421 -22.531 -15.575  0.00  0.00    -0.299 N 
ATOM     10  C   UNL     1      37.226 -23.554 -14.663  0.00  0.00    +0.241 C 
ATOM     11  H   UNL     1      37.287 -21.603 -15.275  0.00  0.00    +0.150 HD
BRANCH   9  12
ATOM     12  C   UNL     1      37.810 -22.759 -16.948  0.00  0.00    +0.116 C 
BRANCH  12  13
ATOM     13  C   UNL     1      36.795 -22.221 -17.916  0.00  0.00    -0.003 C 
ATOM     14  C   UNL     1      37.186 -21.318 -18.905  0.00  0.00    -0.003 C 
ATOM     15  C   UNL     1      35.463 -22.623 -17.826  0.00  0.00    -0.003 C 
ATOM     16  C   UNL     1      36.245 -20.818 -19.804  0.00  0.00    +0.002 C 
ATOM     17  C   UNL     1      34.521 -22.123 -18.726  0.00  0.00    +0.002 C 
ATOM     18  C   UNL     1      34.912 -21.221 -19.715  0.00  0.00    +0.031 C 
BRANCH  18  21
ATOM     19  N   UNL     1      34.318 -20.048 -21.821  0.00  0.00    -0.343 N 
ATOM     20  N   UNL     1      32.640 -20.838 -20.400  0.00  0.00    -0.285 NA
ATOM     21  C   UNL     1      33.930 -20.700 -20.652  0.00  0.00    +0.117 C 
ATOM     22  H   UNL     1      33.636 -19.704 -22.442  0.00  0.00    +0.144 HD
ATOM     23  H   UNL     1      35.274 -19.932 -22.026  0.00  0.00    +0.144 HD
ATOM     24  H   UNL     1      31.974 -20.486 -21.034  0.00  0.00    +0.188 HD
ENDBRANCH  18  21
ENDBRANCH  12  13
ENDBRANCH   9  12
ENDBRANCH   3  10
BRANCH   7  25
ATOM     25  C   UNL     1      34.095 -23.991 -13.729  0.00  0.00    +0.006 C 
BRANCH  25  26
ATOM     26  N   UNL     1      33.178 -25.027 -14.177  0.00  0.00    +0.391 N 
ATOM     27  H   UNL     1      33.362 -25.236 -15.158  0.00  0.00    -0.084 HD
ATOM     28  H   UNL     1      33.319 -25.860 -13.606  0.00  0.00    -0.084 HD
BRANCH  26  29
ATOM     29  C   UNL     1      31.788 -24.582 -14.031  0.00  0.00    -0.061 C 
ATOM     30  C   UNL     1      31.673 -23.081 -14.326  0.00  0.00    -0.021 C 
ATOM     31  C   UNL     1      30.880 -25.519 -14.841  0.00  0.00    -0.021 C 
ATOM     32  C   UNL     1      29.423 -25.064 -14.953  0.00  0.00    -0.002 C 
ATOM     33  C   UNL     1      32.031 -22.607 -15.735  0.00  0.00    -0.002 C 
ATOM     34  C   UNL     1      29.052 -24.456 -16.308  0.00  0.00    -0.000 C 
ATOM     35  C   UNL     1      31.174 -23.118 -16.892  0.00  0.00    -0.000 C 
ATOM     36  C   UNL     1      29.665 -23.094 -16.645  0.00  0.00    -0.000 C 
ENDBRANCH  26  29
ENDBRANCH  25  26
ENDBRANCH   7  25
TORSDOF 7
ENDMDL
MODEL 5
REMARK VINA RESULT:      -9.3      2.542      6.773
REMARK  Name = 46937030
REMARK  7 active torsions:
REMARK  status: ('A' for Active; 'I' for Inactive)
REMARK    1  A    between atoms: C_3  and  C_10
REMARK    2  A    between atoms: C_7  and  C_25
REMARK    3  A    between atoms: N_9  and  C_12
REMARK    4  A    between atoms: C_12  and  C_13
REMARK    5  A    between atoms: C_18  and  C_21
REMARK    6  A    between atoms: C_25  and  N_26
REMARK    7  A    between atoms: N_26  and  C_29
REMARK                            x       y       z     vdW  Elec       q    Type
REMARK                         _______ _______ _______ _____ _____    ______ ____
ROOT
ATOM      1  O   UNL     1      32.441 -21.317 -19.205  0.00  0.00    -0.277 OA
ATOM      2  N   UNL     1      34.587 -21.141 -20.043  0.00  0.00    -0.275 N 
ATOM      3  C   UNL     1      35.959 -21.610 -20.230  0.00  0.00    +0.152 C 
ATOM      4  C   UNL     1      36.396 -20.991 -21.554  0.00  0.00    +0.031 C 
ATOM      5  C   UNL     1      34.264 -20.079 -20.987  0.00  0.00    +0.094 C 
ATOM      6  C   UNL     1      35.590 -19.696 -21.623  0.00  0.00    +0.024 C 
ATOM      7  C   UNL     1      33.619 -21.681 -19.212  0.00  0.00    +0.204 C 
ENDROOT
BRANCH   3  10
ATOM      8  O   UNL     1      37.306 -19.970 -19.138  0.00  0.00    -0.273 OA
ATOM      9  N   UNL     1      36.896 -21.992 -18.061  0.00  0.00    -0.299 N 
ATOM     10  C   UNL     1      36.787 -21.082 -19.098  0.00  0.00    +0.241 C 
ATOM     11  H   UNL     1      36.432 -22.856 -18.143  0.00  0.00    +0.150 HD
BRANCH   9  12
ATOM     12  C   UNL     1      37.660 -21.736 -16.860  0.00  0.00    +0.116 C 
BRANCH  12  13
ATOM     13  C   UNL     1      37.521 -22.846 -15.858  0.00  0.00    -0.003 C 
ATOM     14  C   UNL     1      36.414 -22.884 -15.010  0.00  0.00    -0.003 C 
ATOM     15  C   UNL     1      38.498 -23.837 -15.775  0.00  0.00    -0.003 C 
ATOM     16  C   UNL     1      36.284 -23.915 -14.079  0.00  0.00    +0.002 C 
ATOM     17  C   UNL     1      38.368 -24.868 -14.844  0.00  0.00    +0.002 C 
ATOM     18  C   UNL     1      37.261 -24.907 -13.997  0.00  0.00    +0.031 C 
BRANCH  18  21
ATOM     19  N   UNL     1      37.237 -27.318 -13.406  0.00  0.00    -0.343 N 
ATOM     20  N   UNL     1      36.889 -25.699 -11.758  0.00  0.00    -0.285 NA
ATOM     21  C   UNL     1      37.126 -25.982 -13.027  0.00  0.00    +0.117 C 
ATOM     22  H   UNL     1      37.142 -28.030 -12.732  0.00  0.00    +0.144 HD
ATOM     23  H   UNL     1      37.410 -27.550 -14.346  0.00  0.00    +0.144 HD
ATOM     24  H   UNL     1      36.796 -26.425 -11.100  0.00  0.00    +0.188 HD
ENDBRANCH  18  21
ENDBRANCH  12  13
ENDBRANCH   9  12
ENDBRANCH   3  10
BRANCH   7  25
ATOM     25  C   UNL     1      34.078 -22.775 -18.281  0.00  0.00    +0.006 C 
BRANCH  25  26
ATOM     26  N   UNL     1      32.890 -23.493 -17.849  0.00  0.00    +0.391 N 
ATOM     27  H   UNL     1      32.105 -23.233 -18.448  0.00  0.00    -0.084 HD
ATOM     28  H   UNL     1      33.069 -24.494 -17.916  0.00  0.00    -0.084 HD
BRANCH  26  29
ATOM     29  C   UNL     1      32.566 -23.162 -16.458  0.00  0.00    -0.061 C 
ATOM     30  C   UNL     1      31.075 -22.826 -16.322  0.00  0.00    -0.021 C 
ATOM     31  C   UNL     1      33.113 -24.268 -15.544  0.00  0.00    -0.021 C 
ATOM     32  C   UNL     1      32.675 -24.169 -14.081  0.00  0.00    -0.002 C 
ATOM     33  C   UNL     1      30.068 -23.930 -16.649  0.00  0.00    -0.002 C 
ATOM     34  C   UNL     1      31.580 -25.159 -13.678  0.00  0.00    -0.000 C 
ATOM     35  C   UNL     1      30.085 -25.183 -15.775  0.00  0.00    -0.000 C 
ATOM     36  C   UNL     1      30.188 -24.927 -14.271  0.00  0.00    -0.000 C 
ENDBRANCH  26  29
ENDBRANCH  25  26
ENDBRANCH   7  25
TORSDOF 7
ENDMDL
MODEL 6
REMARK VINA RESULT:      -9.2      2.317      7.584
REMARK  Name = 46937030
REMARK  7 active torsions:
REMARK  status: ('A' for Active; 'I' for Inactive)
REMARK    1  A    between atoms: C_3  and  C_10
REMARK    2  A    between atoms: C_7  and  C_25
REMARK    3  A    between atoms: N_9  and  C_12
REMARK    4  A    between atoms: C_12  and  C_13
REMARK    5  A    between atoms: C_18  and  C_21
REMARK    6  A    between atoms: C_25  and  N_26
REMARK    7  A    between atoms: N_26  and  C_29
REMARK                            x       y       z     vdW  Elec       q    Type
REMARK                         _______ _______ _______ _____ _____    ______ ____
ROOT
ATOM      1  O   UNL     1      32.780 -24.215 -18.299  0.00  0.00    -0.277 OA
ATOM      2  N   UNL     1      32.360 -23.659 -16.096  0.00  0.00    -0.275 N 
ATOM      3  C   UNL     1      32.726 -23.089 -14.801  0.00  0.00    +0.152 C 
ATOM      4  C   UNL     1      31.397 -22.668 -14.181  0.00  0.00    +0.031 C 
ATOM      5  C   UNL     1      30.921 -23.871 -16.188  0.00  0.00    +0.094 C 
ATOM      6  C   UNL     1      30.398 -23.657 -14.777  0.00  0.00    +0.024 C 
ATOM      7  C   UNL     1      33.185 -23.856 -17.192  0.00  0.00    +0.204 C 
ENDROOT
BRANCH   3  10
ATOM      8  O   UNL     1      32.895 -25.298 -13.911  0.00  0.00    -0.273 OA
ATOM      9  N   UNL     1      34.516 -23.727 -13.345  0.00  0.00    -0.299 N 
ATOM     10  C   UNL     1      33.372 -24.169 -13.987  0.00  0.00    +0.241 C 
ATOM     11  H   UNL     1      34.801 -22.795 -13.483  0.00  0.00    +0.150 HD
BRANCH   9  12
ATOM     12  C   UNL     1      35.313 -24.567 -12.480  0.00  0.00    +0.116 C 
BRANCH  12  13
ATOM     13  C   UNL     1      36.604 -24.976 -13.128  0.00  0.00    -0.003 C 
ATOM     14  C   UNL     1      37.818 -24.700 -12.497  0.00  0.00    -0.003 C 
ATOM     15  C   UNL     1      36.590 -25.630 -14.359  0.00  0.00    -0.003 C 
ATOM     16  C   UNL     1      39.018 -25.079 -13.099  0.00  0.00    +0.002 C 
ATOM     17  C   UNL     1      37.791 -26.010 -14.961  0.00  0.00    +0.002 C 
ATOM     18  C   UNL     1      39.004 -25.735 -14.330  0.00  0.00    +0.031 C 
BRANCH  18  21
ATOM     19  N   UNL     1      41.211 -26.871 -14.264  0.00  0.00    -0.343 N 
ATOM     20  N   UNL     1      40.504 -25.784 -16.208  0.00  0.00    -0.285 NA
ATOM     21  C   UNL     1      40.255 -26.131 -14.957  0.00  0.00    +0.117 C 
ATOM     22  H   UNL     1      42.051 -27.129 -14.708  0.00  0.00    +0.144 HD
ATOM     23  H   UNL     1      41.046 -27.137 -13.330  0.00  0.00    +0.144 HD
ATOM     24  H   UNL     1      41.350 -26.051 -16.634  0.00  0.00    +0.188 HD
ENDBRANCH  18  21
ENDBRANCH  12  13
ENDBRANCH   9  12
ENDBRANCH   3  10
BRANCH   7  25
ATOM     25  C   UNL     1      34.655 -23.602 -16.970  0.00  0.00    +0.006 C 
BRANCH  25  26
ATOM     26  N   UNL     1      34.936 -22.267 -17.473  0.00  0.00    +0.391 N 
ATOM     27  H   UNL     1      34.057 -21.768 -17.610  0.00  0.00    -0.084 HD
ATOM     28  H   UNL     1      35.518 -21.775 -16.794  0.00  0.00    -0.084 HD
BRANCH  26  29
ATOM     29  C   UNL     1      35.654 -22.338 -18.749  0.00  0.00    -0.061 C 
ATOM     30  C   UNL     1      34.668 -22.545 -19.906  0.00  0.00    -0.021 C 
ATOM     31  C   UNL     1      36.601 -21.132 -18.853  0.00  0.00    -0.021 C 
ATOM     32  C   UNL     1      37.270 -20.956 -20.218  0.00  0.00    -0.002 C 
ATOM     33  C   UNL     1      33.636 -21.447 -20.163  0.00  0.00    -0.002 C 
ATOM     34  C   UNL     1      36.670 -19.841 -21.078  0.00  0.00    -0.000 C 
ATOM     35  C   UNL     1      34.156 -20.068 -20.569  0.00  0.00    -0.000 C 
ATOM     36  C   UNL     1      35.260 -20.075 -21.627  0.00  0.00    -0.000 C 
ENDBRANCH  26  29
ENDBRANCH  25  26
ENDBRANCH   7  25
TORSDOF 7
ENDMDL
MODEL 7
REMARK VINA RESULT:      -9.1      6.464     10.870
REMARK  Name = 46937030
REMARK  7 active torsions:
REMARK  status: ('A' for Active; 'I' for Inactive)
REMARK    1  A    between atoms: C_3  and  C_10
REMARK    2  A    between atoms: C_7  and  C_25
REMARK    3  A    between atoms: N_9  and  C_12
REMARK    4  A    between atoms: C_12  and  C_13
REMARK    5  A    between atoms: C_18  and  C_21
REMARK    6  A    between atoms: C_25  and  N_26
REMARK    7  A    between atoms: N_26  and  C_29
REMARK                            x       y       z     vdW  Elec       q    Type
REMARK                         _______ _______ _______ _____ _____    ______ ____
ROOT
ATOM      1  O   UNL     1      34.911 -18.844 -24.347  0.00  0.00    -0.277 OA
ATOM      2  N   UNL     1      34.810 -16.543 -24.168  0.00  0.00    -0.275 N 
ATOM      3  C   UNL     1      35.254 -15.253 -23.644  0.00  0.00    +0.152 C 
ATOM      4  C   UNL     1      34.869 -14.249 -24.726  0.00  0.00    +0.031 C 
ATOM      5  C   UNL     1      33.949 -16.368 -25.331  0.00  0.00    +0.094 C 
ATOM      6  C   UNL     1      33.639 -14.880 -25.374  0.00  0.00    +0.024 C 
ATOM      7  C   UNL     1      35.227 -17.803 -23.768  0.00  0.00    +0.204 C 
ENDROOT
BRANCH   3  10
ATOM      8  O   UNL     1      34.841 -15.471 -21.303  0.00  0.00    -0.273 OA
ATOM      9  N   UNL     1      33.403 -14.165 -22.586  0.00  0.00    -0.299 N 
ATOM     10  C   UNL     1      34.500 -14.984 -22.378  0.00  0.00    +0.241 C 
ATOM     11  H   UNL     1      33.231 -13.834 -23.497  0.00  0.00    +0.150 HD
BRANCH   9  12
ATOM     12  C   UNL     1      32.497 -13.772 -21.530  0.00  0.00    +0.116 C 
BRANCH  12  13
ATOM     13  C   UNL     1      32.420 -12.280 -21.382  0.00  0.00    -0.003 C 
ATOM     14  C   UNL     1      32.265 -11.713 -20.116  0.00  0.00    -0.003 C 
ATOM     15  C   UNL     1      32.504 -11.462 -22.508  0.00  0.00    -0.003 C 
ATOM     16  C   UNL     1      32.194 -10.327 -19.977  0.00  0.00    +0.002 C 
ATOM     17  C   UNL     1      32.433 -10.075 -22.369  0.00  0.00    +0.002 C 
ATOM     18  C   UNL     1      32.279  -9.508 -21.104  0.00  0.00    +0.031 C 
BRANCH  18  21
ATOM     19  N   UNL     1      31.585  -7.269 -21.922  0.00  0.00    -0.343 N 
ATOM     20  N   UNL     1      32.738  -7.479 -19.901  0.00  0.00    -0.285 NA
ATOM     21  C   UNL     1      32.205  -8.063 -20.959  0.00  0.00    +0.117 C 
ATOM     22  H   UNL     1      31.547  -6.292 -21.803  0.00  0.00    +0.144 HD
ATOM     23  H   UNL     1      31.184  -7.684 -22.719  0.00  0.00    +0.144 HD
ATOM     24  H   UNL     1      32.690  -6.501 -19.802  0.00  0.00    +0.188 HD
ENDBRANCH  18  21
ENDBRANCH  12  13
ENDBRANCH   9  12
ENDBRANCH   3  10
BRANCH   7  25
ATOM     25  C   UNL     1      36.116 -17.851 -22.552  0.00  0.00    +0.006 C 
BRANCH  25  26
ATOM     26  N   UNL     1      35.284 -18.260 -21.432  0.00  0.00    +0.391 N 
ATOM     27  H   UNL     1      35.822 -18.184 -20.569  0.00  0.00    -0.084 HD
ATOM     28  H   UNL     1      34.465 -17.654 -21.392  0.00  0.00    -0.084 HD
BRANCH  26  29
ATOM     29  C   UNL     1      34.838 -19.647 -21.601  0.00  0.00    -0.061 C 
ATOM     30  C   UNL     1      36.039 -20.602 -21.574  0.00  0.00    -0.021 C 
ATOM     31  C   UNL     1      33.706 -19.930 -20.602  0.00  0.00    -0.021 C 
ATOM     32  C   UNL     1      33.275 -21.395 -20.516  0.00  0.00    -0.002 C 
ATOM     33  C   UNL     1      36.862 -20.669 -20.288  0.00  0.00    -0.002 C 
ATOM     34  C   UNL     1      33.787 -22.135 -19.278  0.00  0.00    -0.000 C 
ATOM     35  C   UNL     1      36.162 -21.170 -19.026  0.00  0.00    -0.000 C 
ATOM     36  C   UNL     1      35.291 -22.414 -19.214  0.00  0.00    -0.000 C 
ENDBRANCH  26  29
ENDBRANCH  25  26
ENDBRANCH   7  25
TORSDOF 7
ENDMDL
MODEL 8
REMARK VINA RESULT:      -9.0      1.258      1.598
REMARK  Name = 46937030
REMARK  7 active torsions:
REMARK  status: ('A' for Active; 'I' for Inactive)
REMARK    1  A    between atoms: C_3  and  C_10
REMARK    2  A    between atoms: C_7  and  C_25
REMARK    3  A    between atoms: N_9  and  C_12
REMARK    4  A    between atoms: C_12  and  C_13
REMARK    5  A    between atoms: C_18  and  C_21
REMARK    6  A    between atoms: C_25  and  N_26
REMARK    7  A    between atoms: N_26  and  C_29
REMARK                            x       y       z     vdW  Elec       q    Type
REMARK                         _______ _______ _______ _____ _____    ______ ____
ROOT
ATOM      1  O   UNL     1      36.095 -25.130 -13.831  0.00  0.00    -0.277 OA
ATOM      2  N   UNL     1      36.473 -23.467 -15.389  0.00  0.00    -0.275 N 
ATOM      3  C   UNL     1      36.104 -22.260 -16.126  0.00  0.00    +0.152 C 
ATOM      4  C   UNL     1      37.437 -21.624 -16.508  0.00  0.00    +0.031 C 
ATOM      5  C   UNL     1      37.894 -23.756 -15.536  0.00  0.00    +0.094 C 
ATOM      6  C   UNL     1      38.379 -22.819 -16.630  0.00  0.00    +0.024 C 
ATOM      7  C   UNL     1      35.677 -24.201 -14.525  0.00  0.00    +0.204 C 
ENDROOT
BRANCH   3  10
ATOM      8  O   UNL     1      34.496 -23.564 -17.315  0.00  0.00    -0.273 OA
ATOM      9  N   UNL     1      35.741 -21.976 -18.475  0.00  0.00    -0.299 N 
ATOM     10  C   UNL     1      35.347 -22.679 -17.350  0.00  0.00    +0.241 C 
ATOM     11  H   UNL     1      36.436 -21.285 -18.378  0.00  0.00    +0.150 HD
BRANCH   9  12
ATOM     12  C   UNL     1      35.181 -22.206 -19.788  0.00  0.00    +0.116 C 
BRANCH  12  13
ATOM     13  C   UNL     1      35.316 -21.002 -20.675  0.00  0.00    -0.003 C 
ATOM     14  C   UNL     1      36.562 -20.397 -20.844  0.00  0.00    -0.003 C 
ATOM     15  C   UNL     1      34.196 -20.488 -21.329  0.00  0.00    -0.003 C 
ATOM     16  C   UNL     1      36.688 -19.279 -21.668  0.00  0.00    +0.002 C 
ATOM     17  C   UNL     1      34.323 -19.369 -22.153  0.00  0.00    +0.002 C 
ATOM     18  C   UNL     1      35.569 -18.765 -22.323  0.00  0.00    +0.031 C 
BRANCH  18  21
ATOM     19  N   UNL     1      35.071 -17.540 -24.425  0.00  0.00    -0.343 N 
ATOM     20  N   UNL     1      36.432 -16.571 -22.791  0.00  0.00    -0.285 NA
ATOM     21  C   UNL     1      35.700 -17.599 -23.182  0.00  0.00    +0.117 C 
ATOM     22  H   UNL     1      35.174 -16.741 -24.990  0.00  0.00    +0.144 HD
ATOM     23  H   UNL     1      34.524 -18.297 -24.736  0.00  0.00    +0.144 HD
ATOM     24  H   UNL     1      36.522 -15.781 -23.372  0.00  0.00    +0.188 HD
ENDBRANCH  18  21
ENDBRANCH  12  13
ENDBRANCH   9  12
ENDBRANCH   3  10
BRANCH   7  25
ATOM     25  C   UNL     1      34.224 -23.803 -14.462  0.00  0.00    +0.006 C 
BRANCH  25  26
ATOM     26  N   UNL     1      33.453 -25.028 -14.336  0.00  0.00    +0.391 N 
ATOM     27  H   UNL     1      33.443 -25.512 -15.234  0.00  0.00    -0.084 HD
ATOM     28  H   UNL     1      33.884 -25.617 -13.623  0.00  0.00    -0.084 HD
BRANCH  26  29
ATOM     29  C   UNL     1      32.075 -24.731 -13.933  0.00  0.00    -0.061 C 
ATOM     30  C   UNL     1      31.830 -23.216 -13.943  0.00  0.00    -0.021 C 
ATOM     31  C   UNL     1      31.116 -25.592 -14.770  0.00  0.00    -0.021 C 
ATOM     32  C   UNL     1      29.634 -25.247 -14.609  0.00  0.00    -0.002 C 
ATOM     33  C   UNL     1      31.954 -22.487 -15.281  0.00  0.00    -0.002 C 
ATOM     34  C   UNL     1      29.037 -24.456 -15.775  0.00  0.00    -0.000 C 
ATOM     35  C   UNL     1      30.971 -22.869 -16.387  0.00  0.00    -0.000 C 
ATOM     36  C   UNL     1      29.514 -23.011 -15.945  0.00  0.00    -0.000 C 
ENDBRANCH  26  29
ENDBRANCH  25  26
ENDBRANCH   7  25
TORSDOF 7
ENDMDL
MODEL 9
REMARK VINA RESULT:      -8.9      8.469     13.344
REMARK  Name = 46937030
REMARK  7 active torsions:
REMARK  status: ('A' for Active; 'I' for Inactive)
REMARK    1  A    between atoms: C_3  and  C_10
REMARK    2  A    between atoms: C_7  and  C_25
REMARK    3  A    between atoms: N_9  and  C_12
REMARK    4  A    between atoms: C_12  and  C_13
REMARK    5  A    between atoms: C_18  and  C_21
REMARK    6  A    between atoms: C_25  and  N_26
REMARK    7  A    between atoms: N_26  and  C_29
REMARK                            x       y       z     vdW  Elec       q    Type
REMARK                         _______ _______ _______ _____ _____    ______ ____
ROOT
ATOM      1  O   UNL     1      34.161 -16.673 -25.735  0.00  0.00    -0.277 OA
ATOM      2  N   UNL     1      34.094 -14.393 -25.372  0.00  0.00    -0.275 N 
ATOM      3  C   UNL     1      34.420 -13.179 -24.625  0.00  0.00    +0.152 C 
ATOM      4  C   UNL     1      34.385 -12.068 -25.670  0.00  0.00    +0.031 C 
ATOM      5  C   UNL     1      33.596 -14.071 -26.703  0.00  0.00    +0.094 C 
ATOM      6  C   UNL     1      33.362 -12.569 -26.687  0.00  0.00    +0.024 C 
ATOM      7  C   UNL     1      34.339 -15.703 -24.995  0.00  0.00    +0.204 C 
ENDROOT
BRANCH   3  10
ATOM      8  O   UNL     1      32.653 -13.894 -23.188  0.00  0.00    -0.273 OA
ATOM      9  N   UNL     1      33.258 -11.647 -23.199  0.00  0.00    -0.299 N 
ATOM     10  C   UNL     1      33.353 -12.970 -23.593  0.00  0.00    +0.241 C 
ATOM     11  H   UNL     1      33.878 -10.993 -23.597  0.00  0.00    +0.150 HD
BRANCH   9  12
ATOM     12  C   UNL     1      32.293 -11.176 -22.231  0.00  0.00    +0.116 C 
BRANCH  12  13
ATOM     13  C   UNL     1      32.116  -9.687 -22.293  0.00  0.00    -0.003 C 
ATOM     14  C   UNL     1      31.830  -9.069 -23.510  0.00  0.00    -0.003 C 
ATOM     15  C   UNL     1      32.238  -8.921 -21.133  0.00  0.00    -0.003 C 
ATOM     16  C   UNL     1      31.665  -7.684 -23.568  0.00  0.00    +0.002 C 
ATOM     17  C   UNL     1      32.073  -7.537 -21.191  0.00  0.00    +0.002 C 
ATOM     18  C   UNL     1      31.786  -6.919 -22.408  0.00  0.00    +0.031 C 
BRANCH  18  21
ATOM     19  N   UNL     1      32.301  -4.702 -23.401  0.00  0.00    -0.343 N 
ATOM     20  N   UNL     1      30.796  -4.875 -21.622  0.00  0.00    -0.285 NA
ATOM     21  C   UNL     1      31.614  -5.476 -22.468  0.00  0.00    +0.117 C 
ATOM     22  H   UNL     1      32.169  -3.727 -23.423  0.00  0.00    +0.144 HD
ATOM     23  H   UNL     1      32.917  -5.130 -24.038  0.00  0.00    +0.144 HD
ATOM     24  H   UNL     1      30.679  -3.898 -21.660  0.00  0.00    +0.188 HD
ENDBRANCH  18  21
ENDBRANCH  12  13
ENDBRANCH   9  12
ENDBRANCH   3  10
BRANCH   7  25
ATOM     25  C   UNL     1      34.854 -15.905 -23.592  0.00  0.00    +0.006 C 
BRANCH  25  26
ATOM     26  N   UNL     1      36.063 -16.706 -23.694  0.00  0.00    +0.391 N 
ATOM     27  H   UNL     1      36.502 -16.536 -24.600  0.00  0.00    -0.084 HD
ATOM     28  H   UNL     1      36.697 -16.442 -22.940  0.00  0.00    -0.084 HD
BRANCH  26  29
ATOM     29  C   UNL     1      35.749 -18.132 -23.570  0.00  0.00    -0.061 C 
ATOM     30  C   UNL     1      37.037 -18.955 -23.437  0.00  0.00    -0.021 C 
ATOM     31  C   UNL     1      34.694 -18.314 -22.468  0.00  0.00    -0.021 C 
ATOM     32  C   UNL     1      34.413 -19.767 -22.080  0.00  0.00    -0.002 C 
ATOM     33  C   UNL     1      37.919 -18.698 -22.214  0.00  0.00    -0.002 C 
ATOM     34  C   UNL     1      35.049 -20.206 -20.759  0.00  0.00    -0.000 C 
ATOM     35  C   UNL     1      37.326 -19.005 -20.840  0.00  0.00    -0.000 C 
ATOM     36  C   UNL     1      36.575 -20.333 -20.736  0.00  0.00    -0.000 C 
ENDBRANCH  26  29
ENDBRANCH  25  26
ENDBRANCH   7  25
TORSDOF 7
ENDMDL
