MODEL 1
REMARK VINA RESULT:     -11.9      0.000      0.000
REMARK  Name = 448408
REMARK  8 active torsions:
REMARK  status: ('A' for Active; 'I' for Inactive)
REMARK    1  A    between atoms: N_2  and  C_25
REMARK    2  A    between atoms: C_3  and  C_6
REMARK    3  A    between atoms: C_5  and  N_12
REMARK    4  A    between atoms: C_25  and  C_26
REMARK    5  A    between atoms: C_27  and  S_32
REMARK    6  A    between atoms: S_32  and  C_33
REMARK    7  A    between atoms: C_34  and  C_39
REMARK    8  A    between atoms: C_39  and  O_40
REMARK                            x       y       z     vdW  Elec       q    Type
REMARK                         _______ _______ _______ _____ _____    ______ ____
ROOT
ATOM      1  O   UNL     1      37.784 -19.403 -19.801  0.00  0.00    -0.270 OA
ATOM      2  N   UNL     1      36.207 -21.101 -19.885  0.00  0.00    -0.297 N 
ATOM      3  C   UNL     1      36.792 -19.917 -20.348  0.00  0.00    +0.246 C 
ATOM      4  H   UNL     1      35.423 -21.452 -20.365  0.00  0.00    +0.150 HD
ENDROOT
BRANCH   3   6
ATOM      5  C   UNL     1      35.422 -17.266 -22.641  0.00  0.00    +0.090 C 
ATOM      6  C   UNL     1      36.172 -19.281 -21.500  0.00  0.00    +0.055 C 
ATOM      7  C   UNL     1      36.019 -17.895 -21.534  0.00  0.00    +0.023 C 
ATOM      8  C   UNL     1      34.981 -18.063 -23.710  0.00  0.00    +0.018 C 
ATOM      9  C   UNL     1      35.729 -20.059 -22.571  0.00  0.00    +0.005 C 
ATOM     10  C   UNL     1      35.134 -19.450 -23.675  0.00  0.00    +0.002 C 
BRANCH   5  12
ATOM     11  O   UNL     1      32.698 -13.325 -20.631  0.00  0.00    -0.207 OA
ATOM     12  N   UNL     1      35.270 -15.885 -22.675  0.00  0.00    -0.137 N 
ATOM     13  N   UNL     1      35.386 -15.120 -23.793  0.00  0.00    -0.215 N 
ATOM     14  N   UNL     1      34.433 -15.287 -21.736  0.00  0.00    -0.143 NA
ATOM     15  N   UNL     1      34.353 -12.948 -24.298  0.00  0.00    -0.309 NA
ATOM     16  N   UNL     1      32.933 -12.059 -22.559  0.00  0.00    -0.251 NA
ATOM     17  N   UNL     1      33.241 -10.882 -24.527  0.00  0.00    -0.283 N 
ATOM     18  C   UNL     1      34.637 -14.002 -23.628  0.00  0.00    +0.243 C 
ATOM     19  C   UNL     1      34.055 -14.176 -22.288  0.00  0.00    +0.241 C 
ATOM     20  C   UNL     1      33.164 -13.144 -21.747  0.00  0.00    +0.239 C 
ATOM     21  C   UNL     1      33.499 -11.987 -23.748  0.00  0.00    +0.208 C 
ATOM     22  H   UNL     1      35.924 -15.340 -24.588  0.00  0.00    +0.175 HD
ATOM     23  H   UNL     1      33.650 -10.801 -25.418  0.00  0.00    +0.156 HD
ATOM     24  H   UNL     1      32.647 -10.172 -24.191  0.00  0.00    +0.156 HD
ENDBRANCH   5  12
ENDBRANCH   3   6
BRANCH   2  25
ATOM     25  C   UNL     1      36.692 -21.836 -18.738  0.00  0.00    +0.117 C 
BRANCH  25  26
ATOM     26  C   UNL     1      35.569 -22.415 -17.927  0.00  0.00    +0.003 C 
ATOM     27  C   UNL     1      35.753 -22.832 -16.612  0.00  0.00    +0.027 C 
ATOM     28  C   UNL     1      34.321 -22.527 -18.533  0.00  0.00    -0.002 C 
ATOM     29  C   UNL     1      34.681 -23.365 -15.898  0.00  0.00    +0.006 C 
ATOM     30  C   UNL     1      33.249 -23.060 -17.819  0.00  0.00    -0.000 C 
ATOM     31  C   UNL     1      33.428 -23.479 -16.501  0.00  0.00    +0.000 C 
BRANCH  27  32
ATOM     32  S   UNL     1      37.339 -22.708 -15.795  0.00  0.00    -0.087 S 
BRANCH  32  33
ATOM     33  C   UNL     1      37.345 -24.211 -14.829  0.00  0.00    +0.028 C 
ATOM     34  C   UNL     1      37.456 -24.189 -13.437  0.00  0.00    +0.013 C 
ATOM     35  C   UNL     1      37.237 -25.430 -15.499  0.00  0.00    +0.006 C 
ATOM     36  C   UNL     1      37.457 -25.384 -12.718  0.00  0.00    -0.001 C 
ATOM     37  C   UNL     1      37.239 -26.625 -14.779  0.00  0.00    +0.000 C 
ATOM     38  C   UNL     1      37.349 -26.602 -13.389  0.00  0.00    -0.000 C 
BRANCH  34  39
ATOM     39  C   UNL     1      37.575 -22.910 -12.673  0.00  0.00    +0.164 C 
BRANCH  39  40
ATOM     40  O   UNL     1      38.591 -23.045 -11.688  0.00  0.00    -0.377 OA
ATOM     41  H   UNL     1      39.409 -22.635 -12.010  0.00  0.00    +0.211 HD
ENDBRANCH  39  40
ENDBRANCH  34  39
ENDBRANCH  32  33
ENDBRANCH  27  32
ENDBRANCH  25  26
ENDBRANCH   2  25
TORSDOF 8
ENDMDL
MODEL 2
REMARK VINA RESULT:     -11.9      3.614     11.483
REMARK  Name = 448408
REMARK  8 active torsions:
REMARK  status: ('A' for Active; 'I' for Inactive)
REMARK    1  A    between atoms: N_2  and  C_25
REMARK    2  A    between atoms: C_3  and  C_6
REMARK    3  A    between atoms: C_5  and  N_12
REMARK    4  A    between atoms: C_25  and  C_26
REMARK    5  A    between atoms: C_27  and  S_32
REMARK    6  A    between atoms: S_32  and  C_33
REMARK    7  A    between atoms: C_34  and  C_39
REMARK    8  A    between atoms: C_39  and  O_40
REMARK                            x       y       z     vdW  Elec       q    Type
REMARK                         _______ _______ _______ _____ _____    ______ ____
ROOT
ATOM      1  O   UNL     1      37.252 -20.690 -20.663  0.00  0.00    -0.270 OA
ATOM      2  N   UNL     1      35.398 -19.350 -21.041  0.00  0.00    -0.297 N 
ATOM      3  C   UNL     1      36.050 -20.443 -20.458  0.00  0.00    +0.246 C 
ATOM      4  H   UNL     1      34.444 -19.214 -20.836  0.00  0.00    +0.150 HD
ENDROOT
BRANCH   3   6
ATOM      5  C   UNL     1      35.077 -22.778 -17.673  0.00  0.00    +0.090 C 
ATOM      6  C   UNL     1      35.252 -21.311 -19.607  0.00  0.00    +0.055 C 
ATOM      7  C   UNL     1      35.835 -21.935 -18.504  0.00  0.00    +0.023 C 
ATOM      8  C   UNL     1      33.720 -22.978 -17.976  0.00  0.00    +0.018 C 
ATOM      9  C   UNL     1      33.903 -21.521 -19.895  0.00  0.00    +0.005 C 
ATOM     10  C   UNL     1      33.137 -22.354 -19.080  0.00  0.00    +0.002 C 
BRANCH   5  12
ATOM     11  O   UNL     1      34.105 -24.496 -12.867  0.00  0.00    -0.207 OA
ATOM     12  N   UNL     1      35.658 -23.399 -16.573  0.00  0.00    -0.137 N 
ATOM     13  N   UNL     1      36.931 -23.188 -16.146  0.00  0.00    -0.215 N 
ATOM     14  N   UNL     1      34.832 -23.799 -15.526  0.00  0.00    -0.143 NA
ATOM     15  N   UNL     1      37.865 -23.421 -13.884  0.00  0.00    -0.309 NA
ATOM     16  N   UNL     1      36.292 -24.123 -12.193  0.00  0.00    -0.251 NA
ATOM     17  N   UNL     1      38.501 -23.722 -11.635  0.00  0.00    -0.283 N 
ATOM     18  C   UNL     1      36.985 -23.440 -14.815  0.00  0.00    +0.243 C 
ATOM     19  C   UNL     1      35.604 -23.827 -14.485  0.00  0.00    +0.241 C 
ATOM     20  C   UNL     1      35.263 -24.181 -13.103  0.00  0.00    +0.239 C 
ATOM     21  C   UNL     1      37.501 -23.765 -12.579  0.00  0.00    +0.208 C 
ATOM     22  H   UNL     1      37.687 -22.900 -16.709  0.00  0.00    +0.175 HD
ATOM     23  H   UNL     1      39.413 -23.459 -11.894  0.00  0.00    +0.156 HD
ATOM     24  H   UNL     1      38.303 -23.954 -10.699  0.00  0.00    +0.156 HD
ENDBRANCH   5  12
ENDBRANCH   3   6
BRANCH   2  25
ATOM     25  C   UNL     1      36.048 -18.412 -21.928  0.00  0.00    +0.117 C 
BRANCH  25  26
ATOM     26  C   UNL     1      35.312 -18.268 -23.229  0.00  0.00    +0.003 C 
ATOM     27  C   UNL     1      35.209 -17.043 -23.882  0.00  0.00    +0.027 C 
ATOM     28  C   UNL     1      34.727 -19.408 -23.773  0.00  0.00    -0.002 C 
ATOM     29  C   UNL     1      34.515 -16.957 -25.088  0.00  0.00    +0.006 C 
ATOM     30  C   UNL     1      34.033 -19.322 -24.979  0.00  0.00    -0.000 C 
ATOM     31  C   UNL     1      33.927 -18.097 -25.637  0.00  0.00    +0.000 C 
BRANCH  27  32
ATOM     32  S   UNL     1      35.944 -15.554 -23.219  0.00  0.00    -0.087 S 
BRANCH  32  33
ATOM     33  C   UNL     1      34.535 -14.803 -22.418  0.00  0.00    +0.028 C 
ATOM     34  C   UNL     1      33.752 -13.841 -23.059  0.00  0.00    +0.013 C 
ATOM     35  C   UNL     1      34.223 -15.199 -21.116  0.00  0.00    +0.006 C 
ATOM     36  C   UNL     1      32.659 -13.278 -22.400  0.00  0.00    -0.001 C 
ATOM     37  C   UNL     1      33.130 -14.635 -20.458  0.00  0.00    +0.000 C 
ATOM     38  C   UNL     1      32.348 -13.674 -21.100  0.00  0.00    -0.000 C 
BRANCH  34  39
ATOM     39  C   UNL     1      34.045 -13.383 -24.452  0.00  0.00    +0.164 C 
BRANCH  39  40
ATOM     40  O   UNL     1      34.662 -12.104 -24.404  0.00  0.00    -0.377 OA
ATOM     41  H   UNL     1      35.570 -12.195 -24.076  0.00  0.00    +0.211 HD
ENDBRANCH  39  40
ENDBRANCH  34  39
ENDBRANCH  32  33
ENDBRANCH  27  32
ENDBRANCH  25  26
ENDBRANCH   2  25
TORSDOF 8
ENDMDL
MODEL 3
REMARK VINA RESULT:     -11.8      2.153      3.124
REMARK  Name = 448408
REMARK  8 active torsions:
REMARK  status: ('A' for Active; 'I' for Inactive)
REMARK    1  A    between atoms: N_2  and  C_25
REMARK    2  A    between atoms: C_3  and  C_6
REMARK    3  A    between atoms: C_5  and  N_12
REMARK    4  A    between atoms: C_25  and  C_26
REMARK    5  A    between atoms: C_27  and  S_32
REMARK    6  A    between atoms: S_32  and  C_33
REMARK    7  A    between atoms: C_34  and  C_39
REMARK    8  A    between atoms: C_39  and  O_40
REMARK                            x       y       z     vdW  Elec       q    Type
REMARK                         _______ _______ _______ _____ _____    ______ ____
ROOT
ATOM      1  O   UNL     1      33.002 -21.443 -20.590  0.00  0.00    -0.270 OA
ATOM      2  N   UNL     1      34.350 -22.540 -19.056  0.00  0.00    -0.297 N 
ATOM      3  C   UNL     1      34.107 -21.568 -20.033  0.00  0.00    +0.246 C 
ATOM      4  H   UNL     1      35.249 -22.584 -18.656  0.00  0.00    +0.150 HD
ENDROOT
BRANCH   3   6
ATOM      5  C   UNL     1      36.115 -18.876 -21.729  0.00  0.00    +0.090 C 
ATOM      6  C   UNL     1      35.221 -20.706 -20.398  0.00  0.00    +0.055 C 
ATOM      7  C   UNL     1      35.049 -19.716 -21.365  0.00  0.00    +0.023 C 
ATOM      8  C   UNL     1      37.358 -19.056 -21.100  0.00  0.00    +0.018 C 
ATOM      9  C   UNL     1      36.462 -20.872 -19.782  0.00  0.00    +0.005 C 
ATOM     10  C   UNL     1      37.530 -20.048 -20.133  0.00  0.00    +0.002 C 
BRANCH   5  12
ATOM     11  O   UNL     1      34.686 -13.927 -22.407  0.00  0.00    -0.207 OA
ATOM     12  N   UNL     1      35.944 -17.888 -22.692  0.00  0.00    -0.137 N 
ATOM     13  N   UNL     1      35.476 -18.103 -23.950  0.00  0.00    -0.215 N 
ATOM     14  N   UNL     1      35.675 -16.589 -22.267  0.00  0.00    -0.143 NA
ATOM     15  N   UNL     1      34.292 -16.557 -25.449  0.00  0.00    -0.309 NA
ATOM     16  N   UNL     1      33.910 -14.349 -24.550  0.00  0.00    -0.251 NA
ATOM     17  N   UNL     1      33.179 -14.883 -26.679  0.00  0.00    -0.283 N 
ATOM     18  C   UNL     1      34.889 -16.964 -24.392  0.00  0.00    +0.243 C 
ATOM     19  C   UNL     1      35.053 -16.036 -23.261  0.00  0.00    +0.241 C 
ATOM     20  C   UNL     1      34.532 -14.668 -23.367  0.00  0.00    +0.239 C 
ATOM     21  C   UNL     1      33.808 -15.247 -25.511  0.00  0.00    +0.208 C 
ATOM     22  H   UNL     1      35.552 -18.945 -24.455  0.00  0.00    +0.175 HD
ATOM     23  H   UNL     1      33.089 -15.531 -27.414  0.00  0.00    +0.156 HD
ATOM     24  H   UNL     1      32.819 -13.972 -26.780  0.00  0.00    +0.156 HD
ENDBRANCH   5  12
ENDBRANCH   3   6
BRANCH   2  25
ATOM     25  C   UNL     1      33.354 -23.485 -18.604  0.00  0.00    +0.117 C 
BRANCH  25  26
ATOM     26  C   UNL     1      33.002 -23.281 -17.159  0.00  0.00    +0.003 C 
ATOM     27  C   UNL     1      33.973 -23.281 -16.161  0.00  0.00    +0.027 C 
ATOM     28  C   UNL     1      31.662 -23.089 -16.838  0.00  0.00    -0.002 C 
ATOM     29  C   UNL     1      33.599 -23.088 -14.831  0.00  0.00    +0.006 C 
ATOM     30  C   UNL     1      31.288 -22.896 -15.508  0.00  0.00    -0.000 C 
ATOM     31  C   UNL     1      32.256 -22.895 -14.505  0.00  0.00    +0.000 C 
BRANCH  27  32
ATOM     32  S   UNL     1      35.705 -23.524 -16.528  0.00  0.00    -0.087 S 
BRANCH  32  33
ATOM     33  C   UNL     1      36.328 -24.020 -14.929  0.00  0.00    +0.028 C 
ATOM     34  C   UNL     1      36.520 -25.363 -14.599  0.00  0.00    +0.013 C 
ATOM     35  C   UNL     1      36.625 -23.025 -13.995  0.00  0.00    +0.006 C 
ATOM     36  C   UNL     1      37.009 -25.710 -13.340  0.00  0.00    -0.001 C 
ATOM     37  C   UNL     1      37.113 -23.373 -12.735  0.00  0.00    +0.000 C 
ATOM     38  C   UNL     1      37.305 -24.715 -12.408  0.00  0.00    -0.000 C 
BRANCH  34  39
ATOM     39  C   UNL     1      36.218 -26.465 -15.563  0.00  0.00    +0.164 C 
BRANCH  39  40
ATOM     40  O   UNL     1      37.427 -26.901 -16.169  0.00  0.00    -0.377 OA
ATOM     41  H   UNL     1      38.174 -26.696 -15.585  0.00  0.00    +0.211 HD
ENDBRANCH  39  40
ENDBRANCH  34  39
ENDBRANCH  32  33
ENDBRANCH  27  32
ENDBRANCH  25  26
ENDBRANCH   2  25
TORSDOF 8
ENDMDL
MODEL 4
REMARK VINA RESULT:     -11.8      3.558     11.720
REMARK  Name = 448408
REMARK  8 active torsions:
REMARK  status: ('A' for Active; 'I' for Inactive)
REMARK    1  A    between atoms: N_2  and  C_25
REMARK    2  A    between atoms: C_3  and  C_6
REMARK    3  A    between atoms: C_5  and  N_12
REMARK    4  A    between atoms: C_25  and  C_26
REMARK    5  A    between atoms: C_27  and  S_32
REMARK    6  A    between atoms: S_32  and  C_33
REMARK    7  A    between atoms: C_34  and  C_39
REMARK    8  A    between atoms: C_39  and  O_40
REMARK                            x       y       z     vdW  Elec       q    Type
REMARK                         _______ _______ _______ _____ _____    ______ ____
ROOT
ATOM      1  O   UNL     1      37.497 -20.217 -20.725  0.00  0.00    -0.270 OA
ATOM      2  N   UNL     1      35.508 -19.165 -21.282  0.00  0.00    -0.297 N 
ATOM      3  C   UNL     1      36.261 -20.135 -20.612  0.00  0.00    +0.246 C 
ATOM      4  H   UNL     1      34.532 -19.158 -21.148  0.00  0.00    +0.150 HD
ENDROOT
BRANCH   3   6
ATOM      5  C   UNL     1      35.390 -22.433 -17.763  0.00  0.00    +0.090 C 
ATOM      6  C   UNL     1      35.532 -21.080 -19.780  0.00  0.00    +0.055 C 
ATOM      7  C   UNL     1      36.083 -21.520 -18.577  0.00  0.00    +0.023 C 
ATOM      8  C   UNL     1      34.132 -22.893 -18.187  0.00  0.00    +0.018 C 
ATOM      9  C   UNL     1      34.281 -21.546 -20.188  0.00  0.00    +0.005 C 
ATOM     10  C   UNL     1      33.582 -22.452 -19.392  0.00  0.00    +0.002 C 
BRANCH   5  12
ATOM     11  O   UNL     1      39.743 -24.264 -15.597  0.00  0.00    -0.207 OA
ATOM     12  N   UNL     1      35.938 -22.872 -16.563  0.00  0.00    -0.137 N 
ATOM     13  N   UNL     1      35.271 -23.593 -15.623  0.00  0.00    -0.215 N 
ATOM     14  N   UNL     1      37.308 -23.116 -16.511  0.00  0.00    -0.143 NA
ATOM     15  N   UNL     1      36.161 -25.169 -13.960  0.00  0.00    -0.309 NA
ATOM     16  N   UNL     1      38.556 -25.470 -14.012  0.00  0.00    -0.251 NA
ATOM     17  N   UNL     1      37.270 -26.622 -12.473  0.00  0.00    -0.283 N 
ATOM     18  C   UNL     1      36.173 -24.329 -14.927  0.00  0.00    +0.243 C 
ATOM     19  C   UNL     1      37.457 -23.973 -15.550  0.00  0.00    +0.241 C 
ATOM     20  C   UNL     1      38.696 -24.584 -15.053  0.00  0.00    +0.239 C 
ATOM     21  C   UNL     1      37.362 -25.730 -13.516  0.00  0.00    +0.208 C 
ATOM     22  H   UNL     1      34.298 -23.583 -15.474  0.00  0.00    +0.175 HD
ATOM     23  H   UNL     1      36.392 -26.835 -12.081  0.00  0.00    +0.156 HD
ATOM     24  H   UNL     1      38.083 -27.049 -12.117  0.00  0.00    +0.156 HD
ENDBRANCH   5  12
ENDBRANCH   3   6
BRANCH   2  25
ATOM     25  C   UNL     1      36.083 -18.173 -22.162  0.00  0.00    +0.117 C 
BRANCH  25  26
ATOM     26  C   UNL     1      35.295 -18.024 -23.431  0.00  0.00    +0.003 C 
ATOM     27  C   UNL     1      35.135 -16.790 -24.055  0.00  0.00    +0.027 C 
ATOM     28  C   UNL     1      34.720 -19.168 -23.976  0.00  0.00    -0.002 C 
ATOM     29  C   UNL     1      34.394 -16.699 -25.232  0.00  0.00    +0.006 C 
ATOM     30  C   UNL     1      33.978 -19.078 -25.153  0.00  0.00    -0.000 C 
ATOM     31  C   UNL     1      33.815 -17.844 -25.782  0.00  0.00    +0.000 C 
BRANCH  27  32
ATOM     32  S   UNL     1      35.857 -15.295 -23.390  0.00  0.00    -0.087 S 
BRANCH  32  33
ATOM     33  C   UNL     1      34.461 -14.600 -22.517  0.00  0.00    +0.028 C 
ATOM     34  C   UNL     1      33.647 -13.623 -23.093  0.00  0.00    +0.013 C 
ATOM     35  C   UNL     1      34.193 -15.056 -21.225  0.00  0.00    +0.006 C 
ATOM     36  C   UNL     1      32.566 -13.106 -22.379  0.00  0.00    -0.001 C 
ATOM     37  C   UNL     1      33.113 -14.537 -20.511  0.00  0.00    +0.000 C 
ATOM     38  C   UNL     1      32.299 -13.562 -21.088  0.00  0.00    -0.000 C 
BRANCH  34  39
ATOM     39  C   UNL     1      33.891 -13.102 -24.472  0.00  0.00    +0.164 C 
BRANCH  39  40
ATOM     40  O   UNL     1      34.656 -11.907 -24.392  0.00  0.00    -0.377 OA
ATOM     41  H   UNL     1      34.579 -11.417 -25.226  0.00  0.00    +0.211 HD
ENDBRANCH  39  40
ENDBRANCH  34  39
ENDBRANCH  32  33
ENDBRANCH  27  32
ENDBRANCH  25  26
ENDBRANCH   2  25
TORSDOF 8
ENDMDL
MODEL 5
REMARK VINA RESULT:     -11.7      6.356     13.502
REMARK  Name = 448408
REMARK  8 active torsions:
REMARK  status: ('A' for Active; 'I' for Inactive)
REMARK    1  A    between atoms: N_2  and  C_25
REMARK    2  A    between atoms: C_3  and  C_6
REMARK    3  A    between atoms: C_5  and  N_12
REMARK    4  A    between atoms: C_25  and  C_26
REMARK    5  A    between atoms: C_27  and  S_32
REMARK    6  A    between atoms: S_32  and  C_33
REMARK    7  A    between atoms: C_34  and  C_39
REMARK    8  A    between atoms: C_39  and  O_40
REMARK                            x       y       z     vdW  Elec       q    Type
REMARK                         _______ _______ _______ _____ _____    ______ ____
ROOT
ATOM      1  O   UNL     1      35.019 -10.550 -24.683  0.00  0.00    -0.270 OA
ATOM      2  N   UNL     1      32.899 -10.948 -23.834  0.00  0.00    -0.297 N 
ATOM      3  C   UNL     1      34.050 -11.316 -24.540  0.00  0.00    +0.246 C 
ATOM      4  H   UNL     1      32.168 -11.605 -23.761  0.00  0.00    +0.150 HD
ENDROOT
BRANCH   3   6
ATOM      5  C   UNL     1      34.661 -14.999 -25.007  0.00  0.00    +0.090 C 
ATOM      6  C   UNL     1      34.064 -12.643 -25.135  0.00  0.00    +0.055 C 
ATOM      7  C   UNL     1      34.639 -13.711 -24.445  0.00  0.00    +0.023 C 
ATOM      8  C   UNL     1      34.093 -15.189 -26.277  0.00  0.00    +0.018 C 
ATOM      9  C   UNL     1      33.503 -12.849 -26.396  0.00  0.00    +0.005 C 
ATOM     10  C   UNL     1      33.517 -14.121 -26.967  0.00  0.00    +0.002 C 
BRANCH   5  12
ATOM     11  O   UNL     1      35.014 -20.182 -24.903  0.00  0.00    -0.207 OA
ATOM     12  N   UNL     1      35.233 -16.063 -24.319  0.00  0.00    -0.137 N 
ATOM     13  N   UNL     1      35.408 -16.112 -22.971  0.00  0.00    -0.215 N 
ATOM     14  N   UNL     1      35.118 -17.341 -24.861  0.00  0.00    -0.143 NA
ATOM     15  N   UNL     1      35.535 -18.073 -21.496  0.00  0.00    -0.309 NA
ATOM     16  N   UNL     1      35.316 -20.206 -22.604  0.00  0.00    -0.251 NA
ATOM     17  N   UNL     1      35.621 -20.110 -20.313  0.00  0.00    -0.283 N 
ATOM     18  C   UNL     1      35.414 -17.412 -22.586  0.00  0.00    +0.243 C 
ATOM     19  C   UNL     1      35.223 -18.143 -23.848  0.00  0.00    +0.241 C 
ATOM     20  C   UNL     1      35.175 -19.609 -23.835  0.00  0.00    +0.239 C 
ATOM     21  C   UNL     1      35.483 -19.470 -21.523  0.00  0.00    +0.208 C 
ATOM     22  H   UNL     1      35.513 -15.334 -22.377  0.00  0.00    +0.175 HD
ATOM     23  H   UNL     1      35.747 -19.586 -19.489  0.00  0.00    +0.156 HD
ATOM     24  H   UNL     1      35.592 -21.094 -20.271  0.00  0.00    +0.156 HD
ENDBRANCH   5  12
ENDBRANCH   3   6
BRANCH   2  25
ATOM     25  C   UNL     1      32.723  -9.657 -23.208  0.00  0.00    +0.117 C 
BRANCH  25  26
ATOM     26  C   UNL     1      32.193  -9.780 -21.809  0.00  0.00    +0.003 C 
ATOM     27  C   UNL     1      32.565  -8.893 -20.803  0.00  0.00    +0.027 C 
ATOM     28  C   UNL     1      31.307 -10.818 -21.540  0.00  0.00    -0.002 C 
ATOM     29  C   UNL     1      32.048  -9.046 -19.518  0.00  0.00    +0.006 C 
ATOM     30  C   UNL     1      30.789 -10.972 -20.254  0.00  0.00    -0.000 C 
ATOM     31  C   UNL     1      31.159 -10.086 -19.243  0.00  0.00    +0.000 C 
BRANCH  27  32
ATOM     32  S   UNL     1      33.701  -7.545 -21.105  0.00  0.00    -0.087 S 
BRANCH  32  33
ATOM     33  C   UNL     1      32.666  -6.428 -22.040  0.00  0.00    +0.028 C 
ATOM     34  C   UNL     1      33.042  -5.960 -23.301  0.00  0.00    +0.013 C 
ATOM     35  C   UNL     1      31.454  -6.020 -21.480  0.00  0.00    +0.006 C 
ATOM     36  C   UNL     1      32.206  -5.089 -24.000  0.00  0.00    -0.001 C 
ATOM     37  C   UNL     1      30.620  -5.149 -22.179  0.00  0.00    +0.000 C 
ATOM     38  C   UNL     1      30.996  -4.683 -23.439  0.00  0.00    -0.000 C 
BRANCH  34  39
ATOM     39  C   UNL     1      34.329  -6.367 -23.944  0.00  0.00    +0.164 C 
BRANCH  39  40
ATOM     40  O   UNL     1      34.618  -5.476 -25.014  0.00  0.00    -0.377 OA
ATOM     41  H   UNL     1      33.916  -4.811 -25.079  0.00  0.00    +0.211 HD
ENDBRANCH  39  40
ENDBRANCH  34  39
ENDBRANCH  32  33
ENDBRANCH  27  32
ENDBRANCH  25  26
ENDBRANCH   2  25
TORSDOF 8
ENDMDL
MODEL 6
REMARK VINA RESULT:     -11.3      1.839      2.284
REMARK  Name = 448408
REMARK  8 active torsions:
REMARK  status: ('A' for Active; 'I' for Inactive)
REMARK    1  A    between atoms: N_2  and  C_25
REMARK    2  A    between atoms: C_3  and  C_6
REMARK    3  A    between atoms: C_5  and  N_12
REMARK    4  A    between atoms: C_25  and  C_26
REMARK    5  A    between atoms: C_27  and  S_32
REMARK    6  A    between atoms: S_32  and  C_33
REMARK    7  A    between atoms: C_34  and  C_39
REMARK    8  A    between atoms: C_39  and  O_40
REMARK                            x       y       z     vdW  Elec       q    Type
REMARK                         _______ _______ _______ _____ _____    ______ ____
ROOT
ATOM      1  O   UNL     1      37.553 -18.723 -20.635  0.00  0.00    -0.270 OA
ATOM      2  N   UNL     1      36.203 -20.606 -20.532  0.00  0.00    -0.297 N 
ATOM      3  C   UNL     1      36.655 -19.426 -21.134  0.00  0.00    +0.246 C 
ATOM      4  H   UNL     1      35.489 -21.113 -20.981  0.00  0.00    +0.150 HD
ENDROOT
BRANCH   3   6
ATOM      5  C   UNL     1      34.885 -17.333 -23.711  0.00  0.00    +0.090 C 
ATOM      6  C   UNL     1      36.009 -19.028 -22.375  0.00  0.00    +0.055 C 
ATOM      7  C   UNL     1      35.513 -17.732 -22.518  0.00  0.00    +0.023 C 
ATOM      8  C   UNL     1      34.769 -18.267 -24.755  0.00  0.00    +0.018 C 
ATOM      9  C   UNL     1      35.886 -19.943 -23.421  0.00  0.00    +0.005 C 
ATOM     10  C   UNL     1      35.266 -19.563 -24.610  0.00  0.00    +0.002 C 
BRANCH   5  12
ATOM     11  O   UNL     1      33.426 -13.802 -27.232  0.00  0.00    -0.207 OA
ATOM     12  N   UNL     1      34.391 -16.042 -23.855  0.00  0.00    -0.137 N 
ATOM     13  N   UNL     1      34.735 -14.988 -23.069  0.00  0.00    -0.215 N 
ATOM     14  N   UNL     1      33.997 -15.622 -25.123  0.00  0.00    -0.143 NA
ATOM     15  N   UNL     1      34.735 -12.589 -23.607  0.00  0.00    -0.309 NA
ATOM     16  N   UNL     1      34.024 -12.041 -25.848  0.00  0.00    -0.251 NA
ATOM     17  N   UNL     1      34.642 -10.364 -24.379  0.00  0.00    -0.283 N 
ATOM     18  C   UNL     1      34.579 -13.848 -23.787  0.00  0.00    +0.243 C 
ATOM     19  C   UNL     1      34.104 -14.330 -25.094  0.00  0.00    +0.241 C 
ATOM     20  C   UNL     1      33.818 -13.364 -26.161  0.00  0.00    +0.239 C 
ATOM     21  C   UNL     1      34.452 -11.700 -24.648  0.00  0.00    +0.208 C 
ATOM     22  H   UNL     1      35.044 -15.043 -22.136  0.00  0.00    +0.175 HD
ATOM     23  H   UNL     1      34.961 -10.080 -23.493  0.00  0.00    +0.156 HD
ATOM     24  H   UNL     1      34.459  -9.692 -25.075  0.00  0.00    +0.156 HD
ENDBRANCH   5  12
ENDBRANCH   3   6
BRANCH   2  25
ATOM     25  C   UNL     1      36.728 -21.120 -19.287  0.00  0.00    +0.117 C 
BRANCH  25  26
ATOM     26  C   UNL     1      35.714 -21.946 -18.549  0.00  0.00    +0.003 C 
ATOM     27  C   UNL     1      35.985 -22.496 -17.300  0.00  0.00    +0.027 C 
ATOM     28  C   UNL     1      34.479 -22.151 -19.156  0.00  0.00    -0.002 C 
ATOM     29  C   UNL     1      35.013 -23.257 -16.652  0.00  0.00    +0.006 C 
ATOM     30  C   UNL     1      33.506 -22.913 -18.509  0.00  0.00    -0.000 C 
ATOM     31  C   UNL     1      33.773 -23.465 -17.257  0.00  0.00    +0.000 C 
BRANCH  27  32
ATOM     32  S   UNL     1      37.558 -22.258 -16.484  0.00  0.00    -0.087 S 
BRANCH  32  33
ATOM     33  C   UNL     1      37.397 -23.371 -15.096  0.00  0.00    +0.028 C 
ATOM     34  C   UNL     1      38.303 -24.411 -14.880  0.00  0.00    +0.013 C 
ATOM     35  C   UNL     1      36.330 -23.184 -14.216  0.00  0.00    +0.006 C 
ATOM     36  C   UNL     1      38.143 -25.260 -13.784  0.00  0.00    -0.001 C 
ATOM     37  C   UNL     1      36.170 -24.034 -13.121  0.00  0.00    +0.000 C 
ATOM     38  C   UNL     1      37.077 -25.072 -12.905  0.00  0.00    -0.000 C 
BRANCH  34  39
ATOM     39  C   UNL     1      39.462 -24.654 -15.793  0.00  0.00    +0.164 C 
BRANCH  39  40
ATOM     40  O   UNL     1      39.804 -26.033 -15.758  0.00  0.00    -0.377 OA
ATOM     41  H   UNL     1      39.265 -26.516 -16.405  0.00  0.00    +0.211 HD
ENDBRANCH  39  40
ENDBRANCH  34  39
ENDBRANCH  32  33
ENDBRANCH  27  32
ENDBRANCH  25  26
ENDBRANCH   2  25
TORSDOF 8
ENDMDL
MODEL 7
REMARK VINA RESULT:     -11.3      4.861     12.759
REMARK  Name = 448408
REMARK  8 active torsions:
REMARK  status: ('A' for Active; 'I' for Inactive)
REMARK    1  A    between atoms: N_2  and  C_25
REMARK    2  A    between atoms: C_3  and  C_6
REMARK    3  A    between atoms: C_5  and  N_12
REMARK    4  A    between atoms: C_25  and  C_26
REMARK    5  A    between atoms: C_27  and  S_32
REMARK    6  A    between atoms: S_32  and  C_33
REMARK    7  A    between atoms: C_34  and  C_39
REMARK    8  A    between atoms: C_39  and  O_40
REMARK                            x       y       z     vdW  Elec       q    Type
REMARK                         _______ _______ _______ _____ _____    ______ ____
ROOT
ATOM      1  O   UNL     1      35.345 -14.066 -22.475  0.00  0.00    -0.270 OA
ATOM      2  N   UNL     1      34.231 -13.344 -24.376  0.00  0.00    -0.297 N 
ATOM      3  C   UNL     1      34.803 -14.330 -23.563  0.00  0.00    +0.246 C 
ATOM      4  H   UNL     1      33.819 -13.623 -25.226  0.00  0.00    +0.150 HD
ENDROOT
BRANCH   3   6
ATOM      5  C   UNL     1      35.087 -18.080 -23.679  0.00  0.00    +0.090 C 
ATOM      6  C   UNL     1      34.764 -15.697 -24.057  0.00  0.00    +0.055 C 
ATOM      7  C   UNL     1      35.119 -16.753 -23.217  0.00  0.00    +0.023 C 
ATOM      8  C   UNL     1      34.691 -18.320 -25.005  0.00  0.00    +0.018 C 
ATOM      9  C   UNL     1      34.373 -15.953 -25.372  0.00  0.00    +0.005 C 
ATOM     10  C   UNL     1      34.336 -17.264 -25.846  0.00  0.00    +0.002 C 
BRANCH   5  12
ATOM     11  O   UNL     1      33.168 -21.559 -20.332  0.00  0.00    -0.207 OA
ATOM     12  N   UNL     1      35.439 -19.132 -22.842  0.00  0.00    -0.137 N 
ATOM     13  N   UNL     1      36.585 -19.192 -22.113  0.00  0.00    -0.215 N 
ATOM     14  N   UNL     1      34.422 -19.876 -22.250  0.00  0.00    -0.143 NA
ATOM     15  N   UNL     1      37.023 -20.391 -20.012  0.00  0.00    -0.309 NA
ATOM     16  N   UNL     1      35.149 -21.629 -19.128  0.00  0.00    -0.251 NA
ATOM     17  N   UNL     1      37.174 -21.627 -18.011  0.00  0.00    -0.283 N 
ATOM     18  C   UNL     1      36.362 -19.973 -21.026  0.00  0.00    +0.243 C 
ATOM     19  C   UNL     1      34.956 -20.376 -21.179  0.00  0.00    +0.241 C 
ATOM     20  C   UNL     1      34.339 -21.246 -20.171  0.00  0.00    +0.239 C 
ATOM     21  C   UNL     1      36.400 -21.218 -19.072  0.00  0.00    +0.208 C 
ATOM     22  H   UNL     1      37.434 -18.745 -22.336  0.00  0.00    +0.175 HD
ATOM     23  H   UNL     1      38.112 -21.336 -17.943  0.00  0.00    +0.156 HD
ATOM     24  H   UNL     1      36.789 -22.211 -17.318  0.00  0.00    +0.156 HD
ENDBRANCH   5  12
ENDBRANCH   3   6
BRANCH   2  25
ATOM     25  C   UNL     1      34.212 -11.939 -24.036  0.00  0.00    +0.117 C 
BRANCH  25  26
ATOM     26  C   UNL     1      33.092 -11.605 -23.093  0.00  0.00    +0.003 C 
ATOM     27  C   UNL     1      32.616 -10.305 -22.951  0.00  0.00    +0.027 C 
ATOM     28  C   UNL     1      32.534 -12.644 -22.354  0.00  0.00    -0.002 C 
ATOM     29  C   UNL     1      31.575 -10.041 -22.062  0.00  0.00    +0.006 C 
ATOM     30  C   UNL     1      31.492 -12.381 -21.465  0.00  0.00    -0.000 C 
ATOM     31  C   UNL     1      31.012 -11.080 -21.320  0.00  0.00    +0.000 C 
BRANCH  27  32
ATOM     32  S   UNL     1      33.304  -8.941 -23.880  0.00  0.00    -0.087 S 
BRANCH  32  33
ATOM     33  C   UNL     1      32.380  -7.568 -23.208  0.00  0.00    +0.028 C 
ATOM     34  C   UNL     1      32.738  -6.961 -22.002  0.00  0.00    +0.013 C 
ATOM     35  C   UNL     1      31.272  -7.102 -23.918  0.00  0.00    +0.006 C 
ATOM     36  C   UNL     1      31.992  -5.891 -21.510  0.00  0.00    -0.001 C 
ATOM     37  C   UNL     1      30.525  -6.032 -23.425  0.00  0.00    +0.000 C 
ATOM     38  C   UNL     1      30.885  -5.427 -22.221  0.00  0.00    -0.000 C 
BRANCH  34  39
ATOM     39  C   UNL     1      33.916  -7.421 -21.204  0.00  0.00    +0.164 C 
BRANCH  39  40
ATOM     40  O   UNL     1      33.463  -7.950 -19.965  0.00  0.00    -0.377 OA
ATOM     41  H   UNL     1      32.933  -7.281 -19.503  0.00  0.00    +0.211 HD
ENDBRANCH  39  40
ENDBRANCH  34  39
ENDBRANCH  32  33
ENDBRANCH  27  32
ENDBRANCH  25  26
ENDBRANCH   2  25
TORSDOF 8
ENDMDL
MODEL 8
REMARK VINA RESULT:     -11.1      4.283     11.790
REMARK  Name = 448408
REMARK  8 active torsions:
REMARK  status: ('A' for Active; 'I' for Inactive)
REMARK    1  A    between atoms: N_2  and  C_25
REMARK    2  A    between atoms: C_3  and  C_6
REMARK    3  A    between atoms: C_5  and  N_12
REMARK    4  A    between atoms: C_25  and  C_26
REMARK    5  A    between atoms: C_27  and  S_32
REMARK    6  A    between atoms: S_32  and  C_33
REMARK    7  A    between atoms: C_34  and  C_39
REMARK    8  A    between atoms: C_39  and  O_40
REMARK                            x       y       z     vdW  Elec       q    Type
REMARK                         _______ _______ _______ _____ _____    ______ ____
ROOT
ATOM      1  O   UNL     1      33.994 -23.415 -20.265  0.00  0.00    -0.270 OA
ATOM      2  N   UNL     1      33.723 -21.185 -19.693  0.00  0.00    -0.297 N 
ATOM      3  C   UNL     1      33.746 -22.554 -19.403  0.00  0.00    +0.246 C 
ATOM      4  H   UNL     1      33.519 -20.557 -18.962  0.00  0.00    +0.150 HD
ENDROOT
BRANCH   3   6
ATOM      5  C   UNL     1      34.145 -23.900 -15.912  0.00  0.00    +0.090 C 
ATOM      6  C   UNL     1      33.439 -22.944 -18.035  0.00  0.00    +0.055 C 
ATOM      7  C   UNL     1      34.427 -23.517 -17.235  0.00  0.00    +0.023 C 
ATOM      8  C   UNL     1      32.848 -23.694 -15.414  0.00  0.00    +0.018 C 
ATOM      9  C   UNL     1      32.155 -22.746 -17.525  0.00  0.00    +0.005 C 
ATOM     10  C   UNL     1      31.860 -23.120 -16.215  0.00  0.00    +0.002 C 
BRANCH   5  12
ATOM     11  O   UNL     1      37.908 -22.784 -12.508  0.00  0.00    -0.207 OA
ATOM     12  N   UNL     1      35.130 -24.470 -15.113  0.00  0.00    -0.137 N 
ATOM     13  N   UNL     1      35.885 -25.546 -15.462  0.00  0.00    -0.215 N 
ATOM     14  N   UNL     1      35.799 -23.655 -14.204  0.00  0.00    -0.143 NA
ATOM     15  N   UNL     1      38.143 -26.163 -14.712  0.00  0.00    -0.309 NA
ATOM     16  N   UNL     1      39.152 -24.638 -13.136  0.00  0.00    -0.251 NA
ATOM     17  N   UNL     1      40.301 -26.520 -13.834  0.00  0.00    -0.283 N 
ATOM     18  C   UNL     1      37.066 -25.475 -14.799  0.00  0.00    +0.243 C 
ATOM     19  C   UNL     1      36.941 -24.239 -14.012  0.00  0.00    +0.241 C 
ATOM     20  C   UNL     1      38.048 -23.818 -13.145  0.00  0.00    +0.239 C 
ATOM     21  C   UNL     1      39.176 -25.729 -13.876  0.00  0.00    +0.208 C 
ATOM     22  H   UNL     1      35.619 -26.256 -16.090  0.00  0.00    +0.175 HD
ATOM     23  H   UNL     1      40.347 -27.341 -14.375  0.00  0.00    +0.156 HD
ATOM     24  H   UNL     1      41.061 -26.264 -13.262  0.00  0.00    +0.156 HD
ENDBRANCH   5  12
ENDBRANCH   3   6
BRANCH   2  25
ATOM     25  C   UNL     1      33.982 -20.642 -21.007  0.00  0.00    +0.117 C 
BRANCH  25  26
ATOM     26  C   UNL     1      35.367 -20.072 -21.116  0.00  0.00    +0.003 C 
ATOM     27  C   UNL     1      35.743 -19.257 -22.180  0.00  0.00    +0.027 C 
ATOM     28  C   UNL     1      36.278 -20.383 -20.111  0.00  0.00    -0.002 C 
ATOM     29  C   UNL     1      37.041 -18.751 -22.240  0.00  0.00    +0.006 C 
ATOM     30  C   UNL     1      37.575 -19.877 -20.170  0.00  0.00    -0.000 C 
ATOM     31  C   UNL     1      37.957 -19.060 -21.234  0.00  0.00    +0.000 C 
BRANCH  27  32
ATOM     32  S   UNL     1      34.606 -18.832 -23.493  0.00  0.00    -0.087 S 
BRANCH  32  33
ATOM     33  C   UNL     1      34.670 -17.048 -23.437  0.00  0.00    +0.028 C 
ATOM     34  C   UNL     1      34.487 -16.270 -24.582  0.00  0.00    +0.013 C 
ATOM     35  C   UNL     1      34.912 -16.430 -22.209  0.00  0.00    +0.006 C 
ATOM     36  C   UNL     1      34.544 -14.879 -24.498  0.00  0.00    -0.001 C 
ATOM     37  C   UNL     1      34.970 -15.039 -22.126  0.00  0.00    +0.000 C 
ATOM     38  C   UNL     1      34.786 -14.263 -23.270  0.00  0.00    -0.000 C 
BRANCH  34  39
ATOM     39  C   UNL     1      34.225 -16.882 -25.921  0.00  0.00    +0.164 C 
BRANCH  39  40
ATOM     40  O   UNL     1      33.869 -15.859 -26.842  0.00  0.00    -0.377 OA
ATOM     41  H   UNL     1      34.559 -15.779 -27.518  0.00  0.00    +0.211 HD
ENDBRANCH  39  40
ENDBRANCH  34  39
ENDBRANCH  32  33
ENDBRANCH  27  32
ENDBRANCH  25  26
ENDBRANCH   2  25
TORSDOF 8
ENDMDL
MODEL 9
REMARK VINA RESULT:     -11.0      3.355      4.895
REMARK  Name = 448408
REMARK  8 active torsions:
REMARK  status: ('A' for Active; 'I' for Inactive)
REMARK    1  A    between atoms: N_2  and  C_25
REMARK    2  A    between atoms: C_3  and  C_6
REMARK    3  A    between atoms: C_5  and  N_12
REMARK    4  A    between atoms: C_25  and  C_26
REMARK    5  A    between atoms: C_27  and  S_32
REMARK    6  A    between atoms: S_32  and  C_33
REMARK    7  A    between atoms: C_34  and  C_39
REMARK    8  A    between atoms: C_39  and  O_40
REMARK                            x       y       z     vdW  Elec       q    Type
REMARK                         _______ _______ _______ _____ _____    ______ ____
ROOT
ATOM      1  O   UNL     1      33.039 -20.499 -21.045  0.00  0.00    -0.270 OA
ATOM      2  N   UNL     1      34.557 -21.680 -19.751  0.00  0.00    -0.297 N 
ATOM      3  C   UNL     1      34.213 -20.696 -20.684  0.00  0.00    +0.246 C 
ATOM      4  H   UNL     1      35.506 -21.782 -19.510  0.00  0.00    +0.150 HD
ENDROOT
BRANCH   3   6
ATOM      5  C   UNL     1      36.070 -18.153 -22.744  0.00  0.00    +0.090 C 
ATOM      6  C   UNL     1      35.300 -19.911 -21.248  0.00  0.00    +0.055 C 
ATOM      7  C   UNL     1      35.029 -18.919 -22.190  0.00  0.00    +0.023 C 
ATOM      8  C   UNL     1      37.387 -18.409 -22.329  0.00  0.00    +0.018 C 
ATOM      9  C   UNL     1      36.615 -20.153 -20.846  0.00  0.00    +0.005 C 
ATOM     10  C   UNL     1      37.658 -19.402 -21.387  0.00  0.00    +0.002 C 
BRANCH   5  12
ATOM     11  O   UNL     1      34.660 -13.180 -23.262  0.00  0.00    -0.207 OA
ATOM     12  N   UNL     1      35.800 -17.164 -23.683  0.00  0.00    -0.137 N 
ATOM     13  N   UNL     1      35.178 -17.373 -24.873  0.00  0.00    -0.215 N 
ATOM     14  N   UNL     1      35.609 -15.859 -23.233  0.00  0.00    -0.143 NA
ATOM     15  N   UNL     1      33.849 -15.807 -26.222  0.00  0.00    -0.309 NA
ATOM     16  N   UNL     1      33.620 -13.591 -25.293  0.00  0.00    -0.251 NA
ATOM     17  N   UNL     1      32.625 -14.114 -27.314  0.00  0.00    -0.283 N 
ATOM     18  C   UNL     1      34.563 -16.223 -25.244  0.00  0.00    +0.243 C 
ATOM     19  C   UNL     1      34.881 -15.297 -24.146  0.00  0.00    +0.241 C 
ATOM     20  C   UNL     1      34.376 -13.919 -24.193  0.00  0.00    +0.239 C 
ATOM     21  C   UNL     1      33.385 -14.488 -26.230  0.00  0.00    +0.208 C 
ATOM     22  H   UNL     1      35.176 -18.217 -25.381  0.00  0.00    +0.175 HD
ATOM     23  H   UNL     1      32.434 -14.762 -28.030  0.00  0.00    +0.156 HD
ATOM     24  H   UNL     1      32.271 -13.197 -27.374  0.00  0.00    +0.156 HD
ENDBRANCH   5  12
ENDBRANCH   3   6
BRANCH   2  25
ATOM     25  C   UNL     1      33.594 -22.556 -19.120  0.00  0.00    +0.117 C 
BRANCH  25  26
ATOM     26  C   UNL     1      33.934 -22.820 -17.682  0.00  0.00    +0.003 C 
ATOM     27  C   UNL     1      32.958 -22.839 -16.690  0.00  0.00    +0.027 C 
ATOM     28  C   UNL     1      35.269 -23.048 -17.362  0.00  0.00    -0.002 C 
ATOM     29  C   UNL     1      33.321 -23.088 -15.367  0.00  0.00    +0.006 C 
ATOM     30  C   UNL     1      35.632 -23.298 -16.039  0.00  0.00    -0.000 C 
ATOM     31  C   UNL     1      34.658 -23.318 -15.041  0.00  0.00    +0.000 C 
BRANCH  27  32
ATOM     32  S   UNL     1      31.232 -22.551 -17.056  0.00  0.00    -0.087 S 
BRANCH  32  33
ATOM     33  C   UNL     1      30.457 -23.835 -16.086  0.00  0.00    +0.028 C 
ATOM     34  C   UNL     1      29.071 -24.006 -16.067  0.00  0.00    +0.013 C 
ATOM     35  C   UNL     1      31.272 -24.680 -15.331  0.00  0.00    +0.006 C 
ATOM     36  C   UNL     1      28.503 -25.020 -15.296  0.00  0.00    -0.001 C 
ATOM     37  C   UNL     1      30.703 -25.694 -14.560  0.00  0.00    +0.000 C 
ATOM     38  C   UNL     1      29.319 -25.864 -14.542  0.00  0.00    -0.000 C 
BRANCH  34  39
ATOM     39  C   UNL     1      28.154 -23.128 -16.857  0.00  0.00    +0.164 C 
BRANCH  39  40
ATOM     40  O   UNL     1      27.815 -23.781 -18.073  0.00  0.00    -0.377 OA
ATOM     41  H   UNL     1      27.317 -24.589 -17.878  0.00  0.00    +0.211 HD
ENDBRANCH  39  40
ENDBRANCH  34  39
ENDBRANCH  32  33
ENDBRANCH  27  32
ENDBRANCH  25  26
ENDBRANCH   2  25
TORSDOF 8
ENDMDL
