MODEL 1
REMARK VINA RESULT:     -11.6      0.000      0.000
REMARK  Name = 24901696
REMARK  4 active torsions:
REMARK  status: ('A' for Active; 'I' for Inactive)
REMARK    1  A    between atoms: C_5  and  C_16
REMARK    2  A    between atoms: C_7  and  C_10
REMARK    3  A    between atoms: C_16  and  C_17
REMARK    4  A    between atoms: C_22  and  O_23
REMARK                            x       y       z     vdW  Elec       q    Type
REMARK                         _______ _______ _______ _____ _____    ______ ____
ROOT
ATOM      1  N   UNL     1      35.152 -17.126 -22.651  0.00  0.00    -0.195 N 
ATOM      2  N   UNL     1      35.027 -17.994 -21.617  0.00  0.00    -0.163 NA
ATOM      3  N   UNL     1      35.270 -15.259 -23.794  0.00  0.00    -0.131 NA
ATOM      4  N   UNL     1      35.403 -16.312 -24.676  0.00  0.00    -0.127 NA
ATOM      5  C   UNL     1      35.122 -15.763 -22.589  0.00  0.00    +0.168 A 
ATOM      6  C   UNL     1      35.331 -17.428 -23.981  0.00  0.00    +0.186 A 
ATOM      7  C   UNL     1      35.085 -19.246 -21.970  0.00  0.00    +0.101 C 
ATOM      8  C   UNL     1      35.408 -18.791 -24.332  0.00  0.00    +0.042 C 
ATOM      9  C   UNL     1      35.294 -19.722 -23.376  0.00  0.00    +0.024 C 
ENDROOT
BRANCH   7  10
ATOM     10  C   UNL     1      34.955 -20.296 -20.926  0.00  0.00    +0.019 C 
ATOM     11  C   UNL     1      33.691 -20.736 -20.532  0.00  0.00    +0.002 C 
ATOM     12  C   UNL     1      36.098 -20.843 -20.341  0.00  0.00    +0.002 C 
ATOM     13  C   UNL     1      33.570 -21.721 -19.552  0.00  0.00    +0.000 C 
ATOM     14  C   UNL     1      35.976 -21.828 -19.362  0.00  0.00    +0.000 C 
ATOM     15  C   UNL     1      34.711 -22.268 -18.968  0.00  0.00    +0.000 C 
ENDBRANCH   7  10
BRANCH   5  16
ATOM     16  C   UNL     1      34.947 -15.018 -21.329  0.00  0.00    +0.094 C 
BRANCH  16  17
ATOM     17  C   UNL     1      33.764 -14.060 -21.320  0.00  0.00    -0.014 C 
ATOM     18  C   UNL     1      33.479 -13.293 -22.450  0.00  0.00    -0.001 C 
ATOM     19  C   UNL     1      32.967 -13.948 -20.182  0.00  0.00    -0.001 C 
ATOM     20  C   UNL     1      32.395 -12.414 -22.441  0.00  0.00    +0.036 C 
ATOM     21  C   UNL     1      31.883 -13.069 -20.172  0.00  0.00    +0.036 C 
ATOM     22  C   UNL     1      31.598 -12.303 -21.301  0.00  0.00    +0.134 C 
BRANCH  22  23
ATOM     23  O   UNL     1      30.541 -11.445 -21.293  0.00  0.00    -0.506 OA
ATOM     24  H   UNL     1      29.798 -11.621 -20.750  0.00  0.00    +0.292 HD
ENDBRANCH  22  23
ENDBRANCH  16  17
ENDBRANCH   5  16
TORSDOF 4
ENDMDL
MODEL 2
REMARK VINA RESULT:     -11.2      1.301      2.034
REMARK  Name = 24901696
REMARK  4 active torsions:
REMARK  status: ('A' for Active; 'I' for Inactive)
REMARK    1  A    between atoms: C_5  and  C_16
REMARK    2  A    between atoms: C_7  and  C_10
REMARK    3  A    between atoms: C_16  and  C_17
REMARK    4  A    between atoms: C_22  and  O_23
REMARK                            x       y       z     vdW  Elec       q    Type
REMARK                         _______ _______ _______ _____ _____    ______ ____
ROOT
ATOM      1  N   UNL     1      34.691 -16.484 -24.313  0.00  0.00    -0.195 N 
ATOM      2  N   UNL     1      35.154 -17.111 -23.203  0.00  0.00    -0.163 NA
ATOM      3  N   UNL     1      34.093 -14.904 -25.709  0.00  0.00    -0.131 NA
ATOM      4  N   UNL     1      33.862 -16.123 -26.315  0.00  0.00    -0.127 NA
ATOM      5  C   UNL     1      34.589 -15.139 -24.516  0.00  0.00    +0.168 A 
ATOM      6  C   UNL     1      34.224 -17.065 -25.469  0.00  0.00    +0.186 A 
ATOM      7  C   UNL     1      35.130 -18.411 -23.283  0.00  0.00    +0.101 C 
ATOM      8  C   UNL     1      34.226 -18.473 -25.535  0.00  0.00    +0.042 C 
ATOM      9  C   UNL     1      34.666 -19.178 -24.484  0.00  0.00    +0.024 C 
ENDROOT
BRANCH   7  10
ATOM     10  C   UNL     1      35.606 -19.213 -22.126  0.00  0.00    +0.019 C 
ATOM     11  C   UNL     1      36.900 -19.034 -21.638  0.00  0.00    +0.002 C 
ATOM     12  C   UNL     1      34.757 -20.144 -21.526  0.00  0.00    +0.002 C 
ATOM     13  C   UNL     1      37.347 -19.787 -20.552  0.00  0.00    +0.000 C 
ATOM     14  C   UNL     1      35.203 -20.897 -20.441  0.00  0.00    +0.000 C 
ATOM     15  C   UNL     1      36.499 -20.718 -19.953  0.00  0.00    +0.000 C 
ENDBRANCH   7  10
BRANCH   5  16
ATOM     16  C   UNL     1      34.991 -14.141 -23.508  0.00  0.00    +0.094 C 
BRANCH  16  17
ATOM     17  C   UNL     1      33.833 -13.488 -22.767  0.00  0.00    -0.014 C 
ATOM     18  C   UNL     1      33.264 -12.313 -23.258  0.00  0.00    -0.001 C 
ATOM     19  C   UNL     1      33.341 -14.064 -21.596  0.00  0.00    -0.001 C 
ATOM     20  C   UNL     1      32.203 -11.714 -22.578  0.00  0.00    +0.036 C 
ATOM     21  C   UNL     1      32.280 -13.466 -20.916  0.00  0.00    +0.036 C 
ATOM     22  C   UNL     1      31.712 -12.291 -21.407  0.00  0.00    +0.134 C 
BRANCH  22  23
ATOM     23  O   UNL     1      30.677 -11.706 -20.744  0.00  0.00    -0.506 OA
ATOM     24  H   UNL     1      29.805 -12.032 -20.854  0.00  0.00    +0.292 HD
ENDBRANCH  22  23
ENDBRANCH  16  17
ENDBRANCH   5  16
TORSDOF 4
ENDMDL
MODEL 3
REMARK VINA RESULT:     -10.9      5.753      8.802
REMARK  Name = 24901696
REMARK  4 active torsions:
REMARK  status: ('A' for Active; 'I' for Inactive)
REMARK    1  A    between atoms: C_5  and  C_16
REMARK    2  A    between atoms: C_7  and  C_10
REMARK    3  A    between atoms: C_16  and  C_17
REMARK    4  A    between atoms: C_22  and  O_23
REMARK                            x       y       z     vdW  Elec       q    Type
REMARK                         _______ _______ _______ _____ _____    ______ ____
ROOT
ATOM      1  N   UNL     1      33.728 -23.594 -16.800  0.00  0.00    -0.195 N 
ATOM      2  N   UNL     1      34.927 -24.136 -16.471  0.00  0.00    -0.163 NA
ATOM      3  N   UNL     1      32.090 -22.731 -17.975  0.00  0.00    -0.131 NA
ATOM      4  N   UNL     1      31.693 -22.780 -16.654  0.00  0.00    -0.127 NA
ATOM      5  C   UNL     1      33.307 -23.223 -18.044  0.00  0.00    +0.168 A 
ATOM      6  C   UNL     1      32.682 -23.299 -15.957  0.00  0.00    +0.186 A 
ATOM      7  C   UNL     1      35.060 -24.384 -15.199  0.00  0.00    +0.101 C 
ATOM      8  C   UNL     1      32.848 -23.594 -14.589  0.00  0.00    +0.042 C 
ATOM      9  C   UNL     1      34.001 -24.132 -14.169  0.00  0.00    +0.024 C 
ENDROOT
BRANCH   7  10
ATOM     10  C   UNL     1      36.334 -24.975 -14.711  0.00  0.00    +0.019 C 
ATOM     11  C   UNL     1      37.104 -24.292 -13.769  0.00  0.00    +0.002 C 
ATOM     12  C   UNL     1      36.759 -26.214 -15.194  0.00  0.00    +0.002 C 
ATOM     13  C   UNL     1      38.299 -24.847 -13.311  0.00  0.00    +0.000 C 
ATOM     14  C   UNL     1      37.954 -26.767 -14.736  0.00  0.00    +0.000 C 
ATOM     15  C   UNL     1      38.724 -26.084 -13.793  0.00  0.00    +0.000 C 
ENDBRANCH   7  10
BRANCH   5  16
ATOM     16  C   UNL     1      34.138 -23.373 -19.252  0.00  0.00    +0.094 C 
BRANCH  16  17
ATOM     17  C   UNL     1      34.622 -22.061 -19.855  0.00  0.00    -0.014 C 
ATOM     18  C   UNL     1      33.711 -21.187 -20.447  0.00  0.00    -0.001 C 
ATOM     19  C   UNL     1      35.977 -21.734 -19.815  0.00  0.00    -0.001 C 
ATOM     20  C   UNL     1      34.155 -19.985 -21.000  0.00  0.00    +0.036 C 
ATOM     21  C   UNL     1      36.422 -20.533 -20.367  0.00  0.00    +0.036 C 
ATOM     22  C   UNL     1      35.511 -19.659 -20.959  0.00  0.00    +0.134 C 
BRANCH  22  23
ATOM     23  O   UNL     1      35.944 -18.487 -21.499  0.00  0.00    -0.506 OA
ATOM     24  H   UNL     1      35.505 -18.121 -22.241  0.00  0.00    +0.292 HD
ENDBRANCH  22  23
ENDBRANCH  16  17
ENDBRANCH   5  16
TORSDOF 4
ENDMDL
MODEL 4
REMARK VINA RESULT:     -10.4      3.077      7.556
REMARK  Name = 24901696
REMARK  4 active torsions:
REMARK  status: ('A' for Active; 'I' for Inactive)
REMARK    1  A    between atoms: C_5  and  C_16
REMARK    2  A    between atoms: C_7  and  C_10
REMARK    3  A    between atoms: C_16  and  C_17
REMARK    4  A    between atoms: C_22  and  O_23
REMARK                            x       y       z     vdW  Elec       q    Type
REMARK                         _______ _______ _______ _____ _____    ______ ____
ROOT
ATOM      1  N   UNL     1      34.712 -16.206 -24.104  0.00  0.00    -0.195 N 
ATOM      2  N   UNL     1      34.394 -15.037 -23.496  0.00  0.00    -0.163 NA
ATOM      3  N   UNL     1      35.474 -18.235 -24.438  0.00  0.00    -0.131 NA
ATOM      4  N   UNL     1      34.942 -17.774 -25.626  0.00  0.00    -0.127 NA
ATOM      5  C   UNL     1      35.326 -17.286 -23.541  0.00  0.00    +0.168 A 
ATOM      6  C   UNL     1      34.487 -16.556 -25.416  0.00  0.00    +0.186 A 
ATOM      7  C   UNL     1      33.817 -14.174 -24.282  0.00  0.00    +0.101 C 
ATOM      8  C   UNL     1      33.845 -15.609 -26.238  0.00  0.00    +0.042 C 
ATOM      9  C   UNL     1      33.494 -14.423 -25.724  0.00  0.00    +0.024 C 
ENDROOT
BRANCH   7  10
ATOM     10  C   UNL     1      33.425 -12.849 -23.733  0.00  0.00    +0.019 C 
ATOM     11  C   UNL     1      33.906 -11.680 -24.322  0.00  0.00    +0.002 C 
ATOM     12  C   UNL     1      32.574 -12.775 -22.629  0.00  0.00    +0.002 C 
ATOM     13  C   UNL     1      33.538 -10.437 -23.807  0.00  0.00    +0.000 C 
ATOM     14  C   UNL     1      32.207 -11.533 -22.115  0.00  0.00    +0.000 C 
ATOM     15  C   UNL     1      32.688 -10.363 -22.704  0.00  0.00    +0.000 C 
ENDBRANCH   7  10
BRANCH   5  16
ATOM     16  C   UNL     1      35.743 -17.328 -22.128  0.00  0.00    +0.094 C 
BRANCH  16  17
ATOM     17  C   UNL     1      35.671 -18.708 -21.487  0.00  0.00    -0.014 C 
ATOM     18  C   UNL     1      34.439 -19.343 -21.337  0.00  0.00    -0.001 C 
ATOM     19  C   UNL     1      36.837 -19.335 -21.050  0.00  0.00    -0.001 C 
ATOM     20  C   UNL     1      34.373 -20.607 -20.749  0.00  0.00    +0.036 C 
ATOM     21  C   UNL     1      36.772 -20.598 -20.462  0.00  0.00    +0.036 C 
ATOM     22  C   UNL     1      35.540 -21.234 -20.312  0.00  0.00    +0.134 C 
BRANCH  22  23
ATOM     23  O   UNL     1      35.475 -22.467 -19.739  0.00  0.00    -0.506 OA
ATOM     24  H   UNL     1      35.378 -23.229 -20.275  0.00  0.00    +0.292 HD
ENDBRANCH  22  23
ENDBRANCH  16  17
ENDBRANCH   5  16
TORSDOF 4
ENDMDL
MODEL 5
REMARK VINA RESULT:     -10.4      4.882      7.774
REMARK  Name = 24901696
REMARK  4 active torsions:
REMARK  status: ('A' for Active; 'I' for Inactive)
REMARK    1  A    between atoms: C_5  and  C_16
REMARK    2  A    between atoms: C_7  and  C_10
REMARK    3  A    between atoms: C_16  and  C_17
REMARK    4  A    between atoms: C_22  and  O_23
REMARK                            x       y       z     vdW  Elec       q    Type
REMARK                         _______ _______ _______ _____ _____    ______ ____
ROOT
ATOM      1  N   UNL     1      34.564 -22.756 -17.819  0.00  0.00    -0.195 N 
ATOM      2  N   UNL     1      35.547 -23.184 -16.989  0.00  0.00    -0.163 NA
ATOM      3  N   UNL     1      33.539 -21.870 -19.543  0.00  0.00    -0.131 NA
ATOM      4  N   UNL     1      32.581 -22.310 -18.652  0.00  0.00    -0.127 NA
ATOM      5  C   UNL     1      34.717 -22.146 -19.029  0.00  0.00    +0.168 A 
ATOM      6  C   UNL     1      33.205 -22.840 -17.621  0.00  0.00    +0.186 A 
ATOM      7  C   UNL     1      35.109 -23.726 -15.889  0.00  0.00    +0.101 C 
ATOM      8  C   UNL     1      32.759 -23.447 -16.430  0.00  0.00    +0.042 C 
ATOM      9  C   UNL     1      33.660 -23.901 -15.548  0.00  0.00    +0.024 C 
ENDROOT
BRANCH   7  10
ATOM     10  C   UNL     1      36.090 -24.230 -14.893  0.00  0.00    +0.019 C 
ATOM     11  C   UNL     1      36.493 -25.565 -14.924  0.00  0.00    +0.002 C 
ATOM     12  C   UNL     1      36.611 -23.367 -13.929  0.00  0.00    +0.002 C 
ATOM     13  C   UNL     1      37.415 -26.038 -13.990  0.00  0.00    +0.000 C 
ATOM     14  C   UNL     1      37.532 -23.839 -12.995  0.00  0.00    +0.000 C 
ATOM     15  C   UNL     1      37.935 -25.175 -13.025  0.00  0.00    +0.000 C 
ENDBRANCH   7  10
BRANCH   5  16
ATOM     16  C   UNL     1      36.035 -21.861 -19.626  0.00  0.00    +0.094 C 
BRANCH  16  17
ATOM     17  C   UNL     1      36.055 -20.675 -20.580  0.00  0.00    -0.014 C 
ATOM     18  C   UNL     1      34.945 -20.404 -21.380  0.00  0.00    -0.001 C 
ATOM     19  C   UNL     1      37.183 -19.859 -20.653  0.00  0.00    -0.001 C 
ATOM     20  C   UNL     1      34.965 -19.317 -22.255  0.00  0.00    +0.036 C 
ATOM     21  C   UNL     1      37.203 -18.772 -21.527  0.00  0.00    +0.036 C 
ATOM     22  C   UNL     1      36.094 -18.501 -22.328  0.00  0.00    +0.134 C 
BRANCH  22  23
ATOM     23  O   UNL     1      36.112 -17.441 -23.181  0.00  0.00    -0.506 OA
ATOM     24  H   UNL     1      36.434 -17.547 -24.054  0.00  0.00    +0.292 HD
ENDBRANCH  22  23
ENDBRANCH  16  17
ENDBRANCH   5  16
TORSDOF 4
ENDMDL
MODEL 6
REMARK VINA RESULT:     -10.3      6.062      9.912
REMARK  Name = 24901696
REMARK  4 active torsions:
REMARK  status: ('A' for Active; 'I' for Inactive)
REMARK    1  A    between atoms: C_5  and  C_16
REMARK    2  A    between atoms: C_7  and  C_10
REMARK    3  A    between atoms: C_16  and  C_17
REMARK    4  A    between atoms: C_22  and  O_23
REMARK                            x       y       z     vdW  Elec       q    Type
REMARK                         _______ _______ _______ _____ _____    ______ ____
ROOT
ATOM      1  N   UNL     1      35.241 -22.426 -18.043  0.00  0.00    -0.195 N 
ATOM      2  N   UNL     1      35.871 -21.588 -18.902  0.00  0.00    -0.163 NA
ATOM      3  N   UNL     1      34.863 -23.768 -16.351  0.00  0.00    -0.131 NA
ATOM      4  N   UNL     1      33.702 -23.671 -17.090  0.00  0.00    -0.127 NA
ATOM      5  C   UNL     1      35.771 -23.017 -16.933  0.00  0.00    +0.168 A 
ATOM      6  C   UNL     1      33.938 -22.864 -18.103  0.00  0.00    +0.186 A 
ATOM      7  C   UNL     1      35.121 -21.178 -19.884  0.00  0.00    +0.101 C 
ATOM      8  C   UNL     1      33.144 -22.391 -19.167  0.00  0.00    +0.042 C 
ATOM      9  C   UNL     1      33.682 -21.557 -20.067  0.00  0.00    +0.024 C 
ENDROOT
BRANCH   7  10
ATOM     10  C   UNL     1      35.699 -20.259 -20.898  0.00  0.00    +0.019 C 
ATOM     11  C   UNL     1      34.947 -19.884 -22.011  0.00  0.00    +0.002 C 
ATOM     12  C   UNL     1      36.996 -19.768 -20.735  0.00  0.00    +0.002 C 
ATOM     13  C   UNL     1      35.490 -19.021 -22.963  0.00  0.00    +0.000 C 
ATOM     14  C   UNL     1      37.538 -18.905 -21.687  0.00  0.00    +0.000 C 
ATOM     15  C   UNL     1      36.786 -18.530 -22.800  0.00  0.00    +0.000 C 
ENDBRANCH   7  10
BRANCH   5  16
ATOM     16  C   UNL     1      37.164 -22.810 -16.499  0.00  0.00    +0.094 C 
BRANCH  16  17
ATOM     17  C   UNL     1      37.496 -23.400 -15.135  0.00  0.00    -0.014 C 
ATOM     18  C   UNL     1      37.014 -22.792 -13.976  0.00  0.00    -0.001 C 
ATOM     19  C   UNL     1      38.284 -24.547 -15.045  0.00  0.00    -0.001 C 
ATOM     20  C   UNL     1      37.319 -23.332 -12.726  0.00  0.00    +0.036 C 
ATOM     21  C   UNL     1      38.590 -25.088 -13.796  0.00  0.00    +0.036 C 
ATOM     22  C   UNL     1      38.107 -24.480 -12.637  0.00  0.00    +0.134 C 
BRANCH  22  23
ATOM     23  O   UNL     1      38.405 -25.007 -11.417  0.00  0.00    -0.506 OA
ATOM     24  H   UNL     1      39.176 -25.526 -11.306  0.00  0.00    +0.292 HD
ENDBRANCH  22  23
ENDBRANCH  16  17
ENDBRANCH   5  16
TORSDOF 4
ENDMDL
MODEL 7
REMARK VINA RESULT:     -10.3      4.513      7.161
REMARK  Name = 24901696
REMARK  4 active torsions:
REMARK  status: ('A' for Active; 'I' for Inactive)
REMARK    1  A    between atoms: C_5  and  C_16
REMARK    2  A    between atoms: C_7  and  C_10
REMARK    3  A    between atoms: C_16  and  C_17
REMARK    4  A    between atoms: C_22  and  O_23
REMARK                            x       y       z     vdW  Elec       q    Type
REMARK                         _______ _______ _______ _____ _____    ______ ____
ROOT
ATOM      1  N   UNL     1      32.535 -11.542 -22.155  0.00  0.00    -0.195 N 
ATOM      2  N   UNL     1      33.102 -12.342 -23.092  0.00  0.00    -0.163 NA
ATOM      3  N   UNL     1      31.688  -9.778 -21.167  0.00  0.00    -0.131 NA
ATOM      4  N   UNL     1      31.650 -10.831 -20.275  0.00  0.00    -0.127 NA
ATOM      5  C   UNL     1      32.218 -10.221 -22.285  0.00  0.00    +0.168 A 
ATOM      6  C   UNL     1      32.160 -11.885 -20.877  0.00  0.00    +0.186 A 
ATOM      7  C   UNL     1      33.301 -13.564 -22.690  0.00  0.00    +0.101 C 
ATOM      8  C   UNL     1      32.371 -13.219 -20.475  0.00  0.00    +0.042 C 
ATOM      9  C   UNL     1      32.928 -14.083 -21.334  0.00  0.00    +0.024 C 
ENDROOT
BRANCH   7  10
ATOM     10  C   UNL     1      33.923 -14.538 -23.625  0.00  0.00    +0.019 C 
ATOM     11  C   UNL     1      34.904 -15.418 -23.166  0.00  0.00    +0.002 C 
ATOM     12  C   UNL     1      33.525 -14.573 -24.962  0.00  0.00    +0.002 C 
ATOM     13  C   UNL     1      35.487 -16.331 -24.044  0.00  0.00    +0.000 C 
ATOM     14  C   UNL     1      34.109 -15.486 -25.839  0.00  0.00    +0.000 C 
ATOM     15  C   UNL     1      35.090 -16.366 -25.380  0.00  0.00    +0.000 C 
ENDBRANCH   7  10
BRANCH   5  16
ATOM     16  C   UNL     1      32.457  -9.453 -23.520  0.00  0.00    +0.094 C 
BRANCH  16  17
ATOM     17  C   UNL     1      32.317  -7.945 -23.365  0.00  0.00    -0.014 C 
ATOM     18  C   UNL     1      33.365  -7.199 -22.825  0.00  0.00    -0.001 C 
ATOM     19  C   UNL     1      31.140  -7.310 -23.761  0.00  0.00    -0.001 C 
ATOM     20  C   UNL     1      33.236  -5.817 -22.682  0.00  0.00    +0.036 C 
ATOM     21  C   UNL     1      31.011  -5.929 -23.618  0.00  0.00    +0.036 C 
ATOM     22  C   UNL     1      32.058  -5.183 -23.079  0.00  0.00    +0.134 C 
BRANCH  22  23
ATOM     23  O   UNL     1      31.933  -3.835 -22.939  0.00  0.00    -0.506 OA
ATOM     24  H   UNL     1      32.697  -3.294 -22.903  0.00  0.00    +0.292 HD
ENDBRANCH  22  23
ENDBRANCH  16  17
ENDBRANCH   5  16
TORSDOF 4
ENDMDL
MODEL 8
REMARK VINA RESULT:     -10.2      7.635     11.503
REMARK  Name = 24901696
REMARK  4 active torsions:
REMARK  status: ('A' for Active; 'I' for Inactive)
REMARK    1  A    between atoms: C_5  and  C_16
REMARK    2  A    between atoms: C_7  and  C_10
REMARK    3  A    between atoms: C_16  and  C_17
REMARK    4  A    between atoms: C_22  and  O_23
REMARK                            x       y       z     vdW  Elec       q    Type
REMARK                         _______ _______ _______ _____ _____    ______ ____
ROOT
ATOM      1  N   UNL     1      34.491 -23.669 -14.749  0.00  0.00    -0.195 N 
ATOM      2  N   UNL     1      35.004 -23.043 -15.837  0.00  0.00    -0.163 NA
ATOM      3  N   UNL     1      34.297 -24.504 -12.732  0.00  0.00    -0.131 NA
ATOM      4  N   UNL     1      33.128 -24.763 -13.419  0.00  0.00    -0.127 NA
ATOM      5  C   UNL     1      35.098 -23.849 -13.541  0.00  0.00    +0.168 A 
ATOM      6  C   UNL     1      33.254 -24.258 -14.628  0.00  0.00    +0.186 A 
ATOM      7  C   UNL     1      34.201 -23.025 -16.862  0.00  0.00    +0.101 C 
ATOM      8  C   UNL     1      32.399 -24.209 -15.748  0.00  0.00    +0.042 C 
ATOM      9  C   UNL     1      32.821 -23.610 -16.869  0.00  0.00    +0.024 C 
ENDROOT
BRANCH   7  10
ATOM     10  C   UNL     1      34.652 -22.373 -18.120  0.00  0.00    +0.019 C 
ATOM     11  C   UNL     1      33.724 -22.047 -19.109  0.00  0.00    +0.002 C 
ATOM     12  C   UNL     1      36.004 -22.084 -18.309  0.00  0.00    +0.002 C 
ATOM     13  C   UNL     1      34.148 -21.435 -20.288  0.00  0.00    +0.000 C 
ATOM     14  C   UNL     1      36.427 -21.472 -19.488  0.00  0.00    +0.000 C 
ATOM     15  C   UNL     1      35.499 -21.146 -20.478  0.00  0.00    +0.000 C 
ENDBRANCH   7  10
BRANCH   5  16
ATOM     16  C   UNL     1      36.457 -23.360 -13.243  0.00  0.00    +0.094 C 
BRANCH  16  17
ATOM     17  C   UNL     1      37.577 -24.283 -13.703  0.00  0.00    -0.014 C 
ATOM     18  C   UNL     1      38.070 -25.264 -12.844  0.00  0.00    -0.001 C 
ATOM     19  C   UNL     1      38.111 -24.145 -14.984  0.00  0.00    -0.001 C 
ATOM     20  C   UNL     1      39.097 -26.109 -13.266  0.00  0.00    +0.036 C 
ATOM     21  C   UNL     1      39.137 -24.990 -15.407  0.00  0.00    +0.036 C 
ATOM     22  C   UNL     1      39.631 -25.971 -14.547  0.00  0.00    +0.134 C 
BRANCH  22  23
ATOM     23  O   UNL     1      40.633 -26.796 -14.959  0.00  0.00    -0.506 OA
ATOM     24  H   UNL     1      40.444 -27.515 -15.528  0.00  0.00    +0.292 HD
ENDBRANCH  22  23
ENDBRANCH  16  17
ENDBRANCH   5  16
TORSDOF 4
ENDMDL
MODEL 9
REMARK VINA RESULT:     -10.2      6.983     11.179
REMARK  Name = 24901696
REMARK  4 active torsions:
REMARK  status: ('A' for Active; 'I' for Inactive)
REMARK    1  A    between atoms: C_5  and  C_16
REMARK    2  A    between atoms: C_7  and  C_10
REMARK    3  A    between atoms: C_16  and  C_17
REMARK    4  A    between atoms: C_22  and  O_23
REMARK                            x       y       z     vdW  Elec       q    Type
REMARK                         _______ _______ _______ _____ _____    ______ ____
ROOT
ATOM      1  N   UNL     1      35.085 -23.377 -15.955  0.00  0.00    -0.195 N 
ATOM      2  N   UNL     1      35.454 -22.590 -16.996  0.00  0.00    -0.163 NA
ATOM      3  N   UNL     1      35.130 -24.450 -14.044  0.00  0.00    -0.131 NA
ATOM      4  N   UNL     1      33.928 -24.727 -14.664  0.00  0.00    -0.127 NA
ATOM      5  C   UNL     1      35.807 -23.642 -14.829  0.00  0.00    +0.168 A 
ATOM      6  C   UNL     1      33.910 -24.078 -15.810  0.00  0.00    +0.186 A 
ATOM      7  C   UNL     1      34.565 -22.524 -17.946  0.00  0.00    +0.101 C 
ATOM      8  C   UNL     1      32.960 -23.974 -16.846  0.00  0.00    +0.042 C 
ATOM      9  C   UNL     1      33.237 -23.218 -17.917  0.00  0.00    +0.024 C 
ENDROOT
BRANCH   7  10
ATOM     10  C   UNL     1      34.855 -21.697 -19.147  0.00  0.00    +0.019 C 
ATOM     11  C   UNL     1      36.174 -21.400 -19.489  0.00  0.00    +0.002 C 
ATOM     12  C   UNL     1      33.806 -21.218 -19.933  0.00  0.00    +0.002 C 
ATOM     13  C   UNL     1      36.446 -20.624 -20.615  0.00  0.00    +0.000 C 
ATOM     14  C   UNL     1      34.078 -20.442 -21.059  0.00  0.00    +0.000 C 
ATOM     15  C   UNL     1      35.398 -20.145 -21.401  0.00  0.00    +0.000 C 
ENDBRANCH   7  10
BRANCH   5  16
ATOM     16  C   UNL     1      37.146 -23.078 -14.580  0.00  0.00    +0.094 C 
BRANCH  16  17
ATOM     17  C   UNL     1      38.270 -24.106 -14.547  0.00  0.00    -0.014 C 
ATOM     18  C   UNL     1      38.439 -24.918 -13.426  0.00  0.00    -0.001 C 
ATOM     19  C   UNL     1      39.130 -24.233 -15.638  0.00  0.00    -0.001 C 
ATOM     20  C   UNL     1      39.470 -25.859 -13.396  0.00  0.00    +0.036 C 
ATOM     21  C   UNL     1      40.160 -25.173 -15.608  0.00  0.00    +0.036 C 
ATOM     22  C   UNL     1      40.329 -25.985 -14.487  0.00  0.00    +0.134 C 
BRANCH  22  23
ATOM     23  O   UNL     1      41.334 -26.903 -14.457  0.00  0.00    -0.506 OA
ATOM     24  H   UNL     1      41.244 -27.713 -14.920  0.00  0.00    +0.292 HD
ENDBRANCH  22  23
ENDBRANCH  16  17
ENDBRANCH   5  16
TORSDOF 4
ENDMDL
