MODEL 1
REMARK VINA RESULT:     -11.1      0.000      0.000
REMARK  Name = 5327110
REMARK  7 active torsions:
REMARK  status: ('A' for Active; 'I' for Inactive)
REMARK    1  A    between atoms: C_2  and  C_17
REMARK    2  A    between atoms: C_4  and  O_8
REMARK    3  A    between atoms: O_8  and  C_9
REMARK    4  A    between atoms: C_9  and  C_11
REMARK    5  A    between atoms: C_17  and  N_18
REMARK    6  A    between atoms: N_18  and  S_20
REMARK    7  A    between atoms: S_20  and  C_24
REMARK                            x       y       z     vdW  Elec       q    Type
REMARK                         _______ _______ _______ _____ _____    ______ ____
ROOT
ATOM      1  N   UNL     1      36.334 -19.644 -20.997  0.00  0.00    +0.388 N 
ATOM      2  C   UNL     1      34.949 -19.397 -21.395  0.00  0.00    -0.042 C 
ATOM      3  C   UNL     1      35.046 -19.413 -22.914  0.00  0.00    +0.007 C 
ATOM      4  C   UNL     1      36.364 -18.695 -23.183  0.00  0.00    +0.093 C 
ATOM      5  C   UNL     1      37.164 -18.831 -21.889  0.00  0.00    -0.051 C 
ATOM      6  H   UNL     1      36.563 -20.633 -21.103  0.00  0.00    -0.084 HD
ATOM      7  H   UNL     1      36.491 -19.401 -20.018  0.00  0.00    -0.084 HD
ENDROOT
BRANCH   4   8
ATOM      8  O   UNL     1      36.123 -17.316 -23.438  0.00  0.00    -0.354 OA
BRANCH   8   9
ATOM      9  C   UNL     1      35.022 -17.134 -24.316  0.00  0.00    +0.168 C 
BRANCH   9  11
ATOM     10 CL   UNL     1      33.652 -11.295 -24.545  0.00  0.00    -0.082 Cl
ATOM     11  C   UNL     1      34.678 -15.674 -24.374  0.00  0.00    +0.007 C 
ATOM     12  C   UNL     1      34.077 -15.153 -25.512  0.00  0.00    -0.001 C 
ATOM     13  C   UNL     1      34.967 -14.856 -23.286  0.00  0.00    -0.001 C 
ATOM     14  C   UNL     1      33.758 -13.796 -25.566  0.00  0.00    +0.011 C 
ATOM     15  C   UNL     1      34.649 -13.499 -23.340  0.00  0.00    +0.011 C 
ATOM     16  C   UNL     1      34.044 -12.969 -24.479  0.00  0.00    +0.058 C 
ENDBRANCH   9  11
ENDBRANCH   8   9
ENDBRANCH   4   8
BRANCH   2  17
ATOM     17  C   UNL     1      34.011 -20.458 -20.846  0.00  0.00    +0.070 C 
BRANCH  17  18
ATOM     18  N   UNL     1      34.800 -21.573 -20.288  0.00  0.00    -0.181 NA
ATOM     19  H   UNL     1      35.082 -22.157 -21.075  0.00  0.00    +0.149 HD
BRANCH  18  20
ATOM     20  S   UNL     1      34.108 -22.611 -19.130  0.00  0.00    +0.060 S 
ATOM     21  O   UNL     1      34.074 -23.962 -19.657  0.00  0.00    -0.153 OA
ATOM     22  O   UNL     1      32.900 -22.000 -18.610  0.00  0.00    -0.153 OA
BRANCH  20  24
ATOM     23  N   UNL     1      34.645 -24.176 -14.000  0.00  0.00    -0.242 NA
ATOM     24  C   UNL     1      35.310 -22.561 -17.835  0.00  0.00    +0.122 C 
ATOM     25  C   UNL     1      35.066 -23.104 -16.568  0.00  0.00    +0.022 C 
ATOM     26  C   UNL     1      36.520 -21.950 -18.139  0.00  0.00    +0.020 C 
ATOM     27  C   UNL     1      36.078 -23.023 -15.590  0.00  0.00    +0.020 C 
ATOM     28  C   UNL     1      37.518 -21.871 -17.170  0.00  0.00    +0.001 C 
ATOM     29  C   UNL     1      33.855 -23.725 -16.241  0.00  0.00    +0.022 C 
ATOM     30  C   UNL     1      37.300 -22.404 -15.899  0.00  0.00    +0.002 C 
ATOM     31  C   UNL     1      35.807 -23.573 -14.336  0.00  0.00    +0.099 C 
ATOM     32  C   UNL     1      33.699 -24.235 -14.961  0.00  0.00    +0.099 C 
ENDBRANCH  20  24
ENDBRANCH  18  20
ENDBRANCH  17  18
ENDBRANCH   2  17
TORSDOF 7
ENDMDL
MODEL 2
REMARK VINA RESULT:     -10.9      5.036     10.260
REMARK  Name = 5327110
REMARK  7 active torsions:
REMARK  status: ('A' for Active; 'I' for Inactive)
REMARK    1  A    between atoms: C_2  and  C_17
REMARK    2  A    between atoms: C_4  and  O_8
REMARK    3  A    between atoms: O_8  and  C_9
REMARK    4  A    between atoms: C_9  and  C_11
REMARK    5  A    between atoms: C_17  and  N_18
REMARK    6  A    between atoms: N_18  and  S_20
REMARK    7  A    between atoms: S_20  and  C_24
REMARK                            x       y       z     vdW  Elec       q    Type
REMARK                         _______ _______ _______ _____ _____    ______ ____
ROOT
ATOM      1  N   UNL     1      34.468 -17.640 -25.474  0.00  0.00    +0.388 N 
ATOM      2  C   UNL     1      34.945 -16.936 -24.284  0.00  0.00    -0.042 C 
ATOM      3  C   UNL     1      35.955 -17.921 -23.714  0.00  0.00    +0.007 C 
ATOM      4  C   UNL     1      35.287 -19.272 -23.942  0.00  0.00    +0.093 C 
ATOM      5  C   UNL     1      34.289 -19.038 -25.074  0.00  0.00    -0.051 C 
ATOM      6  H   UNL     1      35.155 -17.572 -26.226  0.00  0.00    -0.084 HD
ATOM      7  H   UNL     1      33.598 -17.237 -25.822  0.00  0.00    -0.084 HD
ENDROOT
BRANCH   4   8
ATOM      8  O   UNL     1      34.581 -19.669 -22.773  0.00  0.00    -0.354 OA
BRANCH   8   9
ATOM      9  C   UNL     1      35.386 -19.542 -21.611  0.00  0.00    +0.168 C 
BRANCH   9  11
ATOM     10 CL   UNL     1      33.665 -23.647 -17.584  0.00  0.00    -0.082 Cl
ATOM     11  C   UNL     1      34.957 -20.568 -20.603  0.00  0.00    +0.007 C 
ATOM     12  C   UNL     1      35.916 -21.286 -19.899  0.00  0.00    -0.001 C 
ATOM     13  C   UNL     1      33.601 -20.792 -20.385  0.00  0.00    -0.001 C 
ATOM     14  C   UNL     1      35.516 -22.240 -18.963  0.00  0.00    +0.011 C 
ATOM     15  C   UNL     1      33.201 -21.746 -19.449  0.00  0.00    +0.011 C 
ATOM     16  C   UNL     1      34.158 -22.470 -18.738  0.00  0.00    +0.058 C 
ENDBRANCH   9  11
ENDBRANCH   8   9
ENDBRANCH   4   8
BRANCH   2  17
ATOM     17  C   UNL     1      35.555 -15.591 -24.636  0.00  0.00    +0.070 C 
BRANCH  17  18
ATOM     18  N   UNL     1      35.112 -14.577 -23.659  0.00  0.00    -0.181 NA
ATOM     19  H   UNL     1      34.731 -15.085 -22.861  0.00  0.00    +0.149 HD
BRANCH  18  20
ATOM     20  S   UNL     1      33.950 -13.416 -24.103  0.00  0.00    +0.060 S 
ATOM     21  O   UNL     1      32.946 -14.040 -24.944  0.00  0.00    -0.153 OA
ATOM     22  O   UNL     1      34.630 -12.214 -24.548  0.00  0.00    -0.153 OA
BRANCH  20  24
ATOM     23  N   UNL     1      31.694  -9.228 -21.567  0.00  0.00    -0.242 NA
ATOM     24  C   UNL     1      33.201 -13.040 -22.547  0.00  0.00    +0.122 C 
ATOM     25  C   UNL     1      32.708 -11.766 -22.244  0.00  0.00    +0.022 C 
ATOM     26  C   UNL     1      33.125 -14.082 -21.630  0.00  0.00    +0.020 C 
ATOM     27  C   UNL     1      32.124 -11.548 -20.979  0.00  0.00    +0.020 C 
ATOM     28  C   UNL     1      32.549 -13.863 -20.382  0.00  0.00    +0.001 C 
ATOM     29  C   UNL     1      32.773 -10.703 -23.152  0.00  0.00    +0.022 C 
ATOM     30  C   UNL     1      32.049 -12.602 -20.055  0.00  0.00    +0.002 C 
ATOM     31  C   UNL     1      31.640 -10.268 -20.704  0.00  0.00    +0.099 C 
ATOM     32  C   UNL     1      32.260  -9.473 -22.769  0.00  0.00    +0.099 C 
ENDBRANCH  20  24
ENDBRANCH  18  20
ENDBRANCH  17  18
ENDBRANCH   2  17
TORSDOF 7
ENDMDL
MODEL 3
REMARK VINA RESULT:     -10.8      1.656      2.733
REMARK  Name = 5327110
REMARK  7 active torsions:
REMARK  status: ('A' for Active; 'I' for Inactive)
REMARK    1  A    between atoms: C_2  and  C_17
REMARK    2  A    between atoms: C_4  and  O_8
REMARK    3  A    between atoms: O_8  and  C_9
REMARK    4  A    between atoms: C_9  and  C_11
REMARK    5  A    between atoms: C_17  and  N_18
REMARK    6  A    between atoms: N_18  and  S_20
REMARK    7  A    between atoms: S_20  and  C_24
REMARK                            x       y       z     vdW  Elec       q    Type
REMARK                         _______ _______ _______ _____ _____    ______ ____
ROOT
ATOM      1  N   UNL     1      35.849 -20.610 -20.447  0.00  0.00    +0.388 N 
ATOM      2  C   UNL     1      34.504 -20.133 -20.768  0.00  0.00    -0.042 C 
ATOM      3  C   UNL     1      34.687 -19.589 -22.178  0.00  0.00    +0.007 C 
ATOM      4  C   UNL     1      36.056 -18.921 -22.116  0.00  0.00    +0.093 C 
ATOM      5  C   UNL     1      36.772 -19.588 -20.943  0.00  0.00    -0.051 C 
ATOM      6  H   UNL     1      36.028 -21.503 -20.909  0.00  0.00    -0.084 HD
ATOM      7  H   UNL     1      35.962 -20.761 -19.445  0.00  0.00    -0.084 HD
ENDROOT
BRANCH   4   8
ATOM      8  O   UNL     1      35.908 -17.533 -21.842  0.00  0.00    -0.354 OA
BRANCH   8   9
ATOM      9  C   UNL     1      35.749 -16.782 -23.037  0.00  0.00    +0.168 C 
BRANCH   9  11
ATOM     10 CL   UNL     1      32.302 -12.001 -21.904  0.00  0.00    -0.082 Cl
ATOM     11  C   UNL     1      34.888 -15.586 -22.753  0.00  0.00    +0.007 C 
ATOM     12  C   UNL     1      34.630 -15.221 -21.438  0.00  0.00    -0.001 C 
ATOM     13  C   UNL     1      34.355 -14.856 -23.810  0.00  0.00    -0.001 C 
ATOM     14  C   UNL     1      33.829 -14.109 -21.174  0.00  0.00    +0.011 C 
ATOM     15  C   UNL     1      33.554 -13.745 -23.547  0.00  0.00    +0.011 C 
ATOM     16  C   UNL     1      33.291 -13.371 -22.229  0.00  0.00    +0.058 C 
ENDBRANCH   9  11
ENDBRANCH   8   9
ENDBRANCH   4   8
BRANCH   2  17
ATOM     17  C   UNL     1      33.478 -21.250 -20.688  0.00  0.00    +0.070 C 
BRANCH  17  18
ATOM     18  N   UNL     1      33.251 -21.609 -19.274  0.00  0.00    -0.181 NA
ATOM     19  H   UNL     1      33.472 -20.782 -18.721  0.00  0.00    +0.149 HD
BRANCH  18  20
ATOM     20  S   UNL     1      34.102 -22.908 -18.578  0.00  0.00    +0.060 S 
ATOM     21  O   UNL     1      35.442 -22.474 -18.235  0.00  0.00    -0.153 OA
ATOM     22  O   UNL     1      33.904 -24.093 -19.392  0.00  0.00    -0.153 OA
BRANCH  20  24
ATOM     23  N   UNL     1      35.008 -24.539 -13.521  0.00  0.00    -0.242 NA
ATOM     24  C   UNL     1      33.209 -23.161 -17.073  0.00  0.00    +0.122 C 
ATOM     25  C   UNL     1      33.828 -23.620 -15.906  0.00  0.00    +0.022 C 
ATOM     26  C   UNL     1      31.848 -22.880 -17.108  0.00  0.00    +0.020 C 
ATOM     27  C   UNL     1      33.044 -23.796 -14.747  0.00  0.00    +0.020 C 
ATOM     28  C   UNL     1      31.077 -23.055 -15.962  0.00  0.00    +0.001 C 
ATOM     29  C   UNL     1      35.196 -23.909 -15.848  0.00  0.00    +0.022 C 
ATOM     30  C   UNL     1      31.670 -23.511 -14.785  0.00  0.00    +0.002 C 
ATOM     31  C   UNL     1      33.688 -24.254 -13.596  0.00  0.00    +0.099 C 
ATOM     32  C   UNL     1      35.727 -24.359 -14.649  0.00  0.00    +0.099 C 
ENDBRANCH  20  24
ENDBRANCH  18  20
ENDBRANCH  17  18
ENDBRANCH   2  17
TORSDOF 7
ENDMDL
MODEL 4
REMARK VINA RESULT:     -10.4      1.345      1.753
REMARK  Name = 5327110
REMARK  7 active torsions:
REMARK  status: ('A' for Active; 'I' for Inactive)
REMARK    1  A    between atoms: C_2  and  C_17
REMARK    2  A    between atoms: C_4  and  O_8
REMARK    3  A    between atoms: O_8  and  C_9
REMARK    4  A    between atoms: C_9  and  C_11
REMARK    5  A    between atoms: C_17  and  N_18
REMARK    6  A    between atoms: N_18  and  S_20
REMARK    7  A    between atoms: S_20  and  C_24
REMARK                            x       y       z     vdW  Elec       q    Type
REMARK                         _______ _______ _______ _____ _____    ______ ____
ROOT
ATOM      1  N   UNL     1      36.249 -19.140 -21.097  0.00  0.00    +0.388 N 
ATOM      2  C   UNL     1      34.998 -19.699 -21.608  0.00  0.00    -0.042 C 
ATOM      3  C   UNL     1      35.182 -19.570 -23.113  0.00  0.00    +0.007 C 
ATOM      4  C   UNL     1      35.871 -18.219 -23.263  0.00  0.00    +0.093 C 
ATOM      5  C   UNL     1      36.524 -17.952 -21.908  0.00  0.00    -0.051 C 
ATOM      6  H   UNL     1      37.006 -19.819 -21.195  0.00  0.00    -0.084 HD
ATOM      7  H   UNL     1      36.178 -18.908 -20.107  0.00  0.00    -0.084 HD
ENDROOT
BRANCH   4   8
ATOM      8  O   UNL     1      34.906 -17.206 -23.522  0.00  0.00    -0.354 OA
BRANCH   8   9
ATOM      9  C   UNL     1      35.485 -15.910 -23.465  0.00  0.00    +0.168 C 
BRANCH   9  11
ATOM     10 CL   UNL     1      31.690 -12.194 -20.670  0.00  0.00    -0.082 Cl
ATOM     11  C   UNL     1      34.537 -14.981 -22.765  0.00  0.00    +0.007 C 
ATOM     12  C   UNL     1      34.429 -15.021 -21.380  0.00  0.00    -0.001 C 
ATOM     13  C   UNL     1      33.774 -14.088 -23.511  0.00  0.00    -0.001 C 
ATOM     14  C   UNL     1      33.547 -14.158 -20.731  0.00  0.00    +0.011 C 
ATOM     15  C   UNL     1      32.892 -13.225 -22.861  0.00  0.00    +0.011 C 
ATOM     16  C   UNL     1      32.778 -13.259 -21.471  0.00  0.00    +0.058 C 
ENDBRANCH   9  11
ENDBRANCH   8   9
ENDBRANCH   4   8
BRANCH   2  17
ATOM     17  C   UNL     1      34.796 -21.133 -21.151  0.00  0.00    +0.070 C 
BRANCH  17  18
ATOM     18  N   UNL     1      34.036 -21.146 -19.886  0.00  0.00    -0.181 NA
ATOM     19  H   UNL     1      34.503 -20.495 -19.255  0.00  0.00    +0.149 HD
BRANCH  18  20
ATOM     20  S   UNL     1      33.835 -22.602 -19.028  0.00  0.00    +0.060 S 
ATOM     21  O   UNL     1      34.086 -23.721 -19.916  0.00  0.00    -0.153 OA
ATOM     22  O   UNL     1      32.601 -22.535 -18.268  0.00  0.00    -0.153 OA
BRANCH  20  24
ATOM     23  N   UNL     1      34.936 -24.149 -13.983  0.00  0.00    -0.242 NA
ATOM     24  C   UNL     1      35.163 -22.523 -17.864  0.00  0.00    +0.122 C 
ATOM     25  C   UNL     1      35.064 -23.069 -16.580  0.00  0.00    +0.022 C 
ATOM     26  C   UNL     1      36.320 -21.882 -18.290  0.00  0.00    +0.020 C 
ATOM     27  C   UNL     1      36.170 -22.964 -15.711  0.00  0.00    +0.020 C 
ATOM     28  C   UNL     1      37.410 -21.779 -17.430  0.00  0.00    +0.001 C 
ATOM     29  C   UNL     1      33.908 -23.719 -16.130  0.00  0.00    +0.022 C 
ATOM     30  C   UNL     1      37.338 -22.317 -16.144  0.00  0.00    +0.002 C 
ATOM     31  C   UNL     1      36.043 -23.519 -14.436  0.00  0.00    +0.099 C 
ATOM     32  C   UNL     1      33.898 -24.232 -14.842  0.00  0.00    +0.099 C 
ENDBRANCH  20  24
ENDBRANCH  18  20
ENDBRANCH  17  18
ENDBRANCH   2  17
TORSDOF 7
ENDMDL
MODEL 5
REMARK VINA RESULT:     -10.4      2.838      4.445
REMARK  Name = 5327110
REMARK  7 active torsions:
REMARK  status: ('A' for Active; 'I' for Inactive)
REMARK    1  A    between atoms: C_2  and  C_17
REMARK    2  A    between atoms: C_4  and  O_8
REMARK    3  A    between atoms: O_8  and  C_9
REMARK    4  A    between atoms: C_9  and  C_11
REMARK    5  A    between atoms: C_17  and  N_18
REMARK    6  A    between atoms: N_18  and  S_20
REMARK    7  A    between atoms: S_20  and  C_24
REMARK                            x       y       z     vdW  Elec       q    Type
REMARK                         _______ _______ _______ _____ _____    ______ ____
ROOT
ATOM      1  N   UNL     1      35.692 -22.433 -17.985  0.00  0.00    +0.388 N 
ATOM      2  C   UNL     1      34.289 -22.447 -18.397  0.00  0.00    -0.042 C 
ATOM      3  C   UNL     1      34.401 -22.656 -19.901  0.00  0.00    +0.007 C 
ATOM      4  C   UNL     1      35.603 -21.799 -20.280  0.00  0.00    +0.093 C 
ATOM      5  C   UNL     1      36.403 -21.640 -18.989  0.00  0.00    -0.051 C 
ATOM      6  H   UNL     1      36.062 -23.384 -17.957  0.00  0.00    -0.084 HD
ATOM      7  H   UNL     1      35.803 -22.039 -17.050  0.00  0.00    -0.084 HD
ENDROOT
BRANCH   4   8
ATOM      8  O   UNL     1      35.168 -20.517 -20.719  0.00  0.00    -0.354 OA
BRANCH   8   9
ATOM      9  C   UNL     1      36.250 -19.745 -21.220  0.00  0.00    +0.168 C 
BRANCH   9  11
ATOM     10 CL   UNL     1      34.304 -16.414 -25.818  0.00  0.00    -0.082 Cl
ATOM     11  C   UNL     1      35.765 -18.912 -22.370  0.00  0.00    +0.007 C 
ATOM     12  C   UNL     1      35.865 -17.527 -22.307  0.00  0.00    -0.001 C 
ATOM     13  C   UNL     1      35.217 -19.534 -23.487  0.00  0.00    -0.001 C 
ATOM     14  C   UNL     1      35.413 -16.753 -23.376  0.00  0.00    +0.011 C 
ATOM     15  C   UNL     1      34.764 -18.759 -24.555  0.00  0.00    +0.011 C 
ATOM     16  C   UNL     1      34.863 -17.369 -24.501  0.00  0.00    +0.058 C 
ENDBRANCH   9  11
ENDBRANCH   8   9
ENDBRANCH   4   8
BRANCH   2  17
ATOM     17  C   UNL     1      33.509 -23.546 -17.698  0.00  0.00    +0.070 C 
BRANCH  17  18
ATOM     18  N   UNL     1      34.423 -24.337 -16.851  0.00  0.00    -0.181 NA
ATOM     19  H   UNL     1      34.119 -25.308 -16.917  0.00  0.00    +0.149 HD
BRANCH  18  20
ATOM     20  S   UNL     1      34.572 -23.981 -15.194  0.00  0.00    +0.060 S 
ATOM     21  O   UNL     1      33.459 -24.571 -14.475  0.00  0.00    -0.153 OA
ATOM     22  O   UNL     1      34.875 -22.571 -15.039  0.00  0.00    -0.153 OA
BRANCH  20  24
ATOM     23  N   UNL     1      38.656 -23.670 -11.689  0.00  0.00    -0.242 NA
ATOM     24  C   UNL     1      36.034 -24.874 -14.761  0.00  0.00    +0.122 C 
ATOM     25  C   UNL     1      36.890 -24.454 -13.737  0.00  0.00    +0.022 C 
ATOM     26  C   UNL     1      36.295 -26.025 -15.496  0.00  0.00    +0.020 C 
ATOM     27  C   UNL     1      38.038 -25.224 -13.454  0.00  0.00    +0.020 C 
ATOM     28  C   UNL     1      37.429 -26.782 -15.215  0.00  0.00    +0.001 C 
ATOM     29  C   UNL     1      36.647 -23.300 -12.984  0.00  0.00    +0.022 C 
ATOM     30  C   UNL     1      38.299 -26.386 -14.198  0.00  0.00    +0.002 C 
ATOM     31  C   UNL     1      38.873 -24.782 -12.427  0.00  0.00    +0.099 C 
ATOM     32  C   UNL     1      37.548 -22.958 -11.988  0.00  0.00    +0.099 C 
ENDBRANCH  20  24
ENDBRANCH  18  20
ENDBRANCH  17  18
ENDBRANCH   2  17
TORSDOF 7
ENDMDL
MODEL 6
REMARK VINA RESULT:     -10.3      1.737      2.686
REMARK  Name = 5327110
REMARK  7 active torsions:
REMARK  status: ('A' for Active; 'I' for Inactive)
REMARK    1  A    between atoms: C_2  and  C_17
REMARK    2  A    between atoms: C_4  and  O_8
REMARK    3  A    between atoms: O_8  and  C_9
REMARK    4  A    between atoms: C_9  and  C_11
REMARK    5  A    between atoms: C_17  and  N_18
REMARK    6  A    between atoms: N_18  and  S_20
REMARK    7  A    between atoms: S_20  and  C_24
REMARK                            x       y       z     vdW  Elec       q    Type
REMARK                         _______ _______ _______ _____ _____    ______ ____
ROOT
ATOM      1  N   UNL     1      35.517 -20.849 -20.367  0.00  0.00    +0.388 N 
ATOM      2  C   UNL     1      34.125 -20.450 -20.576  0.00  0.00    -0.042 C 
ATOM      3  C   UNL     1      34.155 -19.925 -22.004  0.00  0.00    +0.007 C 
ATOM      4  C   UNL     1      35.484 -19.184 -22.072  0.00  0.00    +0.093 C 
ATOM      5  C   UNL     1      36.336 -19.787 -20.957  0.00  0.00    -0.051 C 
ATOM      6  H   UNL     1      35.704 -21.739 -20.830  0.00  0.00    -0.084 HD
ATOM      7  H   UNL     1      35.726 -20.973 -19.377  0.00  0.00    -0.084 HD
ENDROOT
BRANCH   4   8
ATOM      8  O   UNL     1      35.284 -17.800 -21.808  0.00  0.00    -0.354 OA
BRANCH   8   9
ATOM      9  C   UNL     1      36.163 -16.992 -22.577  0.00  0.00    +0.168 C 
BRANCH   9  11
ATOM     10 CL   UNL     1      32.998 -14.099 -26.777  0.00  0.00    -0.082 Cl
ATOM     11  C   UNL     1      35.371 -16.270 -23.627  0.00  0.00    +0.007 C 
ATOM     12  C   UNL     1      35.138 -16.879 -24.854  0.00  0.00    -0.001 C 
ATOM     13  C   UNL     1      34.879 -14.996 -23.362  0.00  0.00    -0.001 C 
ATOM     14  C   UNL     1      34.403 -16.207 -25.830  0.00  0.00    +0.011 C 
ATOM     15  C   UNL     1      34.144 -14.324 -24.338  0.00  0.00    +0.011 C 
ATOM     16  C   UNL     1      33.905 -14.929 -25.573  0.00  0.00    +0.058 C 
ENDBRANCH   9  11
ENDBRANCH   8   9
ENDBRANCH   4   8
BRANCH   2  17
ATOM     17  C   UNL     1      33.174 -21.619 -20.388  0.00  0.00    +0.070 C 
BRANCH  17  18
ATOM     18  N   UNL     1      33.042 -21.922 -18.950  0.00  0.00    -0.181 NA
ATOM     19  H   UNL     1      33.232 -21.055 -18.448  0.00  0.00    +0.149 HD
BRANCH  18  20
ATOM     20  S   UNL     1      34.015 -23.124 -18.239  0.00  0.00    +0.060 S 
ATOM     21  O   UNL     1      35.350 -22.598 -18.030  0.00  0.00    -0.153 OA
ATOM     22  O   UNL     1      33.826 -24.370 -18.957  0.00  0.00    -0.153 OA
BRANCH  20  24
ATOM     23  N   UNL     1      35.317 -24.683 -13.246  0.00  0.00    -0.242 NA
ATOM     24  C   UNL     1      33.252 -23.319 -16.657  0.00  0.00    +0.122 C 
ATOM     25  C   UNL     1      33.958 -23.774 -15.538  0.00  0.00    +0.022 C 
ATOM     26  C   UNL     1      31.902 -22.996 -16.578  0.00  0.00    +0.020 C 
ATOM     27  C   UNL     1      33.275 -23.902 -14.311  0.00  0.00    +0.020 C 
ATOM     28  C   UNL     1      31.231 -23.124 -15.365  0.00  0.00    +0.001 C 
ATOM     29  C   UNL     1      35.317 -24.105 -15.595  0.00  0.00    +0.022 C 
ATOM     30  C   UNL     1      31.912 -23.575 -14.234  0.00  0.00    +0.002 C 
ATOM     31  C   UNL     1      34.005 -24.358 -13.212  0.00  0.00    +0.099 C 
ATOM     32  C   UNL     1      35.939 -24.548 -14.437  0.00  0.00    +0.099 C 
ENDBRANCH  20  24
ENDBRANCH  18  20
ENDBRANCH  17  18
ENDBRANCH   2  17
TORSDOF 7
ENDMDL
MODEL 7
REMARK VINA RESULT:     -10.2      1.805      2.584
REMARK  Name = 5327110
REMARK  7 active torsions:
REMARK  status: ('A' for Active; 'I' for Inactive)
REMARK    1  A    between atoms: C_2  and  C_17
REMARK    2  A    between atoms: C_4  and  O_8
REMARK    3  A    between atoms: O_8  and  C_9
REMARK    4  A    between atoms: C_9  and  C_11
REMARK    5  A    between atoms: C_17  and  N_18
REMARK    6  A    between atoms: N_18  and  S_20
REMARK    7  A    between atoms: S_20  and  C_24
REMARK                            x       y       z     vdW  Elec       q    Type
REMARK                         _______ _______ _______ _____ _____    ______ ____
ROOT
ATOM      1  N   UNL     1      37.426 -19.856 -21.016  0.00  0.00    +0.388 N 
ATOM      2  C   UNL     1      36.102 -20.315 -20.597  0.00  0.00    -0.042 C 
ATOM      3  C   UNL     1      35.289 -20.155 -21.874  0.00  0.00    +0.007 C 
ATOM      4  C   UNL     1      35.816 -18.848 -22.456  0.00  0.00    +0.093 C 
ATOM      5  C   UNL     1      37.200 -18.665 -21.838  0.00  0.00    -0.051 C 
ATOM      6  H   UNL     1      37.896 -20.579 -21.562  0.00  0.00    -0.084 HD
ATOM      7  H   UNL     1      38.020 -19.648 -20.214  0.00  0.00    -0.084 HD
ENDROOT
BRANCH   4   8
ATOM      8  O   UNL     1      34.982 -17.767 -22.058  0.00  0.00    -0.354 OA
BRANCH   8   9
ATOM      9  C   UNL     1      35.613 -16.514 -22.279  0.00  0.00    +0.168 C 
BRANCH   9  11
ATOM     10 CL   UNL     1      33.083 -13.862 -27.032  0.00  0.00    -0.082 Cl
ATOM     11  C   UNL     1      34.981 -15.850 -23.467  0.00  0.00    +0.007 C 
ATOM     12  C   UNL     1      34.413 -14.590 -23.330  0.00  0.00    -0.001 C 
ATOM     13  C   UNL     1      34.969 -16.504 -24.695  0.00  0.00    -0.001 C 
ATOM     14  C   UNL     1      33.825 -13.973 -24.434  0.00  0.00    +0.011 C 
ATOM     15  C   UNL     1      34.381 -15.888 -25.799  0.00  0.00    +0.011 C 
ATOM     16  C   UNL     1      33.809 -14.622 -25.670  0.00  0.00    +0.058 C 
ENDBRANCH   9  11
ENDBRANCH   8   9
ENDBRANCH   4   8
BRANCH   2  17
ATOM     17  C   UNL     1      36.140 -21.746 -20.090  0.00  0.00    +0.070 C 
BRANCH  17  18
ATOM     18  N   UNL     1      35.377 -21.844 -18.830  0.00  0.00    -0.181 NA
ATOM     19  H   UNL     1      35.981 -22.312 -18.155  0.00  0.00    +0.149 HD
BRANCH  18  20
ATOM     20  S   UNL     1      33.883 -22.659 -18.801  0.00  0.00    +0.060 S 
ATOM     21  O   UNL     1      33.977 -23.862 -19.605  0.00  0.00    -0.153 OA
ATOM     22  O   UNL     1      32.819 -21.702 -19.040  0.00  0.00    -0.153 OA
BRANCH  20  24
ATOM     23  N   UNL     1      30.119 -23.416 -15.017  0.00  0.00    -0.242 NA
ATOM     24  C   UNL     1      33.769 -23.145 -17.105  0.00  0.00    +0.122 C 
ATOM     25  C   UNL     1      32.546 -23.227 -16.432  0.00  0.00    +0.022 C 
ATOM     26  C   UNL     1      34.967 -23.443 -16.467  0.00  0.00    +0.020 C 
ATOM     27  C   UNL     1      32.541 -23.623 -15.079  0.00  0.00    +0.020 C 
ATOM     28  C   UNL     1      34.960 -23.834 -15.130  0.00  0.00    +0.001 C 
ATOM     29  C   UNL     1      31.327 -22.932 -17.055  0.00  0.00    +0.022 C 
ATOM     30  C   UNL     1      33.753 -23.924 -14.436  0.00  0.00    +0.002 C 
ATOM     31  C   UNL     1      31.306 -23.697 -14.433  0.00  0.00    +0.099 C 
ATOM     32  C   UNL     1      30.162 -23.040 -16.313  0.00  0.00    +0.099 C 
ENDBRANCH  20  24
ENDBRANCH  18  20
ENDBRANCH  17  18
ENDBRANCH   2  17
TORSDOF 7
ENDMDL
MODEL 8
REMARK VINA RESULT:     -10.2      4.272     10.628
REMARK  Name = 5327110
REMARK  7 active torsions:
REMARK  status: ('A' for Active; 'I' for Inactive)
REMARK    1  A    between atoms: C_2  and  C_17
REMARK    2  A    between atoms: C_4  and  O_8
REMARK    3  A    between atoms: O_8  and  C_9
REMARK    4  A    between atoms: C_9  and  C_11
REMARK    5  A    between atoms: C_17  and  N_18
REMARK    6  A    between atoms: N_18  and  S_20
REMARK    7  A    between atoms: S_20  and  C_24
REMARK                            x       y       z     vdW  Elec       q    Type
REMARK                         _______ _______ _______ _____ _____    ______ ____
ROOT
ATOM      1  N   UNL     1      33.081 -21.756 -19.810  0.00  0.00    +0.388 N 
ATOM      2  C   UNL     1      34.272 -20.919 -19.954  0.00  0.00    -0.042 C 
ATOM      3  C   UNL     1      35.396 -21.929 -19.763  0.00  0.00    +0.007 C 
ATOM      4  C   UNL     1      34.867 -22.827 -18.651  0.00  0.00    +0.093 C 
ATOM      5  C   UNL     1      33.350 -22.654 -18.685  0.00  0.00    -0.051 C 
ATOM      6  H   UNL     1      32.920 -22.293 -20.663  0.00  0.00    -0.084 HD
ATOM      7  H   UNL     1      32.247 -21.192 -19.646  0.00  0.00    -0.084 HD
ENDROOT
BRANCH   4   8
ATOM      8  O   UNL     1      35.358 -22.382 -17.392  0.00  0.00    -0.354 OA
BRANCH   8   9
ATOM      9  C   UNL     1      34.866 -23.187 -16.329  0.00  0.00    +0.168 C 
BRANCH   9  11
ATOM     10 CL   UNL     1      39.473 -26.032 -13.740  0.00  0.00    -0.082 Cl
ATOM     11  C   UNL     1      36.018 -23.899 -15.682  0.00  0.00    +0.007 C 
ATOM     12  C   UNL     1      35.788 -25.061 -14.955  0.00  0.00    -0.001 C 
ATOM     13  C   UNL     1      37.305 -23.388 -15.816  0.00  0.00    -0.001 C 
ATOM     14  C   UNL     1      36.859 -25.723 -14.354  0.00  0.00    +0.011 C 
ATOM     15  C   UNL     1      38.375 -24.050 -15.214  0.00  0.00    +0.011 C 
ATOM     16  C   UNL     1      38.153 -25.217 -14.483  0.00  0.00    +0.058 C 
ENDBRANCH   9  11
ENDBRANCH   8   9
ENDBRANCH   4   8
BRANCH   2  17
ATOM     17  C   UNL     1      34.312 -20.230 -21.307  0.00  0.00    +0.070 C 
BRANCH  17  18
ATOM     18  N   UNL     1      35.428 -19.264 -21.336  0.00  0.00    -0.181 NA
ATOM     19  H   UNL     1      35.173 -18.502 -20.709  0.00  0.00    +0.149 HD
BRANCH  18  20
ATOM     20  S   UNL     1      35.901 -18.553 -22.808  0.00  0.00    +0.060 S 
ATOM     21  O   UNL     1      35.188 -19.189 -23.899  0.00  0.00    -0.153 OA
ATOM     22  O   UNL     1      37.348 -18.455 -22.841  0.00  0.00    -0.153 OA
BRANCH  20  24
ATOM     23  N   UNL     1      33.961 -14.576 -25.887  0.00  0.00    -0.242 NA
ATOM     24  C   UNL     1      35.276 -16.909 -22.633  0.00  0.00    +0.122 C 
ATOM     25  C   UNL     1      34.846 -16.153 -23.728  0.00  0.00    +0.022 C 
ATOM     26  C   UNL     1      35.235 -16.398 -21.341  0.00  0.00    +0.020 C 
ATOM     27  C   UNL     1      34.360 -14.848 -23.503  0.00  0.00    +0.020 C 
ATOM     28  C   UNL     1      34.755 -15.109 -21.122  0.00  0.00    +0.001 C 
ATOM     29  C   UNL     1      34.878 -16.647 -25.038  0.00  0.00    +0.022 C 
ATOM     30  C   UNL     1      34.319 -14.335 -22.197  0.00  0.00    +0.002 C 
ATOM     31  C   UNL     1      33.937 -14.117 -24.615  0.00  0.00    +0.099 C 
ATOM     32  C   UNL     1      34.431 -15.829 -26.064  0.00  0.00    +0.099 C 
ENDBRANCH  20  24
ENDBRANCH  18  20
ENDBRANCH  17  18
ENDBRANCH   2  17
TORSDOF 7
ENDMDL
MODEL 9
REMARK VINA RESULT:     -10.2      7.390     13.596
REMARK  Name = 5327110
REMARK  7 active torsions:
REMARK  status: ('A' for Active; 'I' for Inactive)
REMARK    1  A    between atoms: C_2  and  C_17
REMARK    2  A    between atoms: C_4  and  O_8
REMARK    3  A    between atoms: O_8  and  C_9
REMARK    4  A    between atoms: C_9  and  C_11
REMARK    5  A    between atoms: C_17  and  N_18
REMARK    6  A    between atoms: N_18  and  S_20
REMARK    7  A    between atoms: S_20  and  C_24
REMARK                            x       y       z     vdW  Elec       q    Type
REMARK                         _______ _______ _______ _____ _____    ______ ____
ROOT
ATOM      1  N   UNL     1      33.021 -12.346 -22.888  0.00  0.00    +0.388 N 
ATOM      2  C   UNL     1      33.987 -11.834 -23.860  0.00  0.00    -0.042 C 
ATOM      3  C   UNL     1      33.956 -12.910 -24.937  0.00  0.00    +0.007 C 
ATOM      4  C   UNL     1      33.852 -14.200 -24.133  0.00  0.00    +0.093 C 
ATOM      5  C   UNL     1      33.275 -13.784 -22.782  0.00  0.00    -0.051 C 
ATOM      6  H   UNL     1      32.068 -12.177 -23.213  0.00  0.00    -0.084 HD
ATOM      7  H   UNL     1      33.119 -11.881 -21.985  0.00  0.00    -0.084 HD
ENDROOT
BRANCH   4   8
ATOM      8  O   UNL     1      35.147 -14.755 -23.935  0.00  0.00    -0.354 OA
BRANCH   8   9
ATOM      9  C   UNL     1      35.317 -15.956 -24.675  0.00  0.00    +0.168 C 
BRANCH   9  11
ATOM     10 CL   UNL     1      35.337 -20.610 -20.884  0.00  0.00    -0.082 Cl
ATOM     11  C   UNL     1      35.321 -17.119 -23.726  0.00  0.00    +0.007 C 
ATOM     12  C   UNL     1      35.645 -16.917 -22.390  0.00  0.00    -0.001 C 
ATOM     13  C   UNL     1      35.002 -18.390 -24.194  0.00  0.00    -0.001 C 
ATOM     14  C   UNL     1      35.649 -17.998 -21.509  0.00  0.00    +0.011 C 
ATOM     15  C   UNL     1      35.007 -19.471 -23.313  0.00  0.00    +0.011 C 
ATOM     16  C   UNL     1      35.330 -19.276 -21.971  0.00  0.00    +0.058 C 
ENDBRANCH   9  11
ENDBRANCH   8   9
ENDBRANCH   4   8
BRANCH   2  17
ATOM     17  C   UNL     1      33.591 -10.461 -24.375  0.00  0.00    +0.070 C 
BRANCH  17  18
ATOM     18  N   UNL     1      34.061  -9.427 -23.434  0.00  0.00    -0.181 NA
ATOM     19  H   UNL     1      34.593  -9.908 -22.709  0.00  0.00    +0.149 HD
BRANCH  18  20
ATOM     20  S   UNL     1      32.938  -8.427 -22.637  0.00  0.00    +0.060 S 
ATOM     21  O   UNL     1      33.387  -8.189 -21.278  0.00  0.00    -0.153 OA
ATOM     22  O   UNL     1      31.600  -8.927 -22.886  0.00  0.00    -0.153 OA
BRANCH  20  24
ATOM     23  N   UNL     1      30.598  -3.579 -22.918  0.00  0.00    -0.242 NA
ATOM     24  C   UNL     1      33.099  -6.913 -23.536  0.00  0.00    +0.122 C 
ATOM     25  C   UNL     1      32.256  -5.819 -23.314  0.00  0.00    +0.022 C 
ATOM     26  C   UNL     1      34.114  -6.864 -24.485  0.00  0.00    +0.020 C 
ATOM     27  C   UNL     1      32.451  -4.647 -24.074  0.00  0.00    +0.020 C 
ATOM     28  C   UNL     1      34.303  -5.705 -25.234  0.00  0.00    +0.001 C 
ATOM     29  C   UNL     1      31.229  -5.847 -22.363  0.00  0.00    +0.022 C 
ATOM     30  C   UNL     1      33.477  -4.600 -25.032  0.00  0.00    +0.002 C 
ATOM     31  C   UNL     1      31.596  -3.571 -23.830  0.00  0.00    +0.099 C 
ATOM     32  C   UNL     1      30.441  -4.717 -22.208  0.00  0.00    +0.099 C 
ENDBRANCH  20  24
ENDBRANCH  18  20
ENDBRANCH  17  18
ENDBRANCH   2  17
TORSDOF 7
ENDMDL
