MODEL 1
REMARK VINA RESULT:     -11.3      0.000      0.000
REMARK  Name = 25113614
REMARK  7 active torsions:
REMARK  status: ('A' for Active; 'I' for Inactive)
REMARK    1  A    between atoms: C_3  and  C_10
REMARK    2  A    between atoms: C_7  and  C_25
REMARK    3  A    between atoms: N_9  and  C_12
REMARK    4  A    between atoms: C_12  and  C_13
REMARK    5  A    between atoms: C_18  and  C_21
REMARK    6  A    between atoms: C_25  and  N_26
REMARK    7  A    between atoms: N_26  and  C_29
REMARK                            x       y       z     vdW  Elec       q    Type
REMARK                         _______ _______ _______ _____ _____    ______ ____
ROOT
ATOM      1  O   UNL     1      35.513 -25.439 -11.978  0.00  0.00    -0.277 OA
ATOM      2  N   UNL     1      36.312 -24.301 -13.824  0.00  0.00    -0.275 N 
ATOM      3  C   UNL     1      36.236 -23.268 -14.853  0.00  0.00    +0.152 C 
ATOM      4  C   UNL     1      37.690 -22.990 -15.223  0.00  0.00    +0.031 C 
ATOM      5  C   UNL     1      37.653 -24.863 -13.743  0.00  0.00    +0.094 C 
ATOM      6  C   UNL     1      38.382 -24.326 -14.964  0.00  0.00    +0.024 C 
ATOM      7  C   UNL     1      35.332 -24.649 -12.907  0.00  0.00    +0.204 C 
ENDROOT
BRANCH   3  10
ATOM      8  O   UNL     1      35.369 -25.044 -16.192  0.00  0.00    -0.273 OA
ATOM      9  N   UNL     1      35.002 -22.845 -16.862  0.00  0.00    -0.299 N 
ATOM     10  C   UNL     1      35.491 -23.833 -16.025  0.00  0.00    +0.241 C 
ATOM     11  H   UNL     1      35.164 -21.904 -16.620  0.00  0.00    +0.150 HD
BRANCH   9  12
ATOM     12  C   UNL     1      34.267 -23.127 -18.073  0.00  0.00    +0.116 C 
BRANCH  12  13
ATOM     13  C   UNL     1      34.499 -22.083 -19.127  0.00  0.00    -0.003 C 
ATOM     14  C   UNL     1      35.801 -21.739 -19.493  0.00  0.00    -0.003 C 
ATOM     15  C   UNL     1      33.414 -21.456 -19.740  0.00  0.00    -0.003 C 
ATOM     16  C   UNL     1      36.017 -20.768 -20.470  0.00  0.00    +0.002 C 
ATOM     17  C   UNL     1      33.630 -20.486 -20.717  0.00  0.00    +0.002 C 
ATOM     18  C   UNL     1      34.931 -20.141 -21.084  0.00  0.00    +0.031 C 
BRANCH  18  21
ATOM     19  N   UNL     1      34.814 -19.352 -23.435  0.00  0.00    -0.343 N 
ATOM     20  N   UNL     1      35.705 -17.973 -21.772  0.00  0.00    -0.285 NA
ATOM     21  C   UNL     1      35.158 -19.130 -22.103  0.00  0.00    +0.117 C 
ATOM     22  H   UNL     1      34.976 -18.653 -24.109  0.00  0.00    +0.144 HD
ATOM     23  H   UNL     1      34.409 -20.208 -23.702  0.00  0.00    +0.144 HD
ATOM     24  H   UNL     1      35.858 -17.287 -22.460  0.00  0.00    +0.188 HD
ENDBRANCH  18  21
ENDBRANCH  12  13
ENDBRANCH   9  12
ENDBRANCH   3  10
BRANCH   7  25
ATOM     25  C   UNL     1      33.986 -23.997 -13.096  0.00  0.00    +0.006 C 
BRANCH  25  26
ATOM     26  N   UNL     1      33.026 -25.063 -13.328  0.00  0.00    +0.391 N 
ATOM     27  H   UNL     1      33.527 -25.934 -13.500  0.00  0.00    -0.084 HD
ATOM     28  H   UNL     1      32.432 -25.156 -12.504  0.00  0.00    -0.084 HD
BRANCH  26  29
ATOM     29  C   UNL     1      32.183 -24.752 -14.488  0.00  0.00    -0.061 C 
ATOM     30  C   UNL     1      32.143 -23.229 -14.649  0.00  0.00    -0.021 C 
ATOM     31  C   UNL     1      30.811 -25.413 -14.290  0.00  0.00    -0.021 C 
ATOM     32  C   UNL     1      31.248 -22.713 -15.777  0.00  0.00    -0.002 C 
ATOM     33  C   UNL     1      29.964 -25.412 -15.562  0.00  0.00    -0.002 C 
ATOM     34  C   UNL     1      29.764 -22.821 -15.444  0.00  0.00    -0.000 C 
ATOM     35  C   UNL     1      29.121 -24.161 -15.783  0.00  0.00    -0.000 C 
ENDBRANCH  26  29
ENDBRANCH  25  26
ENDBRANCH   7  25
TORSDOF 7
ENDMDL
MODEL 2
REMARK VINA RESULT:     -11.1      0.392      1.324
REMARK  Name = 25113614
REMARK  7 active torsions:
REMARK  status: ('A' for Active; 'I' for Inactive)
REMARK    1  A    between atoms: C_3  and  C_10
REMARK    2  A    between atoms: C_7  and  C_25
REMARK    3  A    between atoms: N_9  and  C_12
REMARK    4  A    between atoms: C_12  and  C_13
REMARK    5  A    between atoms: C_18  and  C_21
REMARK    6  A    between atoms: C_25  and  N_26
REMARK    7  A    between atoms: N_26  and  C_29
REMARK                            x       y       z     vdW  Elec       q    Type
REMARK                         _______ _______ _______ _____ _____    ______ ____
ROOT
ATOM      1  O   UNL     1      35.315 -25.407 -11.914  0.00  0.00    -0.277 OA
ATOM      2  N   UNL     1      36.150 -24.269 -13.743  0.00  0.00    -0.275 N 
ATOM      3  C   UNL     1      36.088 -23.243 -14.781  0.00  0.00    +0.152 C 
ATOM      4  C   UNL     1      37.548 -22.945 -15.110  0.00  0.00    +0.031 C 
ATOM      5  C   UNL     1      37.497 -24.810 -13.621  0.00  0.00    +0.094 C 
ATOM      6  C   UNL     1      38.253 -24.269 -14.823  0.00  0.00    +0.024 C 
ATOM      7  C   UNL     1      35.150 -24.626 -12.852  0.00  0.00    +0.204 C 
ENDROOT
BRANCH   3  10
ATOM      8  O   UNL     1      35.266 -25.039 -16.121  0.00  0.00    -0.273 OA
ATOM      9  N   UNL     1      34.932 -22.851 -16.841  0.00  0.00    -0.299 N 
ATOM     10  C   UNL     1      35.386 -23.826 -15.970  0.00  0.00    +0.241 C 
ATOM     11  H   UNL     1      35.088 -21.907 -16.609  0.00  0.00    +0.150 HD
BRANCH   9  12
ATOM     12  C   UNL     1      34.241 -23.152 -18.074  0.00  0.00    +0.116 C 
BRANCH  12  13
ATOM     13  C   UNL     1      34.483 -22.106 -19.123  0.00  0.00    -0.003 C 
ATOM     14  C   UNL     1      35.788 -21.727 -19.442  0.00  0.00    -0.003 C 
ATOM     15  C   UNL     1      33.405 -21.510 -19.777  0.00  0.00    -0.003 C 
ATOM     16  C   UNL     1      36.012 -20.753 -20.415  0.00  0.00    +0.002 C 
ATOM     17  C   UNL     1      33.629 -20.537 -20.750  0.00  0.00    +0.002 C 
ATOM     18  C   UNL     1      34.933 -20.159 -21.070  0.00  0.00    +0.031 C 
BRANCH  18  21
ATOM     19  N   UNL     1      35.684 -17.893 -21.754  0.00  0.00    -0.343 N 
ATOM     20  N   UNL     1      34.887 -19.402 -23.350  0.00  0.00    -0.285 NA
ATOM     21  C   UNL     1      35.169 -19.144 -22.085  0.00  0.00    +0.117 C 
ATOM     22  H   UNL     1      35.836 -17.221 -22.457  0.00  0.00    +0.144 HD
ATOM     23  H   UNL     1      35.896 -17.680 -20.817  0.00  0.00    +0.144 HD
ATOM     24  H   UNL     1      35.047 -18.718 -24.039  0.00  0.00    +0.188 HD
ENDBRANCH  18  21
ENDBRANCH  12  13
ENDBRANCH   9  12
ENDBRANCH   3  10
BRANCH   7  25
ATOM     25  C   UNL     1      33.800 -23.995 -13.084  0.00  0.00    +0.006 C 
BRANCH  25  26
ATOM     26  N   UNL     1      33.014 -24.944 -13.854  0.00  0.00    +0.391 N 
ATOM     27  H   UNL     1      33.485 -25.128 -14.740  0.00  0.00    -0.084 HD
ATOM     28  H   UNL     1      32.921 -25.807 -13.319  0.00  0.00    -0.084 HD
BRANCH  26  29
ATOM     29  C   UNL     1      31.675 -24.405 -14.122  0.00  0.00    -0.061 C 
ATOM     30  C   UNL     1      30.776 -25.568 -14.555  0.00  0.00    -0.021 C 
ATOM     31  C   UNL     1      31.798 -23.271 -15.150  0.00  0.00    -0.021 C 
ATOM     32  C   UNL     1      29.349 -25.180 -14.944  0.00  0.00    -0.002 C 
ATOM     33  C   UNL     1      30.521 -22.442 -15.274  0.00  0.00    -0.002 C 
ATOM     34  C   UNL     1      29.278 -24.485 -16.299  0.00  0.00    -0.000 C 
ATOM     35  C   UNL     1      29.491 -22.976 -16.263  0.00  0.00    -0.000 C 
ENDBRANCH  26  29
ENDBRANCH  25  26
ENDBRANCH   7  25
TORSDOF 7
ENDMDL
MODEL 3
REMARK VINA RESULT:     -11.1      2.357      6.311
REMARK  Name = 25113614
REMARK  7 active torsions:
REMARK  status: ('A' for Active; 'I' for Inactive)
REMARK    1  A    between atoms: C_3  and  C_10
REMARK    2  A    between atoms: C_7  and  C_25
REMARK    3  A    between atoms: N_9  and  C_12
REMARK    4  A    between atoms: C_12  and  C_13
REMARK    5  A    between atoms: C_18  and  C_21
REMARK    6  A    between atoms: C_25  and  N_26
REMARK    7  A    between atoms: N_26  and  C_29
REMARK                            x       y       z     vdW  Elec       q    Type
REMARK                         _______ _______ _______ _____ _____    ______ ____
ROOT
ATOM      1  O   UNL     1      38.935 -22.856 -16.123  0.00  0.00    -0.277 OA
ATOM      2  N   UNL     1      37.528 -24.541 -15.402  0.00  0.00    -0.275 N 
ATOM      3  C   UNL     1      36.265 -25.276 -15.402  0.00  0.00    +0.152 C 
ATOM      4  C   UNL     1      36.645 -26.687 -14.961  0.00  0.00    +0.031 C 
ATOM      5  C   UNL     1      38.577 -25.301 -14.737  0.00  0.00    +0.094 C 
ATOM      6  C   UNL     1      37.861 -26.462 -14.065  0.00  0.00    +0.024 C 
ATOM      7  C   UNL     1      37.808 -23.351 -16.055  0.00  0.00    +0.204 C 
ENDROOT
BRANCH   3  10
ATOM      8  O   UNL     1      35.779 -23.882 -13.526  0.00  0.00    -0.273 OA
ATOM      9  N   UNL     1      34.034 -25.012 -14.573  0.00  0.00    -0.299 N 
ATOM     10  C   UNL     1      35.355 -24.635 -14.399  0.00  0.00    +0.241 C 
ATOM     11  H   UNL     1      33.816 -25.624 -15.314  0.00  0.00    +0.150 HD
BRANCH   9  12
ATOM     12  C   UNL     1      32.961 -24.551 -13.723  0.00  0.00    +0.116 C 
BRANCH  12  13
ATOM     13  C   UNL     1      31.726 -24.216 -14.508  0.00  0.00    -0.003 C 
ATOM     14  C   UNL     1      31.712 -23.097 -15.343  0.00  0.00    -0.003 C 
ATOM     15  C   UNL     1      30.592 -25.020 -14.403  0.00  0.00    -0.003 C 
ATOM     16  C   UNL     1      30.565 -22.785 -16.071  0.00  0.00    +0.002 C 
ATOM     17  C   UNL     1      29.445 -24.708 -15.131  0.00  0.00    +0.002 C 
ATOM     18  C   UNL     1      29.431 -23.590 -15.966  0.00  0.00    +0.031 C 
BRANCH  18  21
ATOM     19  N   UNL     1      27.235 -22.454 -16.193  0.00  0.00    -0.343 N 
ATOM     20  N   UNL     1      28.080 -23.745 -17.948  0.00  0.00    -0.285 NA
ATOM     21  C   UNL     1      28.235 -23.264 -16.726  0.00  0.00    +0.117 C 
ATOM     22  H   UNL     1      26.433 -22.245 -16.725  0.00  0.00    +0.144 HD
ATOM     23  H   UNL     1      27.330 -22.089 -15.284  0.00  0.00    +0.144 HD
ATOM     24  H   UNL     1      27.273 -23.525 -18.464  0.00  0.00    +0.188 HD
ENDBRANCH  18  21
ENDBRANCH  12  13
ENDBRANCH   9  12
ENDBRANCH   3  10
BRANCH   7  25
ATOM     25  C   UNL     1      36.637 -22.661 -16.706  0.00  0.00    +0.006 C 
BRANCH  25  26
ATOM     26  N   UNL     1      37.164 -21.883 -17.815  0.00  0.00    +0.391 N 
ATOM     27  H   UNL     1      37.258 -20.909 -17.526  0.00  0.00    -0.084 HD
ATOM     28  H   UNL     1      38.074 -22.260 -18.079  0.00  0.00    -0.084 HD
BRANCH  26  29
ATOM     29  C   UNL     1      36.264 -21.959 -18.971  0.00  0.00    -0.061 C 
ATOM     30  C   UNL     1      36.486 -20.706 -19.826  0.00  0.00    -0.021 C 
ATOM     31  C   UNL     1      34.826 -22.142 -18.463  0.00  0.00    -0.021 C 
ATOM     32  C   UNL     1      35.576 -20.579 -21.048  0.00  0.00    -0.002 C 
ATOM     33  C   UNL     1      33.852 -22.536 -19.573  0.00  0.00    -0.002 C 
ATOM     34  C   UNL     1      34.146 -20.199 -20.679  0.00  0.00    -0.000 C 
ATOM     35  C   UNL     1      33.233 -21.372 -20.339  0.00  0.00    -0.000 C 
ENDBRANCH  26  29
ENDBRANCH  25  26
ENDBRANCH   7  25
TORSDOF 7
ENDMDL
MODEL 4
REMARK VINA RESULT:      -9.9      7.097     11.593
REMARK  Name = 25113614
REMARK  7 active torsions:
REMARK  status: ('A' for Active; 'I' for Inactive)
REMARK    1  A    between atoms: C_3  and  C_10
REMARK    2  A    between atoms: C_7  and  C_25
REMARK    3  A    between atoms: N_9  and  C_12
REMARK    4  A    between atoms: C_12  and  C_13
REMARK    5  A    between atoms: C_18  and  C_21
REMARK    6  A    between atoms: C_25  and  N_26
REMARK    7  A    between atoms: N_26  and  C_29
REMARK                            x       y       z     vdW  Elec       q    Type
REMARK                         _______ _______ _______ _____ _____    ______ ____
ROOT
ATOM      1  O   UNL     1      34.642 -18.263 -24.773  0.00  0.00    -0.277 OA
ATOM      2  N   UNL     1      34.529 -15.969 -24.529  0.00  0.00    -0.275 N 
ATOM      3  C   UNL     1      34.940 -14.697 -23.939  0.00  0.00    +0.152 C 
ATOM      4  C   UNL     1      34.619 -13.658 -25.010  0.00  0.00    +0.031 C 
ATOM      5  C   UNL     1      33.739 -15.756 -25.735  0.00  0.00    +0.094 C 
ATOM      6  C   UNL     1      33.430 -14.267 -25.749  0.00  0.00    +0.024 C 
ATOM      7  C   UNL     1      34.922 -17.240 -24.145  0.00  0.00    +0.204 C 
ENDROOT
BRANCH   3  10
ATOM      8  O   UNL     1      34.292 -15.104 -21.678  0.00  0.00    -0.273 OA
ATOM      9  N   UNL     1      33.146 -13.492 -22.906  0.00  0.00    -0.299 N 
ATOM     10  C   UNL     1      34.111 -14.466 -22.711  0.00  0.00    +0.241 C 
ATOM     11  H   UNL     1      33.101 -13.048 -23.784  0.00  0.00    +0.150 HD
BRANCH   9  12
ATOM     12  C   UNL     1      32.204 -13.097 -21.885  0.00  0.00    +0.116 C 
BRANCH  12  13
ATOM     13  C   UNL     1      32.279 -11.628 -21.588  0.00  0.00    -0.003 C 
ATOM     14  C   UNL     1      32.412 -10.712 -22.632  0.00  0.00    -0.003 C 
ATOM     15  C   UNL     1      32.219 -11.178 -20.269  0.00  0.00    -0.003 C 
ATOM     16  C   UNL     1      32.485  -9.347 -22.357  0.00  0.00    +0.002 C 
ATOM     17  C   UNL     1      32.292  -9.813 -19.994  0.00  0.00    +0.002 C 
ATOM     18  C   UNL     1      32.423  -8.896 -21.038  0.00  0.00    +0.031 C 
BRANCH  18  21
ATOM     19  N   UNL     1      31.682  -6.557 -21.410  0.00  0.00    -0.343 N 
ATOM     20  N   UNL     1      33.359  -7.027 -19.853  0.00  0.00    -0.285 NA
ATOM     21  C   UNL     1      32.498  -7.473 -20.752  0.00  0.00    +0.117 C 
ATOM     22  H   UNL     1      31.748  -5.597 -21.201  0.00  0.00    +0.144 HD
ATOM     23  H   UNL     1      31.036  -6.869 -22.085  0.00  0.00    +0.144 HD
ATOM     24  H   UNL     1      33.411  -6.064 -19.657  0.00  0.00    +0.188 HD
ENDBRANCH  18  21
ENDBRANCH  12  13
ENDBRANCH   9  12
ENDBRANCH   3  10
BRANCH   7  25
ATOM     25  C   UNL     1      35.738 -17.328 -22.880  0.00  0.00    +0.006 C 
BRANCH  25  26
ATOM     26  N   UNL     1      36.179 -18.707 -22.753  0.00  0.00    +0.391 N 
ATOM     27  H   UNL     1      35.811 -19.250 -23.534  0.00  0.00    -0.084 HD
ATOM     28  H   UNL     1      37.198 -18.729 -22.758  0.00  0.00    -0.084 HD
BRANCH  26  29
ATOM     29  C   UNL     1      35.697 -19.286 -21.493  0.00  0.00    -0.061 C 
ATOM     30  C   UNL     1      36.816 -20.162 -20.918  0.00  0.00    -0.021 C 
ATOM     31  C   UNL     1      34.379 -20.026 -21.764  0.00  0.00    -0.021 C 
ATOM     32  C   UNL     1      36.466 -20.908 -19.630  0.00  0.00    -0.002 C 
ATOM     33  C   UNL     1      33.638 -20.405 -20.483  0.00  0.00    -0.002 C 
ATOM     34  C   UNL     1      35.528 -22.085 -19.869  0.00  0.00    -0.000 C 
ATOM     35  C   UNL     1      34.043 -21.739 -19.866  0.00  0.00    -0.000 C 
ENDBRANCH  26  29
ENDBRANCH  25  26
ENDBRANCH   7  25
TORSDOF 7
ENDMDL
MODEL 5
REMARK VINA RESULT:      -9.6     10.009     14.493
REMARK  Name = 25113614
REMARK  7 active torsions:
REMARK  status: ('A' for Active; 'I' for Inactive)
REMARK    1  A    between atoms: C_3  and  C_10
REMARK    2  A    between atoms: C_7  and  C_25
REMARK    3  A    between atoms: N_9  and  C_12
REMARK    4  A    between atoms: C_12  and  C_13
REMARK    5  A    between atoms: C_18  and  C_21
REMARK    6  A    between atoms: C_25  and  N_26
REMARK    7  A    between atoms: N_26  and  C_29
REMARK                            x       y       z     vdW  Elec       q    Type
REMARK                         _______ _______ _______ _____ _____    ______ ____
ROOT
ATOM      1  O   UNL     1      33.734 -14.691 -20.618  0.00  0.00    -0.277 OA
ATOM      2  N   UNL     1      32.623 -12.828 -21.413  0.00  0.00    -0.275 N 
ATOM      3  C   UNL     1      31.972 -12.044 -22.460  0.00  0.00    +0.152 C 
ATOM      4  C   UNL     1      30.979 -11.158 -21.713  0.00  0.00    +0.031 C 
ATOM      5  C   UNL     1      32.312 -12.297 -20.092  0.00  0.00    +0.094 C 
ATOM      6  C   UNL     1      31.639 -10.959 -20.350  0.00  0.00    +0.024 C 
ATOM      7  C   UNL     1      33.326 -14.012 -21.563  0.00  0.00    +0.204 C 
ENDROOT
BRANCH   3  10
ATOM      8  O   UNL     1      33.965 -11.719 -23.733  0.00  0.00    -0.273 OA
ATOM      9  N   UNL     1      32.793  -9.855 -22.978  0.00  0.00    -0.299 N 
ATOM     10  C   UNL     1      33.020 -11.211 -23.135  0.00  0.00    +0.241 C 
ATOM     11  H   UNL     1      31.995  -9.569 -22.476  0.00  0.00    +0.150 HD
BRANCH   9  12
ATOM     12  C   UNL     1      33.669  -8.839 -23.515  0.00  0.00    +0.116 C 
BRANCH  12  13
ATOM     13  C   UNL     1      33.023  -7.484 -23.516  0.00  0.00    -0.003 C 
ATOM     14  C   UNL     1      31.773  -7.306 -22.922  0.00  0.00    -0.003 C 
ATOM     15  C   UNL     1      33.671  -6.402 -24.114  0.00  0.00    -0.003 C 
ATOM     16  C   UNL     1      31.172  -6.048 -22.925  0.00  0.00    +0.002 C 
ATOM     17  C   UNL     1      33.070  -5.145 -24.117  0.00  0.00    +0.002 C 
ATOM     18  C   UNL     1      31.821  -4.966 -23.522  0.00  0.00    +0.031 C 
BRANCH  18  21
ATOM     19  N   UNL     1      31.357  -2.773 -24.590  0.00  0.00    -0.343 N 
ATOM     20  N   UNL     1      30.454  -3.277 -22.495  0.00  0.00    -0.285 NA
ATOM     21  C   UNL     1      31.193  -3.654 -23.524  0.00  0.00    +0.117 C 
ATOM     22  H   UNL     1      30.923  -1.890 -24.571  0.00  0.00    +0.144 HD
ATOM     23  H   UNL     1      31.906  -3.034 -25.364  0.00  0.00    +0.144 HD
ATOM     24  H   UNL     1      30.028  -2.390 -22.494  0.00  0.00    +0.188 HD
ENDBRANCH  18  21
ENDBRANCH  12  13
ENDBRANCH   9  12
ENDBRANCH   3  10
BRANCH   7  25
ATOM     25  C   UNL     1      33.582 -14.456 -22.980  0.00  0.00    +0.006 C 
BRANCH  25  26
ATOM     26  N   UNL     1      35.024 -14.502 -23.158  0.00  0.00    +0.391 N 
ATOM     27  H   UNL     1      35.313 -13.726 -23.754  0.00  0.00    -0.084 HD
ATOM     28  H   UNL     1      35.471 -14.430 -22.245  0.00  0.00    -0.084 HD
BRANCH  26  29
ATOM     29  C   UNL     1      35.424 -15.768 -23.785  0.00  0.00    -0.061 C 
ATOM     30  C   UNL     1      34.476 -16.035 -24.959  0.00  0.00    -0.021 C 
ATOM     31  C   UNL     1      35.440 -16.864 -22.711  0.00  0.00    -0.021 C 
ATOM     32  C   UNL     1      34.700 -17.357 -25.694  0.00  0.00    -0.002 C 
ATOM     33  C   UNL     1      36.130 -18.144 -23.180  0.00  0.00    -0.002 C 
ATOM     34  C   UNL     1      34.218 -18.562 -24.895  0.00  0.00    -0.000 C 
ATOM     35  C   UNL     1      35.234 -19.136 -23.913  0.00  0.00    -0.000 C 
ENDBRANCH  26  29
ENDBRANCH  25  26
ENDBRANCH   7  25
TORSDOF 7
ENDMDL
MODEL 6
REMARK VINA RESULT:      -9.4      8.146     12.893
REMARK  Name = 25113614
REMARK  7 active torsions:
REMARK  status: ('A' for Active; 'I' for Inactive)
REMARK    1  A    between atoms: C_3  and  C_10
REMARK    2  A    between atoms: C_7  and  C_25
REMARK    3  A    between atoms: N_9  and  C_12
REMARK    4  A    between atoms: C_12  and  C_13
REMARK    5  A    between atoms: C_18  and  C_21
REMARK    6  A    between atoms: C_25  and  N_26
REMARK    7  A    between atoms: N_26  and  C_29
REMARK                            x       y       z     vdW  Elec       q    Type
REMARK                         _______ _______ _______ _____ _____    ______ ____
ROOT
ATOM      1  O   UNL     1      34.327 -17.121 -25.852  0.00  0.00    -0.277 OA
ATOM      2  N   UNL     1      34.214 -14.859 -25.395  0.00  0.00    -0.275 N 
ATOM      3  C   UNL     1      34.613 -13.651 -24.677  0.00  0.00    +0.152 C 
ATOM      4  C   UNL     1      34.324 -12.514 -25.652  0.00  0.00    +0.031 C 
ATOM      5  C   UNL     1      33.457 -14.529 -26.595  0.00  0.00    +0.094 C 
ATOM      6  C   UNL     1      33.153 -13.044 -26.477  0.00  0.00    +0.024 C 
ATOM      7  C   UNL     1      34.593 -16.164 -25.122  0.00  0.00    +0.204 C 
ENDROOT
BRANCH   3  10
ATOM      8  O   UNL     1      33.526 -14.494 -22.725  0.00  0.00    -0.273 OA
ATOM      9  N   UNL     1      33.255 -12.251 -23.287  0.00  0.00    -0.299 N 
ATOM     10  C   UNL     1      33.752 -13.532 -23.455  0.00  0.00    +0.241 C 
ATOM     11  H   UNL     1      33.509 -11.561 -23.941  0.00  0.00    +0.150 HD
BRANCH   9  12
ATOM     12  C   UNL     1      32.381 -11.879 -22.198  0.00  0.00    +0.116 C 
BRANCH  12  13
ATOM     13  C   UNL     1      32.238 -10.390 -22.077  0.00  0.00    -0.003 C 
ATOM     14  C   UNL     1      32.152  -9.796 -20.817  0.00  0.00    -0.003 C 
ATOM     15  C   UNL     1      32.188  -9.598 -23.225  0.00  0.00    -0.003 C 
ATOM     16  C   UNL     1      32.017  -8.413 -20.705  0.00  0.00    +0.002 C 
ATOM     17  C   UNL     1      32.052  -8.215 -23.113  0.00  0.00    +0.002 C 
ATOM     18  C   UNL     1      31.968  -7.621 -21.853  0.00  0.00    +0.031 C 
BRANCH  18  21
ATOM     19  N   UNL     1      30.796  -5.495 -22.375  0.00  0.00    -0.343 N 
ATOM     20  N   UNL     1      32.694  -5.491 -21.012  0.00  0.00    -0.285 NA
ATOM     21  C   UNL     1      31.827  -6.179 -21.735  0.00  0.00    +0.117 C 
ATOM     22  H   UNL     1      30.720  -4.518 -22.281  0.00  0.00    +0.144 HD
ATOM     23  H   UNL     1      30.143  -5.990 -22.921  0.00  0.00    +0.144 HD
ATOM     24  H   UNL     1      32.601  -4.515 -20.929  0.00  0.00    +0.188 HD
ENDBRANCH  18  21
ENDBRANCH  12  13
ENDBRANCH   9  12
ENDBRANCH   3  10
BRANCH   7  25
ATOM     25  C   UNL     1      35.374 -16.375 -23.851  0.00  0.00    +0.006 C 
BRANCH  25  26
ATOM     26  N   UNL     1      35.785 -17.769 -23.830  0.00  0.00    +0.391 N 
ATOM     27  H   UNL     1      35.194 -18.301 -24.469  0.00  0.00    -0.084 HD
ATOM     28  H   UNL     1      36.761 -17.830 -24.119  0.00  0.00    -0.084 HD
BRANCH  26  29
ATOM     29  C   UNL     1      35.655 -18.323 -22.477  0.00  0.00    -0.061 C 
ATOM     30  C   UNL     1      37.061 -18.659 -21.967  0.00  0.00    -0.021 C 
ATOM     31  C   UNL     1      34.688 -19.514 -22.525  0.00  0.00    -0.021 C 
ATOM     32  C   UNL     1      37.116 -19.317 -20.588  0.00  0.00    -0.002 C 
ATOM     33  C   UNL     1      34.244 -19.974 -21.137  0.00  0.00    -0.002 C 
ATOM     34  C   UNL     1      36.665 -20.773 -20.613  0.00  0.00    -0.000 C 
ATOM     35  C   UNL     1      35.163 -20.987 -20.461  0.00  0.00    -0.000 C 
ENDBRANCH  26  29
ENDBRANCH  25  26
ENDBRANCH   7  25
TORSDOF 7
ENDMDL
MODEL 7
REMARK VINA RESULT:      -9.4      1.644      2.524
REMARK  Name = 25113614
REMARK  7 active torsions:
REMARK  status: ('A' for Active; 'I' for Inactive)
REMARK    1  A    between atoms: C_3  and  C_10
REMARK    2  A    between atoms: C_7  and  C_25
REMARK    3  A    between atoms: N_9  and  C_12
REMARK    4  A    between atoms: C_12  and  C_13
REMARK    5  A    between atoms: C_18  and  C_21
REMARK    6  A    between atoms: C_25  and  N_26
REMARK    7  A    between atoms: N_26  and  C_29
REMARK                            x       y       z     vdW  Elec       q    Type
REMARK                         _______ _______ _______ _____ _____    ______ ____
ROOT
ATOM      1  O   UNL     1      33.688 -25.104 -12.904  0.00  0.00    -0.277 OA
ATOM      2  N   UNL     1      35.789 -24.149 -13.014  0.00  0.00    -0.275 N 
ATOM      3  C   UNL     1      36.732 -23.113 -13.429  0.00  0.00    +0.152 C 
ATOM      4  C   UNL     1      37.835 -23.156 -12.376  0.00  0.00    +0.031 C 
ATOM      5  C   UNL     1      36.363 -24.992 -11.974  0.00  0.00    +0.094 C 
ATOM      6  C   UNL     1      37.834 -24.614 -11.923  0.00  0.00    +0.024 C 
ATOM      7  C   UNL     1      34.465 -24.284 -13.398  0.00  0.00    +0.204 C 
ENDROOT
BRANCH   3  10
ATOM      8  O   UNL     1      37.614 -24.638 -15.040  0.00  0.00    -0.273 OA
ATOM      9  N   UNL     1      37.345 -22.404 -15.633  0.00  0.00    -0.299 N 
ATOM     10  C   UNL     1      37.272 -23.489 -14.777  0.00  0.00    +0.241 C 
ATOM     11  H   UNL     1      37.038 -21.527 -15.305  0.00  0.00    +0.150 HD
BRANCH   9  12
ATOM     12  C   UNL     1      37.851 -22.495 -16.983  0.00  0.00    +0.116 C 
BRANCH  12  13
ATOM     13  C   UNL     1      36.843 -22.030 -17.993  0.00  0.00    -0.003 C 
ATOM     14  C   UNL     1      35.524 -22.478 -17.921  0.00  0.00    -0.003 C 
ATOM     15  C   UNL     1      37.225 -21.150 -19.007  0.00  0.00    -0.003 C 
ATOM     16  C   UNL     1      34.588 -22.048 -18.860  0.00  0.00    +0.002 C 
ATOM     17  C   UNL     1      36.289 -20.720 -19.946  0.00  0.00    +0.002 C 
ATOM     18  C   UNL     1      34.970 -21.168 -19.873  0.00  0.00    +0.031 C 
BRANCH  18  21
ATOM     19  N   UNL     1      34.369 -19.960 -21.957  0.00  0.00    -0.343 N 
ATOM     20  N   UNL     1      32.717 -21.029 -20.698  0.00  0.00    -0.285 NA
ATOM     21  C   UNL     1      33.993 -20.720 -20.852  0.00  0.00    +0.117 C 
ATOM     22  H   UNL     1      33.691 -19.666 -22.608  0.00  0.00    +0.144 HD
ATOM     23  H   UNL     1      35.314 -19.716 -22.088  0.00  0.00    +0.144 HD
ATOM     24  H   UNL     1      32.054 -20.728 -21.359  0.00  0.00    +0.188 HD
ENDBRANCH  18  21
ENDBRANCH  12  13
ENDBRANCH   9  12
ENDBRANCH   3  10
BRANCH   7  25
ATOM     25  C   UNL     1      33.991 -23.351 -14.483  0.00  0.00    +0.006 C 
BRANCH  25  26
ATOM     26  N   UNL     1      33.226 -24.149 -15.427  0.00  0.00    +0.391 N 
ATOM     27  H   UNL     1      33.562 -23.962 -16.372  0.00  0.00    -0.084 HD
ATOM     28  H   UNL     1      33.348 -25.135 -15.199  0.00  0.00    -0.084 HD
BRANCH  26  29
ATOM     29  C   UNL     1      31.799 -23.815 -15.345  0.00  0.00    -0.061 C 
ATOM     30  C   UNL     1      31.031 -25.101 -15.023  0.00  0.00    -0.021 C 
ATOM     31  C   UNL     1      31.380 -23.128 -16.653  0.00  0.00    -0.021 C 
ATOM     32  C   UNL     1      29.510 -24.958 -14.967  0.00  0.00    -0.002 C 
ATOM     33  C   UNL     1      30.005 -22.469 -16.562  0.00  0.00    -0.002 C 
ATOM     34  C   UNL     1      28.883 -24.807 -16.349  0.00  0.00    -0.000 C 
ATOM     35  C   UNL     1      28.824 -23.379 -16.880  0.00  0.00    -0.000 C 
ENDBRANCH  26  29
ENDBRANCH  25  26
ENDBRANCH   7  25
TORSDOF 7
ENDMDL
MODEL 8
REMARK VINA RESULT:      -9.4      1.831      2.922
REMARK  Name = 25113614
REMARK  7 active torsions:
REMARK  status: ('A' for Active; 'I' for Inactive)
REMARK    1  A    between atoms: C_3  and  C_10
REMARK    2  A    between atoms: C_7  and  C_25
REMARK    3  A    between atoms: N_9  and  C_12
REMARK    4  A    between atoms: C_12  and  C_13
REMARK    5  A    between atoms: C_18  and  C_21
REMARK    6  A    between atoms: C_25  and  N_26
REMARK    7  A    between atoms: N_26  and  C_29
REMARK                            x       y       z     vdW  Elec       q    Type
REMARK                         _______ _______ _______ _____ _____    ______ ____
ROOT
ATOM      1  O   UNL     1      36.058 -26.917 -16.145  0.00  0.00    -0.277 OA
ATOM      2  N   UNL     1      37.188 -25.646 -14.582  0.00  0.00    -0.275 N 
ATOM      3  C   UNL     1      37.277 -24.589 -13.577  0.00  0.00    +0.152 C 
ATOM      4  C   UNL     1      38.415 -25.029 -12.660  0.00  0.00    +0.031 C 
ATOM      5  C   UNL     1      38.343 -26.531 -14.515  0.00  0.00    +0.094 C 
ATOM      6  C   UNL     1      39.324 -25.834 -13.586  0.00  0.00    +0.024 C 
ATOM      7  C   UNL     1      36.117 -25.926 -15.415  0.00  0.00    +0.204 C 
ENDROOT
BRANCH   3  10
ATOM      8  O   UNL     1      37.655 -22.234 -13.687  0.00  0.00    -0.273 OA
ATOM      9  N   UNL     1      37.876 -23.503 -15.626  0.00  0.00    -0.299 N 
ATOM     10  C   UNL     1      37.625 -23.310 -14.278  0.00  0.00    +0.241 C 
ATOM     11  H   UNL     1      37.821 -24.418 -15.986  0.00  0.00    +0.150 HD
BRANCH   9  12
ATOM     12  C   UNL     1      38.212 -22.427 -16.530  0.00  0.00    +0.116 C 
BRANCH  12  13
ATOM     13  C   UNL     1      37.106 -22.145 -17.504  0.00  0.00    -0.003 C 
ATOM     14  C   UNL     1      37.347 -21.343 -18.621  0.00  0.00    -0.003 C 
ATOM     15  C   UNL     1      35.836 -22.681 -17.293  0.00  0.00    -0.003 C 
ATOM     16  C   UNL     1      36.320 -21.079 -19.524  0.00  0.00    +0.002 C 
ATOM     17  C   UNL     1      34.808 -22.417 -18.197  0.00  0.00    +0.002 C 
ATOM     18  C   UNL     1      35.049 -21.617 -19.314  0.00  0.00    +0.031 C 
BRANCH  18  21
ATOM     19  N   UNL     1      34.075 -20.304 -21.183  0.00  0.00    -0.343 N 
ATOM     20  N   UNL     1      32.883 -22.081 -20.244  0.00  0.00    -0.285 NA
ATOM     21  C   UNL     1      33.978 -21.341 -20.258  0.00  0.00    +0.117 C 
ATOM     22  H   UNL     1      33.337 -20.135 -21.813  0.00  0.00    +0.144 HD
ATOM     23  H   UNL     1      34.881 -19.740 -21.206  0.00  0.00    +0.144 HD
ATOM     24  H   UNL     1      32.157 -21.897 -20.882  0.00  0.00    +0.188 HD
ENDBRANCH  18  21
ENDBRANCH  12  13
ENDBRANCH   9  12
ENDBRANCH   3  10
BRANCH   7  25
ATOM     25  C   UNL     1      34.981 -24.935 -15.392  0.00  0.00    +0.006 C 
BRANCH  25  26
ATOM     26  N   UNL     1      34.224 -25.183 -14.177  0.00  0.00    +0.391 N 
ATOM     27  H   UNL     1      34.010 -26.179 -14.113  0.00  0.00    -0.084 HD
ATOM     28  H   UNL     1      34.782 -24.891 -13.375  0.00  0.00    -0.084 HD
BRANCH  26  29
ATOM     29  C   UNL     1      32.971 -24.420 -14.187  0.00  0.00    -0.061 C 
ATOM     30  C   UNL     1      31.837 -25.368 -13.781  0.00  0.00    -0.021 C 
ATOM     31  C   UNL     1      32.801 -23.771 -15.568  0.00  0.00    -0.021 C 
ATOM     32  C   UNL     1      30.435 -24.758 -13.804  0.00  0.00    -0.002 C 
ATOM     33  C   UNL     1      31.698 -22.714 -15.595  0.00  0.00    -0.002 C 
ATOM     34  C   UNL     1      29.903 -24.560 -15.218  0.00  0.00    -0.000 C 
ATOM     35  C   UNL     1      30.296 -23.243 -15.879  0.00  0.00    -0.000 C 
ENDBRANCH  26  29
ENDBRANCH  25  26
ENDBRANCH   7  25
TORSDOF 7
ENDMDL
MODEL 9
REMARK VINA RESULT:      -9.2      1.856      4.815
REMARK  Name = 25113614
REMARK  7 active torsions:
REMARK  status: ('A' for Active; 'I' for Inactive)
REMARK    1  A    between atoms: C_3  and  C_10
REMARK    2  A    between atoms: C_7  and  C_25
REMARK    3  A    between atoms: N_9  and  C_12
REMARK    4  A    between atoms: C_12  and  C_13
REMARK    5  A    between atoms: C_18  and  C_21
REMARK    6  A    between atoms: C_25  and  N_26
REMARK    7  A    between atoms: N_26  and  C_29
REMARK                            x       y       z     vdW  Elec       q    Type
REMARK                         _______ _______ _______ _____ _____    ______ ____
ROOT
ATOM      1  O   UNL     1      32.086 -23.578 -13.044  0.00  0.00    -0.277 OA
ATOM      2  N   UNL     1      32.739 -23.535 -15.259  0.00  0.00    -0.275 N 
ATOM      3  C   UNL     1      33.568 -23.962 -16.384  0.00  0.00    +0.152 C 
ATOM      4  C   UNL     1      32.693 -23.729 -17.613  0.00  0.00    +0.031 C 
ATOM      5  C   UNL     1      31.563 -22.810 -15.721  0.00  0.00    +0.094 C 
ATOM      6  C   UNL     1      31.809 -22.555 -17.199  0.00  0.00    +0.024 C 
ATOM      7  C   UNL     1      32.901 -23.864 -13.923  0.00  0.00    +0.204 C 
ENDROOT
BRANCH   3  10
ATOM      8  O   UNL     1      35.302 -22.648 -15.401  0.00  0.00    -0.273 OA
ATOM      9  N   UNL     1      35.205 -22.835 -17.720  0.00  0.00    -0.299 N 
ATOM     10  C   UNL     1      34.783 -23.086 -16.425  0.00  0.00    +0.241 C 
ATOM     11  H   UNL     1      34.705 -23.245 -18.463  0.00  0.00    +0.150 HD
BRANCH   9  12
ATOM     12  C   UNL     1      36.341 -22.000 -18.033  0.00  0.00    +0.116 C 
BRANCH  12  13
ATOM     13  C   UNL     1      36.129 -21.211 -19.293  0.00  0.00    -0.003 C 
ATOM     14  C   UNL     1      34.891 -21.244 -19.936  0.00  0.00    -0.003 C 
ATOM     15  C   UNL     1      37.169 -20.447 -19.822  0.00  0.00    -0.003 C 
ATOM     16  C   UNL     1      34.694 -20.514 -21.107  0.00  0.00    +0.002 C 
ATOM     17  C   UNL     1      36.972 -19.716 -20.992  0.00  0.00    +0.002 C 
ATOM     18  C   UNL     1      35.734 -19.748 -21.635  0.00  0.00    +0.031 C 
BRANCH  18  21
ATOM     19  N   UNL     1      36.373 -17.936 -23.208  0.00  0.00    -0.343 N 
ATOM     20  N   UNL     1      34.516 -19.283 -23.654  0.00  0.00    -0.285 NA
ATOM     21  C   UNL     1      35.528 -18.986 -22.856  0.00  0.00    +0.117 C 
ATOM     22  H   UNL     1      36.215 -17.433 -24.040  0.00  0.00    +0.144 HD
ATOM     23  H   UNL     1      37.129 -17.697 -22.626  0.00  0.00    +0.144 HD
ATOM     24  H   UNL     1      34.375 -18.769 -24.481  0.00  0.00    +0.188 HD
ENDBRANCH  18  21
ENDBRANCH  12  13
ENDBRANCH   9  12
ENDBRANCH   3  10
BRANCH   7  25
ATOM     25  C   UNL     1      34.159 -24.617 -13.573  0.00  0.00    +0.006 C 
BRANCH  25  26
ATOM     26  N   UNL     1      34.874 -23.818 -12.592  0.00  0.00    +0.391 N 
ATOM     27  H   UNL     1      35.037 -22.886 -12.974  0.00  0.00    -0.084 HD
ATOM     28  H   UNL     1      34.312 -23.757 -11.743  0.00  0.00    -0.084 HD
BRANCH  26  29
ATOM     29  C   UNL     1      36.163 -24.439 -12.264  0.00  0.00    -0.061 C 
ATOM     30  C   UNL     1      37.219 -23.330 -12.205  0.00  0.00    -0.021 C 
ATOM     31  C   UNL     1      36.451 -25.545 -13.289  0.00  0.00    -0.021 C 
ATOM     32  C   UNL     1      38.650 -23.803 -11.941  0.00  0.00    -0.002 C 
ATOM     33  C   UNL     1      37.607 -26.453 -12.872  0.00  0.00    -0.002 C 
ATOM     34  C   UNL     1      39.278 -24.479 -13.154  0.00  0.00    -0.000 C 
ATOM     35  C   UNL     1      38.994 -25.971 -13.282  0.00  0.00    -0.000 C 
ENDBRANCH  26  29
ENDBRANCH  25  26
ENDBRANCH   7  25
TORSDOF 7
ENDMDL
