MODEL 1
REMARK VINA RESULT:     -12.0      0.000      0.000
REMARK  Name = 54726191
REMARK  4 active torsions:
REMARK  status: ('A' for Active; 'I' for Inactive)
REMARK    1  A    between atoms: C_15  and  O_31
REMARK    2  A    between atoms: C_16  and  C_20
REMARK    3  A    between atoms: N_19  and  C_22
REMARK    4  A    between atoms: C_22  and  C_25
REMARK                            x       y       z     vdW  Elec       q    Type
REMARK                         _______ _______ _______ _____ _____    ______ ____
ROOT
ATOM      1  O   UNL     1      37.350 -22.948 -15.680  0.00  0.00    -0.336 OA
ATOM      2  O   UNL     1      33.573 -23.826 -18.332  0.00  0.00    -0.268 OA
ATOM      3  O   UNL     1      33.903 -20.155 -21.843  0.00  0.00    -0.283 OA
ATOM      4  N   UNL     1      35.285 -23.247 -16.885  0.00  0.00    -0.253 N 
ATOM      5  N   UNL     1      36.290 -21.508 -18.861  0.00  0.00    -0.275 N 
ATOM      6  C   UNL     1      36.407 -22.353 -16.580  0.00  0.00    +0.215 C 
ATOM      7  C   UNL     1      34.712 -24.041 -15.783  0.00  0.00    +0.080 C 
ATOM      8  C   UNL     1      35.798 -24.547 -14.833  0.00  0.00    +0.052 C 
ATOM      9  C   UNL     1      37.189 -22.034 -17.844  0.00  0.00    +0.147 C 
ATOM     10  C   UNL     1      36.764 -23.433 -14.480  0.00  0.00    +0.146 C 
ATOM     11  C   UNL     1      34.550 -23.124 -18.073  0.00  0.00    +0.267 C 
ATOM     12  C   UNL     1      35.013 -22.050 -19.030  0.00  0.00    +0.143 C 
ATOM     13  C   UNL     1      33.642 -23.232 -15.039  0.00  0.00    +0.022 C 
ATOM     14  C   UNL     1      36.727 -20.530 -19.743  0.00  0.00    +0.074 C 
ATOM     15  C   UNL     1      34.172 -21.638 -20.004  0.00  0.00    +0.191 C 
ATOM     16  C   UNL     1      36.003 -20.030 -20.752  0.00  0.00    +0.110 C 
ATOM     17  C   UNL     1      34.632 -20.567 -20.946  0.00  0.00    +0.236 C 
ENDROOT
BRANCH  16  20
ATOM     18  O   UNL     1      37.820 -18.905 -21.728  0.00  0.00    -0.270 OA
ATOM     19  N   UNL     1      35.655 -18.177 -22.199  0.00  0.00    -0.297 N 
ATOM     20  C   UNL     1      36.599 -18.995 -21.597  0.00  0.00    +0.251 C 
ATOM     21  H   UNL     1      34.704 -18.351 -22.016  0.00  0.00    +0.150 HD
BRANCH  19  22
ATOM     22  C   UNL     1      35.996 -17.082 -23.079  0.00  0.00    +0.119 C 
BRANCH  22  25
ATOM     23  F   UNL     1      34.826 -15.610 -25.192  0.00  0.00    -0.204 F 
ATOM     24  F   UNL     1      32.707 -12.593 -22.226  0.00  0.00    -0.204 F 
ATOM     25  C   UNL     1      35.119 -15.886 -22.853  0.00  0.00    +0.025 C 
ATOM     26  C   UNL     1      34.573 -15.204 -23.941  0.00  0.00    +0.140 C 
ATOM     27  C   UNL     1      34.850 -15.456 -21.553  0.00  0.00    +0.002 C 
ATOM     28  C   UNL     1      33.758 -14.091 -23.729  0.00  0.00    +0.059 C 
ATOM     29  C   UNL     1      34.034 -14.343 -21.342  0.00  0.00    +0.030 C 
ATOM     30  C   UNL     1      33.489 -13.661 -22.429  0.00  0.00    +0.142 C 
ENDBRANCH  22  25
ENDBRANCH  19  22
ENDBRANCH  16  20
BRANCH  15  31
ATOM     31  O   UNL     1      32.898 -22.129 -20.185  0.00  0.00    -0.502 OA
ATOM     32  H   UNL     1      32.163 -21.549 -20.149  0.00  0.00    +0.292 HD
ENDBRANCH  15  31
TORSDOF 4
ENDMDL
MODEL 2
REMARK VINA RESULT:     -11.2      1.121      1.823
REMARK  Name = 54726191
REMARK  4 active torsions:
REMARK  status: ('A' for Active; 'I' for Inactive)
REMARK    1  A    between atoms: C_15  and  O_31
REMARK    2  A    between atoms: C_16  and  C_20
REMARK    3  A    between atoms: N_19  and  C_22
REMARK    4  A    between atoms: C_22  and  C_25
REMARK                            x       y       z     vdW  Elec       q    Type
REMARK                         _______ _______ _______ _____ _____    ______ ____
ROOT
ATOM      1  O   UNL     1      37.080 -23.127 -15.496  0.00  0.00    -0.336 OA
ATOM      2  O   UNL     1      33.440 -23.870 -18.371  0.00  0.00    -0.268 OA
ATOM      3  O   UNL     1      34.048 -20.148 -21.790  0.00  0.00    -0.283 OA
ATOM      4  N   UNL     1      35.080 -23.356 -16.820  0.00  0.00    -0.253 N 
ATOM      5  N   UNL     1      36.234 -21.608 -18.704  0.00  0.00    -0.275 N 
ATOM      6  C   UNL     1      36.203 -22.494 -16.437  0.00  0.00    +0.215 C 
ATOM      7  C   UNL     1      34.429 -24.155 -15.767  0.00  0.00    +0.080 C 
ATOM      8  C   UNL     1      35.447 -24.704 -14.767  0.00  0.00    +0.052 C 
ATOM      9  C   UNL     1      37.062 -22.172 -17.649  0.00  0.00    +0.147 C 
ATOM     10  C   UNL     1      36.417 -23.619 -14.340  0.00  0.00    +0.146 C 
ATOM     11  C   UNL     1      34.416 -23.196 -18.045  0.00  0.00    +0.267 C 
ATOM     12  C   UNL     1      34.956 -22.116 -18.955  0.00  0.00    +0.143 C 
ATOM     13  C   UNL     1      33.337 -23.335 -15.069  0.00  0.00    +0.022 C 
ATOM     14  C   UNL     1      36.741 -20.625 -19.542  0.00  0.00    +0.074 C 
ATOM     15  C   UNL     1      34.180 -21.668 -19.966  0.00  0.00    +0.191 C 
ATOM     16  C   UNL     1      36.087 -20.091 -20.581  0.00  0.00    +0.110 C 
ATOM     17  C   UNL     1      34.717 -20.592 -20.861  0.00  0.00    +0.236 C 
ENDROOT
BRANCH  16  20
ATOM     18  O   UNL     1      37.904 -19.210 -21.781  0.00  0.00    -0.270 OA
ATOM     19  N   UNL     1      35.955 -17.943 -21.588  0.00  0.00    -0.297 N 
ATOM     20  C   UNL     1      36.752 -19.056 -21.372  0.00  0.00    +0.251 C 
ATOM     21  H   UNL     1      35.047 -17.939 -21.208  0.00  0.00    +0.150 HD
BRANCH  19  22
ATOM     22  C   UNL     1      36.388 -16.788 -22.341  0.00  0.00    +0.119 C 
BRANCH  22  25
ATOM     23  F   UNL     1      35.100 -14.302 -22.749  0.00  0.00    -0.204 F 
ATOM     24  F   UNL     1      33.036 -15.765 -26.748  0.00  0.00    -0.204 F 
ATOM     25  C   UNL     1      35.495 -16.514 -23.515  0.00  0.00    +0.025 C 
ATOM     26  C   UNL     1      34.889 -15.265 -23.657  0.00  0.00    +0.140 C 
ATOM     27  C   UNL     1      35.270 -17.510 -24.466  0.00  0.00    +0.002 C 
ATOM     28  C   UNL     1      34.059 -15.012 -24.749  0.00  0.00    +0.059 C 
ATOM     29  C   UNL     1      34.439 -17.256 -25.558  0.00  0.00    +0.030 C 
ATOM     30  C   UNL     1      33.833 -16.008 -25.700  0.00  0.00    +0.142 C 
ENDBRANCH  22  25
ENDBRANCH  19  22
ENDBRANCH  16  20
BRANCH  15  31
ATOM     31  O   UNL     1      32.908 -22.126 -20.226  0.00  0.00    -0.502 OA
ATOM     32  H   UNL     1      32.784 -22.943 -20.668  0.00  0.00    +0.292 HD
ENDBRANCH  15  31
TORSDOF 4
ENDMDL
MODEL 3
REMARK VINA RESULT:     -10.9      3.656      5.896
REMARK  Name = 54726191
REMARK  4 active torsions:
REMARK  status: ('A' for Active; 'I' for Inactive)
REMARK    1  A    between atoms: C_15  and  O_31
REMARK    2  A    between atoms: C_16  and  C_20
REMARK    3  A    between atoms: N_19  and  C_22
REMARK    4  A    between atoms: C_22  and  C_25
REMARK                            x       y       z     vdW  Elec       q    Type
REMARK                         _______ _______ _______ _____ _____    ______ ____
ROOT
ATOM      1  O   UNL     1      38.485 -25.447 -14.666  0.00  0.00    -0.336 OA
ATOM      2  O   UNL     1      34.645 -24.988 -12.000  0.00  0.00    -0.268 OA
ATOM      3  O   UNL     1      31.505 -22.492 -15.135  0.00  0.00    -0.283 OA
ATOM      4  N   UNL     1      36.615 -24.995 -13.217  0.00  0.00    -0.253 N 
ATOM      5  N   UNL     1      35.142 -24.243 -15.498  0.00  0.00    -0.275 N 
ATOM      6  C   UNL     1      37.308 -24.655 -14.464  0.00  0.00    +0.215 C 
ATOM      7  C   UNL     1      37.432 -25.254 -12.018  0.00  0.00    +0.080 C 
ATOM      8  C   UNL     1      38.708 -26.023 -12.364  0.00  0.00    +0.052 C 
ATOM      9  C   UNL     1      36.413 -24.934 -15.660  0.00  0.00    +0.147 C 
ATOM     10  C   UNL     1      39.391 -25.412 -13.572  0.00  0.00    +0.146 C 
ATOM     11  C   UNL     1      35.242 -24.760 -13.052  0.00  0.00    +0.267 C 
ATOM     12  C   UNL     1      34.521 -24.181 -14.247  0.00  0.00    +0.143 C 
ATOM     13  C   UNL     1      37.743 -23.943 -11.286  0.00  0.00    +0.022 C 
ATOM     14  C   UNL     1      34.481 -23.724 -16.602  0.00  0.00    +0.074 C 
ATOM     15  C   UNL     1      33.311 -23.608 -14.064  0.00  0.00    +0.191 C 
ATOM     16  C   UNL     1      33.281 -23.132 -16.569  0.00  0.00    +0.110 C 
ATOM     17  C   UNL     1      32.603 -23.028 -15.251  0.00  0.00    +0.236 C 
ENDROOT
BRANCH  16  20
ATOM     18  O   UNL     1      31.493 -22.583 -17.989  0.00  0.00    -0.270 OA
ATOM     19  N   UNL     1      33.675 -22.229 -18.731  0.00  0.00    -0.297 N 
ATOM     20  C   UNL     1      32.712 -22.628 -17.818  0.00  0.00    +0.251 C 
ATOM     21  H   UNL     1      34.622 -22.315 -18.477  0.00  0.00    +0.150 HD
BRANCH  19  22
ATOM     22  C   UNL     1      33.361 -21.697 -20.038  0.00  0.00    +0.119 C 
BRANCH  22  25
ATOM     23  F   UNL     1      36.070 -22.026 -19.290  0.00  0.00    -0.204 F 
ATOM     24  F   UNL     1      37.508 -18.467 -22.057  0.00  0.00    -0.204 F 
ATOM     25  C   UNL     1      34.468 -20.837 -20.575  0.00  0.00    +0.025 C 
ATOM     26  C   UNL     1      35.784 -21.053 -20.164  0.00  0.00    +0.140 C 
ATOM     27  C   UNL     1      34.179 -19.821 -21.487  0.00  0.00    +0.002 C 
ATOM     28  C   UNL     1      36.810 -20.252 -20.665  0.00  0.00    +0.059 C 
ATOM     29  C   UNL     1      35.206 -19.021 -21.987  0.00  0.00    +0.030 C 
ATOM     30  C   UNL     1      36.522 -19.235 -21.577  0.00  0.00    +0.142 C 
ENDBRANCH  22  25
ENDBRANCH  19  22
ENDBRANCH  16  20
BRANCH  15  31
ATOM     31  O   UNL     1      32.681 -23.505 -12.844  0.00  0.00    -0.502 OA
ATOM     32  H   UNL     1      32.242 -22.711 -12.609  0.00  0.00    +0.292 HD
ENDBRANCH  15  31
TORSDOF 4
ENDMDL
MODEL 4
REMARK VINA RESULT:     -10.7      3.998      9.627
REMARK  Name = 54726191
REMARK  4 active torsions:
REMARK  status: ('A' for Active; 'I' for Inactive)
REMARK    1  A    between atoms: C_15  and  O_31
REMARK    2  A    between atoms: C_16  and  C_20
REMARK    3  A    between atoms: N_19  and  C_22
REMARK    4  A    between atoms: C_22  and  C_25
REMARK                            x       y       z     vdW  Elec       q    Type
REMARK                         _______ _______ _______ _____ _____    ______ ____
ROOT
ATOM      1  O   UNL     1      34.518 -12.503 -23.738  0.00  0.00    -0.336 OA
ATOM      2  O   UNL     1      33.088 -16.168 -26.306  0.00  0.00    -0.268 OA
ATOM      3  O   UNL     1      35.647 -20.001 -24.147  0.00  0.00    -0.283 OA
ATOM      4  N   UNL     1      33.977 -14.333 -25.209  0.00  0.00    -0.253 N 
ATOM      5  N   UNL     1      35.072 -16.082 -23.292  0.00  0.00    -0.275 N 
ATOM      6  C   UNL     1      34.879 -13.820 -24.172  0.00  0.00    +0.215 C 
ATOM      7  C   UNL     1      33.535 -13.404 -26.265  0.00  0.00    +0.080 C 
ATOM      8  C   UNL     1      33.268 -12.006 -25.706  0.00  0.00    +0.052 C 
ATOM      9  C   UNL     1      34.812 -14.696 -22.932  0.00  0.00    +0.147 C 
ATOM     10  C   UNL     1      34.400 -11.565 -24.799  0.00  0.00    +0.146 C 
ATOM     11  C   UNL     1      33.798 -15.708 -25.412  0.00  0.00    +0.267 C 
ATOM     12  C   UNL     1      34.553 -16.620 -24.472  0.00  0.00    +0.143 C 
ATOM     13  C   UNL     1      34.555 -13.369 -27.410  0.00  0.00    +0.022 C 
ATOM     14  C   UNL     1      35.757 -16.915 -22.417  0.00  0.00    +0.074 C 
ATOM     15  C   UNL     1      34.713 -17.918 -24.812  0.00  0.00    +0.191 C 
ATOM     16  C   UNL     1      35.989 -18.217 -22.624  0.00  0.00    +0.110 C 
ATOM     17  C   UNL     1      35.469 -18.817 -23.880  0.00  0.00    +0.236 C 
ENDROOT
BRANCH  16  20
ATOM     18  O   UNL     1      37.873 -18.640 -21.287  0.00  0.00    -0.270 OA
ATOM     19  N   UNL     1      36.014 -20.035 -21.094  0.00  0.00    -0.297 N 
ATOM     20  C   UNL     1      36.731 -18.967 -21.611  0.00  0.00    +0.251 C 
ATOM     21  H   UNL     1      35.105 -20.195 -21.436  0.00  0.00    +0.150 HD
BRANCH  19  22
ATOM     22  C   UNL     1      36.533 -20.926 -20.081  0.00  0.00    +0.119 C 
BRANCH  22  25
ATOM     23  F   UNL     1      36.984 -22.344 -17.675  0.00  0.00    -0.204 F 
ATOM     24  F   UNL     1      32.415 -23.487 -17.221  0.00  0.00    -0.204 F 
ATOM     25  C   UNL     1      35.436 -21.609 -19.318  0.00  0.00    +0.025 C 
ATOM     26  C   UNL     1      35.727 -22.292 -18.136  0.00  0.00    +0.140 C 
ATOM     27  C   UNL     1      34.125 -21.560 -19.790  0.00  0.00    +0.002 C 
ATOM     28  C   UNL     1      34.706 -22.927 -17.428  0.00  0.00    +0.059 C 
ATOM     29  C   UNL     1      33.104 -22.194 -19.082  0.00  0.00    +0.030 C 
ATOM     30  C   UNL     1      33.394 -22.878 -17.901  0.00  0.00    +0.142 C 
ENDBRANCH  22  25
ENDBRANCH  19  22
ENDBRANCH  16  20
BRANCH  15  31
ATOM     31  O   UNL     1      34.239 -18.477 -25.977  0.00  0.00    -0.502 OA
ATOM     32  H   UNL     1      33.803 -17.942 -26.611  0.00  0.00    +0.292 HD
ENDBRANCH  15  31
TORSDOF 4
ENDMDL
MODEL 5
REMARK VINA RESULT:     -10.6      6.208     11.865
REMARK  Name = 54726191
REMARK  4 active torsions:
REMARK  status: ('A' for Active; 'I' for Inactive)
REMARK    1  A    between atoms: C_15  and  O_31
REMARK    2  A    between atoms: C_16  and  C_20
REMARK    3  A    between atoms: N_19  and  C_22
REMARK    4  A    between atoms: C_22  and  C_25
REMARK                            x       y       z     vdW  Elec       q    Type
REMARK                         _______ _______ _______ _____ _____    ______ ____
ROOT
ATOM      1  O   UNL     1      34.081  -6.726 -24.317  0.00  0.00    -0.336 OA
ATOM      2  O   UNL     1      32.049  -9.108 -20.816  0.00  0.00    -0.268 OA
ATOM      3  O   UNL     1      32.228 -13.882 -22.575  0.00  0.00    -0.283 OA
ATOM      4  N   UNL     1      32.820  -7.907 -22.638  0.00  0.00    -0.253 N 
ATOM      5  N   UNL     1      33.749 -10.317 -23.762  0.00  0.00    -0.275 N 
ATOM      6  C   UNL     1      33.363  -7.925 -24.001  0.00  0.00    +0.215 C 
ATOM      7  C   UNL     1      32.227  -6.650 -22.145  0.00  0.00    +0.080 C 
ATOM      8  C   UNL     1      33.020  -5.432 -22.619  0.00  0.00    +0.052 C 
ATOM      9  C   UNL     1      34.363  -9.058 -24.157  0.00  0.00    +0.147 C 
ATOM     10  C   UNL     1      33.332  -5.538 -24.099  0.00  0.00    +0.146 C 
ATOM     11  C   UNL     1      32.551  -9.092 -21.939  0.00  0.00    +0.267 C 
ATOM     12  C   UNL     1      32.897 -10.377 -22.656  0.00  0.00    +0.143 C 
ATOM     13  C   UNL     1      30.751  -6.557 -22.550  0.00  0.00    +0.022 C 
ATOM     14  C   UNL     1      34.080 -11.494 -24.419  0.00  0.00    +0.074 C 
ATOM     15  C   UNL     1      32.358 -11.535 -22.214  0.00  0.00    +0.191 C 
ATOM     16  C   UNL     1      33.623 -12.709 -24.091  0.00  0.00    +0.110 C 
ATOM     17  C   UNL     1      32.697 -12.806 -22.933  0.00  0.00    +0.236 C 
ENDROOT
BRANCH  16  20
ATOM     18  O   UNL     1      33.802 -13.939 -26.084  0.00  0.00    -0.270 OA
ATOM     19  N   UNL     1      34.760 -14.795 -24.137  0.00  0.00    -0.297 N 
ATOM     20  C   UNL     1      34.059 -13.860 -24.882  0.00  0.00    +0.251 C 
ATOM     21  H   UNL     1      34.902 -14.617 -23.180  0.00  0.00    +0.150 HD
BRANCH  19  22
ATOM     22  C   UNL     1      35.293 -16.018 -24.693  0.00  0.00    +0.119 C 
BRANCH  22  25
ATOM     23  F   UNL     1      34.594 -18.676 -25.362  0.00  0.00    -0.204 F 
ATOM     24  F   UNL     1      35.287 -20.216 -20.942  0.00  0.00    -0.204 F 
ATOM     25  C   UNL     1      35.291 -17.138 -23.694  0.00  0.00    +0.025 C 
ATOM     26  C   UNL     1      34.935 -18.428 -24.091  0.00  0.00    +0.140 C 
ATOM     27  C   UNL     1      35.646 -16.888 -22.369  0.00  0.00    +0.002 C 
ATOM     28  C   UNL     1      34.934 -19.467 -23.161  0.00  0.00    +0.059 C 
ATOM     29  C   UNL     1      35.644 -17.929 -21.439  0.00  0.00    +0.030 C 
ATOM     30  C   UNL     1      35.288 -19.218 -21.834  0.00  0.00    +0.142 C 
ENDBRANCH  22  25
ENDBRANCH  19  22
ENDBRANCH  16  20
BRANCH  15  31
ATOM     31  O   UNL     1      31.495 -11.629 -21.146  0.00  0.00    -0.502 OA
ATOM     32  H   UNL     1      31.667 -12.239 -20.456  0.00  0.00    +0.292 HD
ENDBRANCH  15  31
TORSDOF 4
ENDMDL
MODEL 6
REMARK VINA RESULT:     -10.4      5.140      8.731
REMARK  Name = 54726191
REMARK  4 active torsions:
REMARK  status: ('A' for Active; 'I' for Inactive)
REMARK    1  A    between atoms: C_15  and  O_31
REMARK    2  A    between atoms: C_16  and  C_20
REMARK    3  A    between atoms: N_19  and  C_22
REMARK    4  A    between atoms: C_22  and  C_25
REMARK                            x       y       z     vdW  Elec       q    Type
REMARK                         _______ _______ _______ _____ _____    ______ ____
ROOT
ATOM      1  O   UNL     1      35.684 -18.104 -21.035  0.00  0.00    -0.336 OA
ATOM      2  O   UNL     1      35.481 -15.784 -25.115  0.00  0.00    -0.268 OA
ATOM      3  O   UNL     1      32.579 -11.787 -23.886  0.00  0.00    -0.283 OA
ATOM      4  N   UNL     1      35.377 -17.053 -23.181  0.00  0.00    -0.253 N 
ATOM      5  N   UNL     1      34.335 -14.809 -21.834  0.00  0.00    -0.275 N 
ATOM      6  C   UNL     1      34.903 -17.176 -21.798  0.00  0.00    +0.215 C 
ATOM      7  C   UNL     1      35.790 -18.280 -23.884  0.00  0.00    +0.080 C 
ATOM      8  C   UNL     1      36.533 -19.238 -22.952  0.00  0.00    +0.052 C 
ATOM      9  C   UNL     1      35.022 -15.845 -21.076  0.00  0.00    +0.147 C 
ATOM     10  C   UNL     1      35.795 -19.387 -21.636  0.00  0.00    +0.146 C 
ATOM     11  C   UNL     1      35.140 -15.897 -23.938  0.00  0.00    +0.267 C 
ATOM     12  C   UNL     1      34.411 -14.778 -23.229  0.00  0.00    +0.143 C 
ATOM     13  C   UNL     1      34.581 -18.956 -24.541  0.00  0.00    +0.022 C 
ATOM     14  C   UNL     1      33.677 -13.780 -21.174  0.00  0.00    +0.074 C 
ATOM     15  C   UNL     1      33.845 -13.799 -23.967  0.00  0.00    +0.191 C 
ATOM     16  C   UNL     1      33.073 -12.748 -21.776  0.00  0.00    +0.110 C 
ATOM     17  C   UNL     1      33.116 -12.696 -23.260  0.00  0.00    +0.236 C 
ENDROOT
BRANCH  16  20
ATOM     18  O   UNL     1      31.801 -12.056 -19.926  0.00  0.00    -0.270 OA
ATOM     19  N   UNL     1      32.566 -10.451 -21.435  0.00  0.00    -0.297 N 
ATOM     20  C   UNL     1      32.415 -11.739 -20.946  0.00  0.00    +0.251 C 
ATOM     21  H   UNL     1      33.082 -10.326 -22.264  0.00  0.00    +0.150 HD
BRANCH  19  22
ATOM     22  C   UNL     1      32.006  -9.284 -20.792  0.00  0.00    +0.119 C 
BRANCH  22  25
ATOM     23  F   UNL     1      33.169  -6.809 -20.067  0.00  0.00    -0.204 F 
ATOM     24  F   UNL     1      32.019  -4.796 -24.191  0.00  0.00    -0.204 F 
ATOM     25  C   UNL     1      32.010  -8.087 -21.697  0.00  0.00    +0.025 C 
ATOM     26  C   UNL     1      32.601  -6.895 -21.277  0.00  0.00    +0.140 C 
ATOM     27  C   UNL     1      31.423  -8.168 -22.960  0.00  0.00    +0.002 C 
ATOM     28  C   UNL     1      32.604  -5.783 -22.120  0.00  0.00    +0.059 C 
ATOM     29  C   UNL     1      31.426  -7.055 -23.802  0.00  0.00    +0.030 C 
ATOM     30  C   UNL     1      32.016  -5.863 -23.383  0.00  0.00    +0.142 C 
ENDBRANCH  22  25
ENDBRANCH  19  22
ENDBRANCH  16  20
BRANCH  15  31
ATOM     31  O   UNL     1      33.876 -13.750 -25.343  0.00  0.00    -0.502 OA
ATOM     32  H   UNL     1      33.324 -13.149 -25.804  0.00  0.00    +0.292 HD
ENDBRANCH  15  31
TORSDOF 4
ENDMDL
MODEL 7
REMARK VINA RESULT:     -10.2      4.502      9.440
REMARK  Name = 54726191
REMARK  4 active torsions:
REMARK  status: ('A' for Active; 'I' for Inactive)
REMARK    1  A    between atoms: C_15  and  O_31
REMARK    2  A    between atoms: C_16  and  C_20
REMARK    3  A    between atoms: N_19  and  C_22
REMARK    4  A    between atoms: C_22  and  C_25
REMARK                            x       y       z     vdW  Elec       q    Type
REMARK                         _______ _______ _______ _____ _____    ______ ____
ROOT
ATOM      1  O   UNL     1      31.784 -12.658 -18.806  0.00  0.00    -0.336 OA
ATOM      2  O   UNL     1      32.314 -11.490 -23.325  0.00  0.00    -0.268 OA
ATOM      3  O   UNL     1      35.561 -15.063 -24.939  0.00  0.00    -0.283 OA
ATOM      4  N   UNL     1      32.246 -11.912 -21.049  0.00  0.00    -0.253 N 
ATOM      5  N   UNL     1      33.468 -14.404 -21.532  0.00  0.00    -0.275 N 
ATOM      6  C   UNL     1      32.671 -12.755 -19.927  0.00  0.00    +0.215 C 
ATOM      7  C   UNL     1      31.732 -10.564 -20.747  0.00  0.00    +0.080 C 
ATOM      8  C   UNL     1      30.876 -10.560 -19.480  0.00  0.00    +0.052 C 
ATOM      9  C   UNL     1      32.664 -14.220 -20.333  0.00  0.00    +0.147 C 
ATOM     10  C   UNL     1      31.564 -11.325 -18.366  0.00  0.00    +0.146 C 
ATOM     11  C   UNL     1      32.613 -12.207 -22.370  0.00  0.00    +0.267 C 
ATOM     12  C   UNL     1      33.430 -13.464 -22.565  0.00  0.00    +0.143 C 
ATOM     13  C   UNL     1      32.887  -9.558 -20.653  0.00  0.00    +0.022 C 
ATOM     14  C   UNL     1      34.206 -15.566 -21.708  0.00  0.00    +0.074 C 
ATOM     15  C   UNL     1      34.108 -13.627 -23.723  0.00  0.00    +0.191 C 
ATOM     16  C   UNL     1      34.923 -15.860 -22.800  0.00  0.00    +0.110 C 
ATOM     17  C   UNL     1      34.923 -14.871 -23.909  0.00  0.00    +0.236 C 
ENDROOT
BRANCH  16  20
ATOM     18  O   UNL     1      36.078 -17.583 -23.902  0.00  0.00    -0.270 OA
ATOM     19  N   UNL     1      35.802 -17.706 -21.589  0.00  0.00    -0.297 N 
ATOM     20  C   UNL     1      35.655 -17.125 -22.839  0.00  0.00    +0.251 C 
ATOM     21  H   UNL     1      35.419 -17.241 -20.811  0.00  0.00    +0.150 HD
BRANCH  19  22
ATOM     22  C   UNL     1      36.488 -18.959 -21.369  0.00  0.00    +0.119 C 
BRANCH  22  25
ATOM     23  F   UNL     1      37.432 -21.060 -19.726  0.00  0.00    -0.204 F 
ATOM     24  F   UNL     1      33.093 -22.851 -19.127  0.00  0.00    -0.204 F 
ATOM     25  C   UNL     1      35.584 -19.997 -20.771  0.00  0.00    +0.025 C 
ATOM     26  C   UNL     1      36.116 -21.008 -19.968  0.00  0.00    +0.140 C 
ATOM     27  C   UNL     1      34.212 -19.950 -21.017  0.00  0.00    +0.002 C 
ATOM     28  C   UNL     1      35.274 -21.972 -19.413  0.00  0.00    +0.059 C 
ATOM     29  C   UNL     1      33.371 -20.915 -20.461  0.00  0.00    +0.030 C 
ATOM     30  C   UNL     1      33.901 -21.926 -19.660  0.00  0.00    +0.142 C 
ENDBRANCH  22  25
ENDBRANCH  19  22
ENDBRANCH  16  20
BRANCH  15  31
ATOM     31  O   UNL     1      34.115 -12.711 -24.751  0.00  0.00    -0.502 OA
ATOM     32  H   UNL     1      33.903 -11.815 -24.581  0.00  0.00    +0.292 HD
ENDBRANCH  15  31
TORSDOF 4
ENDMDL
MODEL 8
REMARK VINA RESULT:      -9.9      5.023      8.626
REMARK  Name = 54726191
REMARK  4 active torsions:
REMARK  status: ('A' for Active; 'I' for Inactive)
REMARK    1  A    between atoms: C_15  and  O_31
REMARK    2  A    between atoms: C_16  and  C_20
REMARK    3  A    between atoms: N_19  and  C_22
REMARK    4  A    between atoms: C_22  and  C_25
REMARK                            x       y       z     vdW  Elec       q    Type
REMARK                         _______ _______ _______ _____ _____    ______ ____
ROOT
ATOM      1  O   UNL     1      35.708 -17.980 -21.040  0.00  0.00    -0.336 OA
ATOM      2  O   UNL     1      35.669 -16.279 -25.419  0.00  0.00    -0.268 OA
ATOM      3  O   UNL     1      32.723 -12.160 -24.898  0.00  0.00    -0.283 OA
ATOM      4  N   UNL     1      35.487 -17.253 -23.326  0.00  0.00    -0.253 N 
ATOM      5  N   UNL     1      34.394 -14.843 -22.361  0.00  0.00    -0.275 N 
ATOM      6  C   UNL     1      34.959 -17.177 -21.960  0.00  0.00    +0.215 C 
ATOM      7  C   UNL     1      35.927 -18.568 -23.827  0.00  0.00    +0.080 C 
ATOM      8  C   UNL     1      36.632 -19.376 -22.737  0.00  0.00    +0.052 C 
ATOM      9  C   UNL     1      35.050 -15.754 -21.435  0.00  0.00    +0.147 C 
ATOM     10  C   UNL     1      35.842 -19.336 -21.444  0.00  0.00    +0.146 C 
ATOM     11  C   UNL     1      35.281 -16.220 -24.252  0.00  0.00    +0.267 C 
ATOM     12  C   UNL     1      34.526 -15.015 -23.742  0.00  0.00    +0.143 C 
ATOM     13  C   UNL     1      34.744 -19.338 -24.426  0.00  0.00    +0.022 C 
ATOM     14  C   UNL     1      33.712 -13.732 -21.885  0.00  0.00    +0.074 C 
ATOM     15  C   UNL     1      33.989 -14.155 -24.637  0.00  0.00    +0.191 C 
ATOM     16  C   UNL     1      33.133 -12.801 -22.653  0.00  0.00    +0.110 C 
ATOM     17  C   UNL     1      33.234 -12.966 -24.127  0.00  0.00    +0.236 C 
ENDROOT
BRANCH  16  20
ATOM     18  O   UNL     1      31.737 -11.866 -21.012  0.00  0.00    -0.270 OA
ATOM     19  N   UNL     1      32.678 -10.469 -22.625  0.00  0.00    -0.297 N 
ATOM     20  C   UNL     1      32.443 -11.686 -22.005  0.00  0.00    +0.251 C 
ATOM     21  H   UNL     1      33.263 -10.455 -23.416  0.00  0.00    +0.150 HD
BRANCH  19  22
ATOM     22  C   UNL     1      32.106  -9.221 -22.172  0.00  0.00    +0.119 C 
BRANCH  22  25
ATOM     23  F   UNL     1      30.430  -7.653 -23.825  0.00  0.00    -0.204 F 
ATOM     24  F   UNL     1      33.989  -4.834 -25.156  0.00  0.00    -0.204 F 
ATOM     25  C   UNL     1      32.607  -8.052 -22.968  0.00  0.00    +0.025 C 
ATOM     26  C   UNL     1      31.726  -7.319 -23.764  0.00  0.00    +0.140 C 
ATOM     27  C   UNL     1      33.955  -7.697 -22.910  0.00  0.00    +0.002 C 
ATOM     28  C   UNL     1      32.193  -6.232 -24.503  0.00  0.00    +0.059 C 
ATOM     29  C   UNL     1      34.422  -6.609 -23.650  0.00  0.00    +0.030 C 
ATOM     30  C   UNL     1      33.541  -5.877 -24.446  0.00  0.00    +0.142 C 
ENDBRANCH  22  25
ENDBRANCH  19  22
ENDBRANCH  16  20
BRANCH  15  31
ATOM     31  O   UNL     1      34.076 -14.307 -26.003  0.00  0.00    -0.502 OA
ATOM     32  H   UNL     1      34.276 -13.569 -26.544  0.00  0.00    +0.292 HD
ENDBRANCH  15  31
TORSDOF 4
ENDMDL
MODEL 9
REMARK VINA RESULT:      -9.8      3.983      9.263
REMARK  Name = 54726191
REMARK  4 active torsions:
REMARK  status: ('A' for Active; 'I' for Inactive)
REMARK    1  A    between atoms: C_15  and  O_31
REMARK    2  A    between atoms: C_16  and  C_20
REMARK    3  A    between atoms: N_19  and  C_22
REMARK    4  A    between atoms: C_22  and  C_25
REMARK                            x       y       z     vdW  Elec       q    Type
REMARK                         _______ _______ _______ _____ _____    ______ ____
ROOT
ATOM      1  O   UNL     1      33.007 -12.782 -20.683  0.00  0.00    -0.336 OA
ATOM      2  O   UNL     1      33.593 -14.712 -24.926  0.00  0.00    -0.268 OA
ATOM      3  O   UNL     1      36.745 -18.569 -23.878  0.00  0.00    -0.283 OA
ATOM      4  N   UNL     1      33.501 -13.614 -22.890  0.00  0.00    -0.253 N 
ATOM      5  N   UNL     1      34.654 -15.881 -21.680  0.00  0.00    -0.275 N 
ATOM      6  C   UNL     1      33.896 -13.576 -21.477  0.00  0.00    +0.215 C 
ATOM      7  C   UNL     1      33.024 -12.364 -23.509  0.00  0.00    +0.080 C 
ATOM      8  C   UNL     1      32.162 -11.552 -22.543  0.00  0.00    +0.052 C 
ATOM      9  C   UNL     1      33.849 -14.972 -20.877  0.00  0.00    +0.147 C 
ATOM     10  C   UNL     1      32.821 -11.463 -21.180  0.00  0.00    +0.146 C 
ATOM     11  C   UNL     1      33.866 -14.678 -23.726  0.00  0.00    +0.267 C 
ATOM     12  C   UNL     1      34.648 -15.795 -23.074  0.00  0.00    +0.143 C 
ATOM     13  C   UNL     1      34.206 -11.543 -24.040  0.00  0.00    +0.022 C 
ATOM     14  C   UNL     1      35.360 -16.911 -21.073  0.00  0.00    +0.074 C 
ATOM     15  C   UNL     1      35.327 -16.660 -23.860  0.00  0.00    +0.191 C 
ATOM     16  C   UNL     1      36.074 -17.837 -21.725  0.00  0.00    +0.110 C 
ATOM     17  C   UNL     1      36.107 -17.762 -23.209  0.00  0.00    +0.236 C 
ENDROOT
BRANCH  16  20
ATOM     18  O   UNL     1      37.875 -18.641 -20.450  0.00  0.00    -0.270 OA
ATOM     19  N   UNL     1      36.059 -20.047 -20.852  0.00  0.00    -0.297 N 
ATOM     20  C   UNL     1      36.770 -18.862 -20.948  0.00  0.00    +0.251 C 
ATOM     21  H   UNL     1      35.182 -20.102 -21.296  0.00  0.00    +0.150 HD
BRANCH  19  22
ATOM     22  C   UNL     1      36.539 -21.208 -20.137  0.00  0.00    +0.119 C 
BRANCH  22  25
ATOM     23  F   UNL     1      37.083 -22.385 -17.622  0.00  0.00    -0.204 F 
ATOM     24  F   UNL     1      32.539 -23.483 -16.892  0.00  0.00    -0.204 F 
ATOM     25  C   UNL     1      35.474 -21.815 -19.271  0.00  0.00    +0.025 C 
ATOM     26  C   UNL     1      35.811 -22.380 -18.040  0.00  0.00    +0.140 C 
ATOM     27  C   UNL     1      34.145 -21.813 -19.697  0.00  0.00    +0.002 C 
ATOM     28  C   UNL     1      34.819 -22.943 -17.237  0.00  0.00    +0.059 C 
ATOM     29  C   UNL     1      33.154 -22.377 -18.893  0.00  0.00    +0.030 C 
ATOM     30  C   UNL     1      33.490 -22.942 -17.663  0.00  0.00    +0.142 C 
ENDBRANCH  22  25
ENDBRANCH  19  22
ENDBRANCH  16  20
BRANCH  15  31
ATOM     31  O   UNL     1      35.366 -16.590 -25.234  0.00  0.00    -0.502 OA
ATOM     32  H   UNL     1      36.142 -16.295 -25.667  0.00  0.00    +0.292 HD
ENDBRANCH  15  31
TORSDOF 4
ENDMDL
