MODEL 1
REMARK VINA RESULT:     -12.4      0.000      0.000
REMARK  Name = 448317
REMARK  6 active torsions:
REMARK  status: ('A' for Active; 'I' for Inactive)
REMARK    1  A    between atoms: C_1  and  C_18
REMARK    2  A    between atoms: C_4  and  N_24
REMARK    3  A    between atoms: C_5  and  S_25
REMARK    4  A    between atoms: S_25  and  C_26
REMARK    5  A    between atoms: C_27  and  O_32
REMARK    6  A    between atoms: O_32  and  C_33
REMARK                            x       y       z     vdW  Elec       q    Type
REMARK                         _______ _______ _______ _____ _____    ______ ____
ROOT
ATOM      1  C   UNL     1      34.591 -20.987 -20.049  0.00  0.00    +0.002 C 
ATOM      2  C   UNL     1      35.873 -20.440 -20.099  0.00  0.00    +0.025 C 
ATOM      3  C   UNL     1      33.667 -20.688 -21.050  0.00  0.00    +0.001 C 
ATOM      4  C   UNL     1      36.232 -19.596 -21.151  0.00  0.00    +0.149 C 
ATOM      5  C   UNL     1      35.308 -19.298 -22.152  0.00  0.00    +0.052 C 
ATOM      6  C   UNL     1      34.025 -19.844 -22.103  0.00  0.00    +0.008 C 
ENDROOT
BRANCH   1  18
ATOM      7  O   UNL     1      38.930 -24.082 -12.487  0.00  0.00    -0.275 OA
ATOM      8  N   UNL     1      35.812 -23.739 -16.214  0.00  0.00    -0.290 N 
ATOM      9  N   UNL     1      37.742 -24.687 -14.387  0.00  0.00    -0.276 N 
ATOM     10  N   UNL     1      33.499 -23.553 -16.854  0.00  0.00    -0.229 NA
ATOM     11  C   UNL     1      35.621 -25.052 -15.581  0.00  0.00    +0.114 C 
ATOM     12  C   UNL     1      36.635 -22.776 -15.465  0.00  0.00    +0.114 C 
ATOM     13  C   UNL     1      36.967 -25.649 -15.174  0.00  0.00    +0.115 C 
ATOM     14  C   UNL     1      37.963 -23.412 -15.063  0.00  0.00    +0.115 C 
ATOM     15  C   UNL     1      34.819 -23.228 -17.057  0.00  0.00    +0.132 C 
ATOM     16  C   UNL     1      38.267 -24.909 -13.116  0.00  0.00    +0.226 C 
ATOM     17  C   UNL     1      35.195 -22.378 -18.114  0.00  0.00    +0.034 C 
ATOM     18  C   UNL     1      34.219 -21.861 -18.960  0.00  0.00    +0.004 C 
ATOM     19  C   UNL     1      37.984 -26.254 -12.496  0.00  0.00    +0.095 C 
ATOM     20  C   UNL     1      32.884 -22.190 -18.754  0.00  0.00    +0.021 C 
ATOM     21  C   UNL     1      32.579 -23.032 -17.697  0.00  0.00    +0.100 C 
ENDBRANCH   1  18
BRANCH   4  24
ATOM     22  O   UNL     1      38.184 -19.032 -22.242  0.00  0.00    -0.126 OA
ATOM     23  O   UNL     1      38.038 -18.634 -20.087  0.00  0.00    -0.126 OA
ATOM     24  N   UNL     1      37.552 -19.060 -21.161  0.00  0.00    +0.058 N 
ENDBRANCH   4  24
BRANCH   5  25
ATOM     25  S   UNL     1      35.703 -18.222 -23.529  0.00  0.00    -0.082 S 
BRANCH  25  26
ATOM     26  C   UNL     1      35.222 -16.634 -22.869  0.00  0.00    +0.063 C 
ATOM     27  C   UNL     1      34.938 -15.554 -23.706  0.00  0.00    +0.144 C 
ATOM     28  C   UNL     1      35.133 -16.483 -21.483  0.00  0.00    +0.010 C 
ATOM     29  C   UNL     1      34.566 -14.326 -23.160  0.00  0.00    +0.037 C 
ATOM     30  C   UNL     1      34.761 -15.254 -20.937  0.00  0.00    +0.001 C 
ATOM     31  C   UNL     1      34.477 -14.175 -21.775  0.00  0.00    +0.003 C 
BRANCH  27  32
ATOM     32  O   UNL     1      35.012 -15.665 -25.063  0.00  0.00    -0.475 OA
BRANCH  32  33
ATOM     33  C   UNL     1      33.779 -15.756 -25.773  0.00  0.00    +0.206 C 
ATOM     34  C   UNL     1      33.658 -14.569 -26.704  0.00  0.00    +0.051 C 
ENDBRANCH  32  33
ENDBRANCH  27  32
ENDBRANCH  25  26
ENDBRANCH   5  25
TORSDOF 6
ENDMDL
MODEL 2
REMARK VINA RESULT:      -9.5      6.695     11.210
REMARK  Name = 448317
REMARK  6 active torsions:
REMARK  status: ('A' for Active; 'I' for Inactive)
REMARK    1  A    between atoms: C_1  and  C_18
REMARK    2  A    between atoms: C_4  and  N_24
REMARK    3  A    between atoms: C_5  and  S_25
REMARK    4  A    between atoms: S_25  and  C_26
REMARK    5  A    between atoms: C_27  and  O_32
REMARK    6  A    between atoms: O_32  and  C_33
REMARK                            x       y       z     vdW  Elec       q    Type
REMARK                         _______ _______ _______ _____ _____    ______ ____
ROOT
ATOM      1  C   UNL     1      34.134 -11.106 -24.543  0.00  0.00    +0.002 C 
ATOM      2  C   UNL     1      33.071 -10.563 -23.821  0.00  0.00    +0.025 C 
ATOM      3  C   UNL     1      35.261 -10.330 -24.814  0.00  0.00    +0.001 C 
ATOM      4  C   UNL     1      33.135  -9.244 -23.369  0.00  0.00    +0.149 C 
ATOM      5  C   UNL     1      34.262  -8.468 -23.640  0.00  0.00    +0.052 C 
ATOM      6  C   UNL     1      35.326  -9.011 -24.362  0.00  0.00    +0.008 C 
ENDROOT
BRANCH   1  18
ATOM      7  O   UNL     1      34.932 -19.373 -20.467  0.00  0.00    -0.275 OA
ATOM      8  N   UNL     1      34.915 -15.869 -23.851  0.00  0.00    -0.290 N 
ATOM      9  N   UNL     1      35.689 -18.015 -22.190  0.00  0.00    -0.276 N 
ATOM     10  N   UNL     1      33.940 -15.113 -25.919  0.00  0.00    -0.229 NA
ATOM     11  C   UNL     1      35.475 -17.085 -24.459  0.00  0.00    +0.114 C 
ATOM     12  C   UNL     1      34.264 -16.043 -22.543  0.00  0.00    +0.114 C 
ATOM     13  C   UNL     1      36.381 -17.810 -23.465  0.00  0.00    +0.115 C 
ATOM     14  C   UNL     1      35.192 -16.783 -21.582  0.00  0.00    +0.115 C 
ATOM     15  C   UNL     1      34.453 -14.836 -24.674  0.00  0.00    +0.132 C 
ATOM     16  C   UNL     1      35.505 -19.238 -21.550  0.00  0.00    +0.226 C 
ATOM     17  C   UNL     1      34.524 -13.510 -24.206  0.00  0.00    +0.034 C 
ATOM     18  C   UNL     1      34.068 -12.472 -25.011  0.00  0.00    +0.004 C 
ATOM     19  C   UNL     1      36.049 -20.455 -22.255  0.00  0.00    +0.095 C 
ATOM     20  C   UNL     1      33.549 -12.754 -26.270  0.00  0.00    +0.021 C 
ATOM     21  C   UNL     1      33.508 -14.078 -26.674  0.00  0.00    +0.100 C 
ENDBRANCH   1  18
BRANCH   4  24
ATOM     22  O   UNL     1      31.046  -8.275 -23.267  0.00  0.00    -0.126 OA
ATOM     23  O   UNL     1      32.068  -8.755 -21.384  0.00  0.00    -0.126 OA
ATOM     24  N   UNL     1      32.027  -8.732 -22.637  0.00  0.00    +0.058 N 
ENDBRANCH   4  24
BRANCH   5  25
ATOM     25  S   UNL     1      34.409  -6.770 -23.090  0.00  0.00    -0.082 S 
BRANCH  25  26
ATOM     26  C   UNL     1      34.249  -5.896 -24.639  0.00  0.00    +0.063 C 
ATOM     27  C   UNL     1      33.020  -5.392 -25.066  0.00  0.00    +0.144 C 
ATOM     28  C   UNL     1      35.386  -5.721 -25.431  0.00  0.00    +0.010 C 
ATOM     29  C   UNL     1      32.927  -4.714 -26.281  0.00  0.00    +0.037 C 
ATOM     30  C   UNL     1      35.292  -5.042 -26.646  0.00  0.00    +0.001 C 
ATOM     31  C   UNL     1      34.063  -4.539 -27.072  0.00  0.00    +0.003 C 
BRANCH  27  32
ATOM     32  O   UNL     1      31.889  -5.542 -24.319  0.00  0.00    -0.475 OA
BRANCH  32  33
ATOM     33  C   UNL     1      31.473  -4.422 -23.541  0.00  0.00    +0.206 C 
ATOM     34  C   UNL     1      30.764  -4.919 -22.300  0.00  0.00    +0.051 C 
ENDBRANCH  32  33
ENDBRANCH  27  32
ENDBRANCH  25  26
ENDBRANCH   5  25
TORSDOF 6
ENDMDL
