MODEL 1
REMARK VINA RESULT:     -12.0      0.000      0.000
REMARK  Name = 6918314
REMARK  8 active torsions:
REMARK  status: ('A' for Active; 'I' for Inactive)
REMARK    1  A    between atoms: N_1  and  C_22
REMARK    2  A    between atoms: N_2  and  C_9
REMARK    3  A    between atoms: C_16  and  C_19
REMARK    4  A    between atoms: C_22  and  C_23
REMARK    5  A    between atoms: C_23  and  C_24
REMARK    6  A    between atoms: C_24  and  C_25
REMARK    7  A    between atoms: C_25  and  C_27
REMARK    8  A    between atoms: C_33  and  C_37
REMARK                            x       y       z     vdW  Elec       q    Type
REMARK                         _______ _______ _______ _____ _____    ______ ____
ROOT
ATOM      1  N   UNL     1      36.341 -20.652 -19.707  0.00  0.00    +0.389 N 
ATOM      2  N   UNL     1      35.555 -19.317 -22.106  0.00  0.00    -0.312 N 
ATOM      3  C   UNL     1      37.354 -20.126 -20.629  0.00  0.00    -0.055 C 
ATOM      4  C   UNL     1      35.168 -21.109 -20.461  0.00  0.00    -0.055 C 
ATOM      5  C   UNL     1      36.805 -18.945 -21.433  0.00  0.00    +0.068 C 
ATOM      6  C   UNL     1      34.546 -19.962 -21.260  0.00  0.00    +0.068 C 
ATOM      7  H   UNL     1      36.054 -19.907 -19.073  0.00  0.00    -0.080 HD
ENDROOT
BRANCH   2   9
ATOM      8  O   UNL     1      34.003 -16.196 -26.395  0.00  0.00    -0.449 OA
ATOM      9  C   UNL     1      35.152 -18.558 -23.212  0.00  0.00    +0.048 C 
ATOM     10  C   UNL     1      35.237 -17.145 -23.182  0.00  0.00    +0.018 C 
ATOM     11  C   UNL     1      34.654 -19.189 -24.374  0.00  0.00    +0.018 C 
ATOM     12  C   UNL     1      34.828 -16.397 -24.301  0.00  0.00    +0.039 C 
ATOM     13  C   UNL     1      34.348 -17.078 -25.415  0.00  0.00    +0.146 C 
ATOM     14  C   UNL     1      34.243 -18.466 -25.498  0.00  0.00    +0.039 C 
ATOM     15  C   UNL     1      34.767 -15.019 -24.635  0.00  0.00    +0.045 C 
ATOM     16  C   UNL     1      34.260 -14.951 -25.912  0.00  0.00    +0.198 C 
BRANCH  16  19
ATOM     17  O   UNL     1      33.911 -13.891 -28.010  0.00  0.00    -0.267 OA
ATOM     18  N   UNL     1      33.788 -12.583 -26.160  0.00  0.00    -0.323 N 
ATOM     19  C   UNL     1      33.981 -13.840 -26.756  0.00  0.00    +0.277 C 
ATOM     20  H   UNL     1      33.593 -11.797 -26.720  0.00  0.00    +0.145 HD
ATOM     21  H   UNL     1      33.848 -12.488 -25.182  0.00  0.00    +0.145 HD
ENDBRANCH  16  19
ENDBRANCH   2   9
BRANCH   1  22
ATOM     22  C   UNL     1      36.894 -21.744 -18.906  0.00  0.00    -0.077 C 
BRANCH  22  23
ATOM     23  C   UNL     1      37.166 -21.271 -17.479  0.00  0.00    -0.022 C 
BRANCH  23  24
ATOM     24  C   UNL     1      36.598 -22.254 -16.454  0.00  0.00    +0.003 C 
BRANCH  24  25
ATOM     25  C   UNL     1      35.306 -22.903 -16.959  0.00  0.00    +0.028 C 
BRANCH  25  27
ATOM     26  N   UNL     1      34.174 -24.896 -14.116  0.00  0.00    -0.312 N 
ATOM     27  C   UNL     1      34.578 -23.642 -15.877  0.00  0.00    -0.006 C 
ATOM     28  C   UNL     1      33.179 -23.677 -15.698  0.00  0.00    +0.011 C 
ATOM     29  C   UNL     1      35.173 -24.389 -14.904  0.00  0.00    +0.058 C 
ATOM     30  C   UNL     1      32.946 -24.476 -14.577  0.00  0.00    +0.048 C 
ATOM     31  C   UNL     1      32.077 -23.113 -16.370  0.00  0.00    +0.011 C 
ATOM     32  C   UNL     1      31.661 -24.742 -14.094  0.00  0.00    +0.015 C 
ATOM     33  C   UNL     1      30.785 -23.370 -15.897  0.00  0.00    +0.069 C 
ATOM     34  C   UNL     1      30.582 -24.172 -14.776  0.00  0.00    +0.012 C 
ATOM     35  H   UNL     1      34.313 -25.475 -13.333  0.00  0.00    +0.152 HD
BRANCH  33  37
ATOM     36  N   UNL     1      28.748 -22.339 -17.125  0.00  0.00    -0.191 NA
ATOM     37  C   UNL     1      29.661 -22.801 -16.575  0.00  0.00    +0.100 C 
ENDBRANCH  33  37
ENDBRANCH  25  27
ENDBRANCH  24  25
ENDBRANCH  23  24
ENDBRANCH  22  23
ENDBRANCH   1  22
TORSDOF 8
ENDMDL
MODEL 2
REMARK VINA RESULT:     -11.8      4.408     10.830
REMARK  Name = 6918314
REMARK  8 active torsions:
REMARK  status: ('A' for Active; 'I' for Inactive)
REMARK    1  A    between atoms: N_1  and  C_22
REMARK    2  A    between atoms: N_2  and  C_9
REMARK    3  A    between atoms: C_16  and  C_19
REMARK    4  A    between atoms: C_22  and  C_23
REMARK    5  A    between atoms: C_23  and  C_24
REMARK    6  A    between atoms: C_24  and  C_25
REMARK    7  A    between atoms: C_25  and  C_27
REMARK    8  A    between atoms: C_33  and  C_37
REMARK                            x       y       z     vdW  Elec       q    Type
REMARK                         _______ _______ _______ _____ _____    ______ ____
ROOT
ATOM      1  N   UNL     1      35.483 -17.154 -24.814  0.00  0.00    +0.389 N 
ATOM      2  N   UNL     1      35.337 -18.932 -22.584  0.00  0.00    -0.312 N 
ATOM      3  C   UNL     1      35.664 -16.647 -23.448  0.00  0.00    -0.055 C 
ATOM      4  C   UNL     1      34.526 -18.265 -24.812  0.00  0.00    -0.055 C 
ATOM      5  C   UNL     1      36.196 -17.743 -22.522  0.00  0.00    +0.068 C 
ATOM      6  C   UNL     1      35.019 -19.415 -23.931  0.00  0.00    +0.068 C 
ATOM      7  H   UNL     1      36.381 -17.493 -25.161  0.00  0.00    -0.080 HD
ENDROOT
BRANCH   2   9
ATOM      8  O   UNL     1      35.377 -22.506 -18.369  0.00  0.00    -0.449 OA
ATOM      9  C   UNL     1      35.386 -19.835 -21.515  0.00  0.00    +0.048 C 
ATOM     10  C   UNL     1      34.193 -20.382 -20.982  0.00  0.00    +0.018 C 
ATOM     11  C   UNL     1      36.624 -20.214 -20.949  0.00  0.00    +0.018 C 
ATOM     12  C   UNL     1      34.259 -21.288 -19.909  0.00  0.00    +0.039 C 
ATOM     13  C   UNL     1      35.509 -21.622 -19.397  0.00  0.00    +0.146 C 
ATOM     14  C   UNL     1      36.713 -21.114 -19.882  0.00  0.00    +0.039 C 
ATOM     15  C   UNL     1      33.319 -22.020 -19.137  0.00  0.00    +0.045 C 
ATOM     16  C   UNL     1      34.047 -22.741 -18.219  0.00  0.00    +0.198 C 
BRANCH  16  19
ATOM     17  O   UNL     1      34.404 -24.449 -16.606  0.00  0.00    -0.267 OA
ATOM     18  N   UNL     1      32.288 -23.658 -16.820  0.00  0.00    -0.323 N 
ATOM     19  C   UNL     1      33.641 -23.642 -17.196  0.00  0.00    +0.277 C 
ATOM     20  H   UNL     1      31.980 -24.272 -16.114  0.00  0.00    +0.145 HD
ATOM     21  H   UNL     1      31.647 -23.056 -17.262  0.00  0.00    +0.145 HD
ENDBRANCH  16  19
ENDBRANCH   2   9
BRANCH   1  22
ATOM     22  C   UNL     1      35.027 -16.084 -25.701  0.00  0.00    -0.077 C 
BRANCH  22  23
ATOM     23  C   UNL     1      33.605 -15.662 -25.335  0.00  0.00    -0.022 C 
BRANCH  23  24
ATOM     24  C   UNL     1      33.498 -14.142 -25.195  0.00  0.00    +0.003 C 
BRANCH  24  25
ATOM     25  C   UNL     1      34.367 -13.626 -24.044  0.00  0.00    +0.028 C 
BRANCH  25  27
ATOM     26  N   UNL     1      32.695 -13.915 -20.810  0.00  0.00    -0.312 N 
ATOM     27  C   UNL     1      33.592 -13.476 -22.769  0.00  0.00    -0.006 C 
ATOM     28  C   UNL     1      32.873 -12.330 -22.371  0.00  0.00    +0.011 C 
ATOM     29  C   UNL     1      33.476 -14.435 -21.808  0.00  0.00    +0.058 C 
ATOM     30  C   UNL     1      32.313 -12.630 -21.127  0.00  0.00    +0.048 C 
ATOM     31  C   UNL     1      32.634 -11.060 -22.933  0.00  0.00    +0.011 C 
ATOM     32  C   UNL     1      31.522 -11.722 -20.416  0.00  0.00    +0.015 C 
ATOM     33  C   UNL     1      31.845 -10.141 -22.232  0.00  0.00    +0.069 C 
ATOM     34  C   UNL     1      31.299 -10.468 -20.993  0.00  0.00    +0.012 C 
ATOM     35  H   UNL     1      32.443 -14.390 -19.986  0.00  0.00    +0.152 HD
BRANCH  33  37
ATOM     36  N   UNL     1      31.396  -7.803 -23.256  0.00  0.00    -0.191 NA
ATOM     37  C   UNL     1      31.598  -8.851 -22.798  0.00  0.00    +0.100 C 
ENDBRANCH  33  37
ENDBRANCH  25  27
ENDBRANCH  24  25
ENDBRANCH  23  24
ENDBRANCH  22  23
ENDBRANCH   1  22
TORSDOF 8
ENDMDL
MODEL 3
REMARK VINA RESULT:     -11.7      3.845      5.918
REMARK  Name = 6918314
REMARK  8 active torsions:
REMARK  status: ('A' for Active; 'I' for Inactive)
REMARK    1  A    between atoms: N_1  and  C_22
REMARK    2  A    between atoms: N_2  and  C_9
REMARK    3  A    between atoms: C_16  and  C_19
REMARK    4  A    between atoms: C_22  and  C_23
REMARK    5  A    between atoms: C_23  and  C_24
REMARK    6  A    between atoms: C_24  and  C_25
REMARK    7  A    between atoms: C_25  and  C_27
REMARK    8  A    between atoms: C_33  and  C_37
REMARK                            x       y       z     vdW  Elec       q    Type
REMARK                         _______ _______ _______ _____ _____    ______ ____
ROOT
ATOM      1  N   UNL     1      35.868 -16.921 -23.043  0.00  0.00    +0.389 N 
ATOM      2  N   UNL     1      34.188 -14.641 -22.673  0.00  0.00    -0.312 N 
ATOM      3  C   UNL     1      35.014 -16.444 -24.136  0.00  0.00    -0.055 C 
ATOM      4  C   UNL     1      35.207 -16.687 -21.754  0.00  0.00    -0.055 C 
ATOM      5  C   UNL     1      34.734 -14.945 -24.001  0.00  0.00    +0.068 C 
ATOM      6  C   UNL     1      34.932 -15.198 -21.538  0.00  0.00    +0.068 C 
ATOM      7  H   UNL     1      36.747 -16.403 -23.060  0.00  0.00    -0.080 HD
ENDROOT
BRANCH   2   9
ATOM      8  O   UNL     1      31.423  -9.884 -22.161  0.00  0.00    -0.449 OA
ATOM      9  C   UNL     1      33.467 -13.452 -22.515  0.00  0.00    +0.048 C 
ATOM     10  C   UNL     1      33.745 -12.329 -23.332  0.00  0.00    +0.018 C 
ATOM     11  C   UNL     1      32.452 -13.351 -21.537  0.00  0.00    +0.018 C 
ATOM     12  C   UNL     1      33.011 -11.142 -23.161  0.00  0.00    +0.039 C 
ATOM     13  C   UNL     1      32.024 -11.107 -22.181  0.00  0.00    +0.146 C 
ATOM     14  C   UNL     1      31.709 -12.180 -21.350  0.00  0.00    +0.039 C 
ATOM     15  C   UNL     1      33.000  -9.858 -23.765  0.00  0.00    +0.045 C 
ATOM     16  C   UNL     1      32.021  -9.135 -23.124  0.00  0.00    +0.198 C 
BRANCH  16  19
ATOM     17  O   UNL     1      31.063  -7.350 -24.367  0.00  0.00    -0.267 OA
ATOM     18  N   UNL     1      31.703  -6.898 -22.237  0.00  0.00    -0.323 N 
ATOM     19  C   UNL     1      31.567  -7.799 -23.306  0.00  0.00    +0.277 C 
ATOM     20  H   UNL     1      31.398  -5.967 -22.336  0.00  0.00    +0.145 HD
ATOM     21  H   UNL     1      32.106  -7.196 -21.390  0.00  0.00    +0.145 HD
ENDBRANCH  16  19
ENDBRANCH   2   9
BRANCH   1  22
ATOM     22  C   UNL     1      36.173 -18.342 -23.213  0.00  0.00    -0.077 C 
BRANCH  22  23
ATOM     23  C   UNL     1      36.571 -18.963 -21.875  0.00  0.00    -0.022 C 
BRANCH  23  24
ATOM     24  C   UNL     1      35.628 -20.105 -21.493  0.00  0.00    +0.003 C 
BRANCH  24  25
ATOM     25  C   UNL     1      36.171 -20.904 -20.305  0.00  0.00    +0.028 C 
BRANCH  25  27
ATOM     26  N   UNL     1      33.148 -22.551 -19.085  0.00  0.00    -0.312 N 
ATOM     27  C   UNL     1      35.090 -21.644 -19.574  0.00  0.00    -0.006 C 
ATOM     28  C   UNL     1      35.219 -22.252 -18.308  0.00  0.00    +0.011 C 
ATOM     29  C   UNL     1      33.823 -21.834 -20.037  0.00  0.00    +0.058 C 
ATOM     30  C   UNL     1      33.977 -22.821 -18.018  0.00  0.00    +0.048 C 
ATOM     31  C   UNL     1      36.261 -22.384 -17.369  0.00  0.00    +0.011 C 
ATOM     32  C   UNL     1      33.723 -23.516 -16.831  0.00  0.00    +0.015 C 
ATOM     33  C   UNL     1      36.022 -23.077 -16.177  0.00  0.00    +0.069 C 
ATOM     34  C   UNL     1      34.772 -23.634 -15.914  0.00  0.00    +0.012 C 
ATOM     35  H   UNL     1      32.208 -22.833 -19.153  0.00  0.00    +0.152 HD
BRANCH  33  37
ATOM     36  N   UNL     1      37.930 -23.326 -14.441  0.00  0.00    -0.191 NA
ATOM     37  C   UNL     1      37.075 -23.214 -15.219  0.00  0.00    +0.100 C 
ENDBRANCH  33  37
ENDBRANCH  25  27
ENDBRANCH  24  25
ENDBRANCH  23  24
ENDBRANCH  22  23
ENDBRANCH   1  22
TORSDOF 8
ENDMDL
MODEL 4
REMARK VINA RESULT:     -11.7      1.661      2.122
REMARK  Name = 6918314
REMARK  8 active torsions:
REMARK  status: ('A' for Active; 'I' for Inactive)
REMARK    1  A    between atoms: N_1  and  C_22
REMARK    2  A    between atoms: N_2  and  C_9
REMARK    3  A    between atoms: C_16  and  C_19
REMARK    4  A    between atoms: C_22  and  C_23
REMARK    5  A    between atoms: C_23  and  C_24
REMARK    6  A    between atoms: C_24  and  C_25
REMARK    7  A    between atoms: C_25  and  C_27
REMARK    8  A    between atoms: C_33  and  C_37
REMARK                            x       y       z     vdW  Elec       q    Type
REMARK                         _______ _______ _______ _____ _____    ______ ____
ROOT
ATOM      1  N   UNL     1      35.960 -21.153 -20.356  0.00  0.00    +0.389 N 
ATOM      2  N   UNL     1      35.510 -18.704 -21.753  0.00  0.00    -0.312 N 
ATOM      3  C   UNL     1      34.595 -20.652 -20.554  0.00  0.00    -0.055 C 
ATOM      4  C   UNL     1      36.887 -20.028 -20.198  0.00  0.00    -0.055 C 
ATOM      5  C   UNL     1      34.508 -19.775 -21.805  0.00  0.00    +0.068 C 
ATOM      6  C   UNL     1      36.877 -19.128 -21.436  0.00  0.00    +0.068 C 
ATOM      7  H   UNL     1      36.235 -21.694 -21.176  0.00  0.00    -0.080 HD
ENDROOT
BRANCH   2   9
ATOM      8  O   UNL     1      34.665 -14.141 -24.754  0.00  0.00    -0.449 OA
ATOM      9  C   UNL     1      35.302 -17.569 -22.545  0.00  0.00    +0.048 C 
ATOM     10  C   UNL     1      35.020 -16.316 -21.947  0.00  0.00    +0.018 C 
ATOM     11  C   UNL     1      35.367 -17.653 -23.954  0.00  0.00    +0.018 C 
ATOM     12  C   UNL     1      34.813 -15.185 -22.756  0.00  0.00    +0.039 C 
ATOM     13  C   UNL     1      34.892 -15.335 -24.137  0.00  0.00    +0.146 C 
ATOM     14  C   UNL     1      35.165 -16.541 -24.779  0.00  0.00    +0.039 C 
ATOM     15  C   UNL     1      34.521 -13.815 -22.532  0.00  0.00    +0.045 C 
ATOM     16  C   UNL     1      34.441 -13.227 -23.773  0.00  0.00    +0.198 C 
BRANCH  16  19
ATOM     17  O   UNL     1      33.282 -11.155 -23.662  0.00  0.00    -0.267 OA
ATOM     18  N   UNL     1      34.945 -11.326 -25.198  0.00  0.00    -0.323 N 
ATOM     19  C   UNL     1      34.176 -11.884 -24.163  0.00  0.00    +0.277 C 
ATOM     20  H   UNL     1      34.781 -10.399 -25.487  0.00  0.00    +0.145 HD
ATOM     21  H   UNL     1      35.646 -11.862 -25.633  0.00  0.00    +0.145 HD
ENDBRANCH  16  19
ENDBRANCH   2   9
BRANCH   1  22
ATOM     22  C   UNL     1      36.018 -22.034 -19.189  0.00  0.00    -0.077 C 
BRANCH  22  23
ATOM     23  C   UNL     1      34.608 -22.389 -18.721  0.00  0.00    -0.022 C 
BRANCH  23  24
ATOM     24  C   UNL     1      34.646 -23.382 -17.558  0.00  0.00    +0.003 C 
BRANCH  24  25
ATOM     25  C   UNL     1      34.141 -22.742 -16.261  0.00  0.00    +0.028 C 
BRANCH  25  27
ATOM     26  N   UNL     1      32.783 -25.177 -13.902  0.00  0.00    -0.312 N 
ATOM     27  C   UNL     1      33.335 -23.696 -15.431  0.00  0.00    -0.006 C 
ATOM     28  C   UNL     1      31.960 -23.967 -15.587  0.00  0.00    +0.011 C 
ATOM     29  C   UNL     1      33.825 -24.440 -14.399  0.00  0.00    +0.058 C 
ATOM     30  C   UNL     1      31.632 -24.907 -14.608  0.00  0.00    +0.048 C 
ATOM     31  C   UNL     1      30.950 -23.514 -16.458  0.00  0.00    +0.011 C 
ATOM     32  C   UNL     1      30.339 -25.420 -14.457  0.00  0.00    +0.015 C 
ATOM     33  C   UNL     1      29.651 -24.018 -16.318  0.00  0.00    +0.069 C 
ATOM     34  C   UNL     1      29.352 -24.956 -15.333  0.00  0.00    +0.012 C 
ATOM     35  H   UNL     1      32.847 -25.807 -13.149  0.00  0.00    +0.152 HD
BRANCH  33  37
ATOM     36  N   UNL     1      27.785 -23.195 -17.916  0.00  0.00    -0.191 NA
ATOM     37  C   UNL     1      28.621 -23.563 -17.200  0.00  0.00    +0.100 C 
ENDBRANCH  33  37
ENDBRANCH  25  27
ENDBRANCH  24  25
ENDBRANCH  23  24
ENDBRANCH  22  23
ENDBRANCH   1  22
TORSDOF 8
ENDMDL
MODEL 5
REMARK VINA RESULT:     -11.5      2.495      4.416
REMARK  Name = 6918314
REMARK  8 active torsions:
REMARK  status: ('A' for Active; 'I' for Inactive)
REMARK    1  A    between atoms: N_1  and  C_22
REMARK    2  A    between atoms: N_2  and  C_9
REMARK    3  A    between atoms: C_16  and  C_19
REMARK    4  A    between atoms: C_22  and  C_23
REMARK    5  A    between atoms: C_23  and  C_24
REMARK    6  A    between atoms: C_24  and  C_25
REMARK    7  A    between atoms: C_25  and  C_27
REMARK    8  A    between atoms: C_33  and  C_37
REMARK                            x       y       z     vdW  Elec       q    Type
REMARK                         _______ _______ _______ _____ _____    ______ ____
ROOT
ATOM      1  N   UNL     1      36.314 -21.064 -20.350  0.00  0.00    +0.389 N 
ATOM      2  N   UNL     1      35.686 -18.647 -21.735  0.00  0.00    -0.312 N 
ATOM      3  C   UNL     1      34.916 -20.682 -20.579  0.00  0.00    -0.055 C 
ATOM      4  C   UNL     1      37.135 -19.863 -20.158  0.00  0.00    -0.055 C 
ATOM      5  C   UNL     1      34.784 -19.801 -21.823  0.00  0.00    +0.068 C 
ATOM      6  C   UNL     1      37.077 -18.954 -21.387  0.00  0.00    +0.068 C 
ATOM      7  H   UNL     1      36.657 -21.568 -21.168  0.00  0.00    -0.080 HD
ENDROOT
BRANCH   2   9
ATOM      8  O   UNL     1      34.540 -14.135 -24.714  0.00  0.00    -0.449 OA
ATOM      9  C   UNL     1      35.398 -17.525 -22.522  0.00  0.00    +0.048 C 
ATOM     10  C   UNL     1      35.166 -16.265 -21.918  0.00  0.00    +0.018 C 
ATOM     11  C   UNL     1      35.333 -17.631 -23.929  0.00  0.00    +0.018 C 
ATOM     12  C   UNL     1      34.878 -15.148 -22.723  0.00  0.00    +0.039 C 
ATOM     13  C   UNL     1      34.830 -15.318 -24.102  0.00  0.00    +0.146 C 
ATOM     14  C   UNL     1      35.049 -16.533 -24.749  0.00  0.00    +0.039 C 
ATOM     15  C   UNL     1      34.600 -13.775 -22.493  0.00  0.00    +0.045 C 
ATOM     16  C   UNL     1      34.403 -13.207 -23.730  0.00  0.00    +0.198 C 
BRANCH  16  19
ATOM     17  O   UNL     1      33.131 -11.201 -23.665  0.00  0.00    -0.267 OA
ATOM     18  N   UNL     1      34.904 -11.252 -25.080  0.00  0.00    -0.323 N 
ATOM     19  C   UNL     1      34.094 -11.872 -24.114  0.00  0.00    +0.277 C 
ATOM     20  H   UNL     1      34.713 -10.329 -25.364  0.00  0.00    +0.145 HD
ATOM     21  H   UNL     1      35.662 -11.741 -25.474  0.00  0.00    +0.145 HD
ENDBRANCH  16  19
ENDBRANCH   2   9
BRANCH   1  22
ATOM     22  C   UNL     1      36.421 -21.950 -19.191  0.00  0.00    -0.077 C 
BRANCH  22  23
ATOM     23  C   UNL     1      37.174 -21.254 -18.059  0.00  0.00    -0.022 C 
BRANCH  23  24
ATOM     24  C   UNL     1      37.074 -22.051 -16.757  0.00  0.00    +0.003 C 
BRANCH  24  25
ATOM     25  C   UNL     1      35.795 -22.893 -16.715  0.00  0.00    +0.028 C 
BRANCH  25  27
ATOM     26  N   UNL     1      34.817 -24.570 -13.622  0.00  0.00    -0.312 N 
ATOM     27  C   UNL     1      35.667 -23.671 -15.439  0.00  0.00    -0.006 C 
ATOM     28  C   UNL     1      36.697 -24.401 -14.812  0.00  0.00    +0.011 C 
ATOM     29  C   UNL     1      34.525 -23.783 -14.704  0.00  0.00    +0.058 C 
ATOM     30  C   UNL     1      36.136 -24.963 -13.663  0.00  0.00    +0.048 C 
ATOM     31  C   UNL     1      38.055 -24.650 -15.095  0.00  0.00    +0.011 C 
ATOM     32  C   UNL     1      36.869 -25.762 -12.779  0.00  0.00    +0.015 C 
ATOM     33  C   UNL     1      38.800 -25.448 -14.220  0.00  0.00    +0.069 C 
ATOM     34  C   UNL     1      38.214 -25.995 -13.080  0.00  0.00    +0.012 C 
ATOM     35  H   UNL     1      34.177 -24.820 -12.917  0.00  0.00    +0.152 HD
BRANCH  33  37
ATOM     36  N   UNL     1      41.298 -25.912 -14.728  0.00  0.00    -0.191 NA
ATOM     37  C   UNL     1      40.179 -25.704 -14.501  0.00  0.00    +0.100 C 
ENDBRANCH  33  37
ENDBRANCH  25  27
ENDBRANCH  24  25
ENDBRANCH  23  24
ENDBRANCH  22  23
ENDBRANCH   1  22
TORSDOF 8
ENDMDL
MODEL 6
REMARK VINA RESULT:     -11.3      4.465     10.900
REMARK  Name = 6918314
REMARK  8 active torsions:
REMARK  status: ('A' for Active; 'I' for Inactive)
REMARK    1  A    between atoms: N_1  and  C_22
REMARK    2  A    between atoms: N_2  and  C_9
REMARK    3  A    between atoms: C_16  and  C_19
REMARK    4  A    between atoms: C_22  and  C_23
REMARK    5  A    between atoms: C_23  and  C_24
REMARK    6  A    between atoms: C_24  and  C_25
REMARK    7  A    between atoms: C_25  and  C_27
REMARK    8  A    between atoms: C_33  and  C_37
REMARK                            x       y       z     vdW  Elec       q    Type
REMARK                         _______ _______ _______ _____ _____    ______ ____
ROOT
ATOM      1  N   UNL     1      35.629 -17.513 -24.345  0.00  0.00    +0.389 N 
ATOM      2  N   UNL     1      35.283 -19.259 -22.112  0.00  0.00    -0.312 N 
ATOM      3  C   UNL     1      35.722 -16.993 -22.976  0.00  0.00    -0.055 C 
ATOM      4  C   UNL     1      34.649 -18.603 -24.400  0.00  0.00    -0.055 C 
ATOM      5  C   UNL     1      36.162 -18.089 -22.002  0.00  0.00    +0.068 C 
ATOM      6  C   UNL     1      35.051 -19.752 -23.473  0.00  0.00    +0.068 C 
ATOM      7  H   UNL     1      36.540 -17.876 -24.623  0.00  0.00    -0.080 HD
ENDROOT
BRANCH   2   9
ATOM      8  O   UNL     1      35.235 -22.736 -17.816  0.00  0.00    -0.449 OA
ATOM      9  C   UNL     1      35.235 -20.149 -21.033  0.00  0.00    +0.048 C 
ATOM     10  C   UNL     1      36.359 -20.316 -20.187  0.00  0.00    +0.018 C 
ATOM     11  C   UNL     1      34.066 -20.898 -20.769  0.00  0.00    +0.018 C 
ATOM     12  C   UNL     1      36.294 -21.214 -19.107  0.00  0.00    +0.039 C 
ATOM     13  C   UNL     1      35.114 -21.920 -18.901  0.00  0.00    +0.146 C 
ATOM     14  C   UNL     1      33.978 -21.796 -19.701  0.00  0.00    +0.039 C 
ATOM     15  C   UNL     1      37.180 -21.634 -18.081  0.00  0.00    +0.045 C 
ATOM     16  C   UNL     1      36.490 -22.555 -17.327  0.00  0.00    +0.198 C 
BRANCH  16  19
ATOM     17  O   UNL     1      36.078 -23.703 -15.287  0.00  0.00    -0.267 OA
ATOM     18  N   UNL     1      38.230 -23.612 -16.003  0.00  0.00    -0.323 N 
ATOM     19  C   UNL     1      36.871 -23.305 -16.178  0.00  0.00    +0.277 C 
ATOM     20  H   UNL     1      38.520 -24.129 -15.218  0.00  0.00    +0.145 HD
ATOM     21  H   UNL     1      38.892 -23.310 -16.666  0.00  0.00    +0.145 HD
ENDBRANCH  16  19
ENDBRANCH   2   9
BRANCH   1  22
ATOM     22  C   UNL     1      35.261 -16.445 -25.275  0.00  0.00    -0.077 C 
BRANCH  22  23
ATOM     23  C   UNL     1      33.818 -16.006 -25.035  0.00  0.00    -0.022 C 
BRANCH  23  24
ATOM     24  C   UNL     1      33.699 -14.480 -25.020  0.00  0.00    +0.003 C 
BRANCH  24  25
ATOM     25  C   UNL     1      34.505 -13.870 -23.869  0.00  0.00    +0.028 C 
BRANCH  25  27
ATOM     26  N   UNL     1      32.676 -13.990 -20.711  0.00  0.00    -0.312 N 
ATOM     27  C   UNL     1      33.672 -13.652 -22.642  0.00  0.00    -0.006 C 
ATOM     28  C   UNL     1      32.948 -12.482 -22.334  0.00  0.00    +0.011 C 
ATOM     29  C   UNL     1      33.498 -14.564 -21.644  0.00  0.00    +0.058 C 
ATOM     30  C   UNL     1      32.325 -12.718 -21.106  0.00  0.00    +0.048 C 
ATOM     31  C   UNL     1      32.751 -11.239 -22.966  0.00  0.00    +0.011 C 
ATOM     32  C   UNL     1      31.511 -11.769 -20.478  0.00  0.00    +0.015 C 
ATOM     33  C   UNL     1      31.939 -10.280 -22.349  0.00  0.00    +0.069 C 
ATOM     34  C   UNL     1      31.330 -10.543 -21.124  0.00  0.00    +0.012 C 
ATOM     35  H   UNL     1      32.380 -14.423 -19.878  0.00  0.00    +0.152 HD
BRANCH  33  37
ATOM     36  N   UNL     1      31.567  -7.989 -23.502  0.00  0.00    -0.191 NA
ATOM     37  C   UNL     1      31.734  -9.016 -22.986  0.00  0.00    +0.100 C 
ENDBRANCH  33  37
ENDBRANCH  25  27
ENDBRANCH  24  25
ENDBRANCH  23  24
ENDBRANCH  22  23
ENDBRANCH   1  22
TORSDOF 8
ENDMDL
MODEL 7
REMARK VINA RESULT:     -11.3      5.055     11.656
REMARK  Name = 6918314
REMARK  8 active torsions:
REMARK  status: ('A' for Active; 'I' for Inactive)
REMARK    1  A    between atoms: N_1  and  C_22
REMARK    2  A    between atoms: N_2  and  C_9
REMARK    3  A    between atoms: C_16  and  C_19
REMARK    4  A    between atoms: C_22  and  C_23
REMARK    5  A    between atoms: C_23  and  C_24
REMARK    6  A    between atoms: C_24  and  C_25
REMARK    7  A    between atoms: C_25  and  C_27
REMARK    8  A    between atoms: C_33  and  C_37
REMARK                            x       y       z     vdW  Elec       q    Type
REMARK                         _______ _______ _______ _____ _____    ______ ____
ROOT
ATOM      1  N   UNL     1      34.899 -20.762 -21.106  0.00  0.00    +0.389 N 
ATOM      2  N   UNL     1      35.022 -21.998 -18.534  0.00  0.00    -0.312 N 
ATOM      3  C   UNL     1      36.098 -20.623 -20.273  0.00  0.00    -0.055 C 
ATOM      4  C   UNL     1      33.705 -20.828 -20.256  0.00  0.00    -0.055 C 
ATOM      5  C   UNL     1      36.247 -21.811 -19.320  0.00  0.00    +0.068 C 
ATOM      6  C   UNL     1      33.773 -22.022 -19.302  0.00  0.00    +0.068 C 
ATOM      7  H   UNL     1      34.968 -21.628 -21.642  0.00  0.00    -0.080 HD
ENDROOT
BRANCH   2   9
ATOM      8  O   UNL     1      35.528 -24.771 -13.781  0.00  0.00    -0.449 OA
ATOM      9  C   UNL     1      35.113 -22.711 -17.333  0.00  0.00    +0.048 C 
ATOM     10  C   UNL     1      36.332 -22.752 -16.613  0.00  0.00    +0.018 C 
ATOM     11  C   UNL     1      33.993 -23.402 -16.819  0.00  0.00    +0.018 C 
ATOM     12  C   UNL     1      36.407 -23.473 -15.407  0.00  0.00    +0.039 C 
ATOM     13  C   UNL     1      35.268 -24.131 -14.955  0.00  0.00    +0.146 C 
ATOM     14  C   UNL     1      34.044 -24.124 -15.623  0.00  0.00    +0.039 C 
ATOM     15  C   UNL     1      37.413 -23.736 -14.442  0.00  0.00    +0.045 C 
ATOM     16  C   UNL     1      36.830 -24.525 -13.478  0.00  0.00    +0.198 C 
BRANCH  16  19
ATOM     17  O   UNL     1      37.038 -26.219 -11.825  0.00  0.00    -0.267 OA
ATOM     18  N   UNL     1      38.274 -24.338 -11.535  0.00  0.00    -0.323 N 
ATOM     19  C   UNL     1      37.353 -25.091 -12.282  0.00  0.00    +0.277 C 
ATOM     20  H   UNL     1      38.652 -24.706 -10.704  0.00  0.00    +0.145 HD
ATOM     21  H   UNL     1      38.541 -23.442 -11.843  0.00  0.00    +0.145 HD
ENDBRANCH  16  19
ENDBRANCH   2   9
BRANCH   1  22
ATOM     22  C   UNL     1      34.797 -19.649 -22.049  0.00  0.00    -0.077 C 
BRANCH  22  23
ATOM     23  C   UNL     1      35.922 -18.644 -21.808  0.00  0.00    -0.022 C 
BRANCH  23  24
ATOM     24  C   UNL     1      35.715 -17.374 -22.634  0.00  0.00    +0.003 C 
BRANCH  24  25
ATOM     25  C   UNL     1      35.129 -16.243 -21.783  0.00  0.00    +0.028 C 
BRANCH  25  27
ATOM     26  N   UNL     1      34.217 -13.801 -24.339  0.00  0.00    -0.312 N 
ATOM     27  C   UNL     1      34.617 -15.107 -22.617  0.00  0.00    -0.006 C 
ATOM     28  C   UNL     1      33.824 -14.037 -22.156  0.00  0.00    +0.011 C 
ATOM     29  C   UNL     1      34.849 -14.952 -23.951  0.00  0.00    +0.058 C 
ATOM     30  C   UNL     1      33.582 -13.222 -23.263  0.00  0.00    +0.048 C 
ATOM     31  C   UNL     1      33.280 -13.667 -20.910  0.00  0.00    +0.011 C 
ATOM     32  C   UNL     1      32.822 -12.050 -23.186  0.00  0.00    +0.015 C 
ATOM     33  C   UNL     1      32.516 -12.498 -20.818  0.00  0.00    +0.069 C 
ATOM     34  C   UNL     1      32.292 -11.703 -21.940  0.00  0.00    +0.012 C 
ATOM     35  H   UNL     1      34.216 -13.440 -25.255  0.00  0.00    +0.152 HD
BRANCH  33  37
ATOM     36  N   UNL     1      31.512 -11.805 -18.532  0.00  0.00    -0.191 NA
ATOM     37  C   UNL     1      31.962 -12.116 -19.556  0.00  0.00    +0.100 C 
ENDBRANCH  33  37
ENDBRANCH  25  27
ENDBRANCH  24  25
ENDBRANCH  23  24
ENDBRANCH  22  23
ENDBRANCH   1  22
TORSDOF 8
ENDMDL
MODEL 8
REMARK VINA RESULT:     -11.2      5.523      8.988
REMARK  Name = 6918314
REMARK  8 active torsions:
REMARK  status: ('A' for Active; 'I' for Inactive)
REMARK    1  A    between atoms: N_1  and  C_22
REMARK    2  A    between atoms: N_2  and  C_9
REMARK    3  A    between atoms: C_16  and  C_19
REMARK    4  A    between atoms: C_22  and  C_23
REMARK    5  A    between atoms: C_23  and  C_24
REMARK    6  A    between atoms: C_24  and  C_25
REMARK    7  A    between atoms: C_25  and  C_27
REMARK    8  A    between atoms: C_33  and  C_37
REMARK                            x       y       z     vdW  Elec       q    Type
REMARK                         _______ _______ _______ _____ _____    ______ ____
ROOT
ATOM      1  N   UNL     1      33.706 -14.003 -23.395  0.00  0.00    +0.389 N 
ATOM      2  N   UNL     1      33.102 -11.274 -22.810  0.00  0.00    -0.312 N 
ATOM      3  C   UNL     1      33.283 -13.609 -22.046  0.00  0.00    -0.055 C 
ATOM      4  C   UNL     1      34.484 -12.922 -24.010  0.00  0.00    -0.055 C 
ATOM      5  C   UNL     1      32.414 -12.350 -22.088  0.00  0.00    +0.068 C 
ATOM      6  C   UNL     1      33.657 -11.639 -24.117  0.00  0.00    +0.068 C 
ATOM      7  H   UNL     1      32.876 -14.175 -23.964  0.00  0.00    -0.080 HD
ENDROOT
BRANCH   2   9
ATOM      8  O   UNL     1      31.496  -6.044 -22.025  0.00  0.00    -0.449 OA
ATOM      9  C   UNL     1      32.692  -9.956 -22.573  0.00  0.00    +0.048 C 
ATOM     10  C   UNL     1      32.586  -9.033 -23.643  0.00  0.00    +0.018 C 
ATOM     11  C   UNL     1      32.378  -9.524 -21.265  0.00  0.00    +0.018 C 
ATOM     12  C   UNL     1      32.173  -7.714 -23.389  0.00  0.00    +0.039 C 
ATOM     13  C   UNL     1      31.877  -7.351 -22.078  0.00  0.00    +0.146 C 
ATOM     14  C   UNL     1      31.964  -8.217 -20.989  0.00  0.00    +0.039 C 
ATOM     15  C   UNL     1      31.954  -6.549 -24.170  0.00  0.00    +0.045 C 
ATOM     16  C   UNL     1      31.546  -5.567 -23.297  0.00  0.00    +0.198 C 
BRANCH  16  19
ATOM     17  O   UNL     1      31.505  -3.533 -24.526  0.00  0.00    -0.267 OA
ATOM     18  N   UNL     1      30.450  -3.546 -22.517  0.00  0.00    -0.323 N 
ATOM     19  C   UNL     1      31.190  -4.206 -23.511  0.00  0.00    +0.277 C 
ATOM     20  H   UNL     1      30.190  -2.605 -22.639  0.00  0.00    +0.145 HD
ATOM     21  H   UNL     1      30.191  -4.025 -21.697  0.00  0.00    +0.145 HD
ENDBRANCH  16  19
ENDBRANCH   2   9
BRANCH   1  22
ATOM     22  C   UNL     1      34.489 -15.237 -23.348  0.00  0.00    -0.077 C 
BRANCH  22  23
ATOM     23  C   UNL     1      34.417 -15.964 -24.690  0.00  0.00    -0.022 C 
BRANCH  23  24
ATOM     24  C   UNL     1      35.318 -17.199 -24.699  0.00  0.00    +0.003 C 
BRANCH  24  25
ATOM     25  C   UNL     1      34.814 -18.266 -23.722  0.00  0.00    +0.028 C 
BRANCH  25  27
ATOM     26  N   UNL     1      37.842 -18.982 -21.812  0.00  0.00    -0.312 N 
ATOM     27  C   UNL     1      35.885 -18.728 -22.780  0.00  0.00    -0.006 C 
ATOM     28  C   UNL     1      35.706 -19.619 -21.702  0.00  0.00    +0.011 C 
ATOM     29  C   UNL     1      37.192 -18.347 -22.836  0.00  0.00    +0.058 C 
ATOM     30  C   UNL     1      36.959 -19.765 -21.102  0.00  0.00    +0.048 C 
ATOM     31  C   UNL     1      34.610 -20.322 -21.164  0.00  0.00    +0.011 C 
ATOM     32  C   UNL     1      37.171 -20.585 -19.988  0.00  0.00    +0.015 C 
ATOM     33  C   UNL     1      34.808 -21.145 -20.049  0.00  0.00    +0.069 C 
ATOM     34  C   UNL     1      36.069 -21.273 -19.471  0.00  0.00    +0.012 C 
ATOM     35  H   UNL     1      38.802 -18.893 -21.611  0.00  0.00    +0.152 HD
BRANCH  33  37
ATOM     36  N   UNL     1      32.801 -22.446 -19.052  0.00  0.00    -0.191 NA
ATOM     37  C   UNL     1      33.700 -21.863 -19.498  0.00  0.00    +0.100 C 
ENDBRANCH  33  37
ENDBRANCH  25  27
ENDBRANCH  24  25
ENDBRANCH  23  24
ENDBRANCH  22  23
ENDBRANCH   1  22
TORSDOF 8
ENDMDL
MODEL 9
REMARK VINA RESULT:     -11.1      4.221     10.867
REMARK  Name = 6918314
REMARK  8 active torsions:
REMARK  status: ('A' for Active; 'I' for Inactive)
REMARK    1  A    between atoms: N_1  and  C_22
REMARK    2  A    between atoms: N_2  and  C_9
REMARK    3  A    between atoms: C_16  and  C_19
REMARK    4  A    between atoms: C_22  and  C_23
REMARK    5  A    between atoms: C_23  and  C_24
REMARK    6  A    between atoms: C_24  and  C_25
REMARK    7  A    between atoms: C_25  and  C_27
REMARK    8  A    between atoms: C_33  and  C_37
REMARK                            x       y       z     vdW  Elec       q    Type
REMARK                         _______ _______ _______ _____ _____    ______ ____
ROOT
ATOM      1  N   UNL     1      35.000 -16.600 -25.092  0.00  0.00    +0.389 N 
ATOM      2  N   UNL     1      35.056 -18.472 -22.935  0.00  0.00    -0.312 N 
ATOM      3  C   UNL     1      35.026 -16.130 -23.702  0.00  0.00    -0.055 C 
ATOM      4  C   UNL     1      34.248 -17.857 -25.180  0.00  0.00    -0.055 C 
ATOM      5  C   UNL     1      35.694 -17.158 -22.787  0.00  0.00    +0.068 C 
ATOM      6  C   UNL     1      34.889 -18.944 -24.313  0.00  0.00    +0.068 C 
ATOM      7  H   UNL     1      35.957 -16.768 -25.402  0.00  0.00    -0.080 HD
ENDROOT
BRANCH   2   9
ATOM      8  O   UNL     1      35.507 -22.147 -18.833  0.00  0.00    -0.449 OA
ATOM      9  C   UNL     1      35.209 -19.399 -21.897  0.00  0.00    +0.048 C 
ATOM     10  C   UNL     1      34.076 -20.018 -21.315  0.00  0.00    +0.018 C 
ATOM     11  C   UNL     1      36.493 -19.730 -21.411  0.00  0.00    +0.018 C 
ATOM     12  C   UNL     1      34.246 -20.947 -20.273  0.00  0.00    +0.039 C 
ATOM     13  C   UNL     1      35.537 -21.231 -19.841  0.00  0.00    +0.146 C 
ATOM     14  C   UNL     1      36.686 -20.651 -20.377  0.00  0.00    +0.039 C 
ATOM     15  C   UNL     1      33.387 -21.744 -19.472  0.00  0.00    +0.045 C 
ATOM     16  C   UNL     1      34.200 -22.451 -18.617  0.00  0.00    +0.198 C 
BRANCH  16  19
ATOM     17  O   UNL     1      34.752 -24.053 -16.950  0.00  0.00    -0.267 OA
ATOM     18  N   UNL     1      32.547 -23.645 -17.299  0.00  0.00    -0.323 N 
ATOM     19  C   UNL     1      33.897 -23.398 -17.598  0.00  0.00    +0.277 C 
ATOM     20  H   UNL     1      32.309 -24.295 -16.599  0.00  0.00    +0.145 HD
ATOM     21  H   UNL     1      31.839 -23.169 -17.789  0.00  0.00    +0.145 HD
ENDBRANCH  16  19
ENDBRANCH   2   9
BRANCH   1  22
ATOM     22  C   UNL     1      34.409 -15.587 -25.965  0.00  0.00    -0.077 C 
BRANCH  22  23
ATOM     23  C   UNL     1      33.606 -14.580 -25.143  0.00  0.00    -0.022 C 
BRANCH  23  24
ATOM     24  C   UNL     1      33.644 -13.190 -25.781  0.00  0.00    +0.003 C 
BRANCH  24  25
ATOM     25  C   UNL     1      34.477 -12.214 -24.944  0.00  0.00    +0.028 C 
BRANCH  25  27
ATOM     26  N   UNL     1      32.515  -9.595 -23.325  0.00  0.00    -0.312 N 
ATOM     27  C   UNL     1      33.625 -11.337 -24.076  0.00  0.00    -0.006 C 
ATOM     28  C   UNL     1      33.034 -11.713 -22.852  0.00  0.00    +0.011 C 
ATOM     29  C   UNL     1      33.300 -10.043 -24.353  0.00  0.00    +0.058 C 
ATOM     30  C   UNL     1      32.335 -10.594 -22.394  0.00  0.00    +0.048 C 
ATOM     31  C   UNL     1      33.014 -12.889 -22.077  0.00  0.00    +0.011 C 
ATOM     32  C   UNL     1      31.616 -10.592 -21.194  0.00  0.00    +0.015 C 
ATOM     33  C   UNL     1      32.298 -12.901 -20.874  0.00  0.00    +0.069 C 
ATOM     34  C   UNL     1      31.610 -11.770 -20.441  0.00  0.00    +0.012 C 
ATOM     35  H   UNL     1      32.133  -8.689 -23.260  0.00  0.00    +0.152 HD
BRANCH  33  37
ATOM     36  N   UNL     1      32.256 -15.058 -19.438  0.00  0.00    -0.191 NA
ATOM     37  C   UNL     1      32.275 -14.092 -20.081  0.00  0.00    +0.100 C 
ENDBRANCH  33  37
ENDBRANCH  25  27
ENDBRANCH  24  25
ENDBRANCH  23  24
ENDBRANCH  22  23
ENDBRANCH   1  22
TORSDOF 8
ENDMDL
