MODEL 1
REMARK VINA RESULT:     -11.7      0.000      0.000
REMARK  Name = 6852141
REMARK  6 active torsions:
REMARK  status: ('A' for Active; 'I' for Inactive)
REMARK    1  A    between atoms: C_3  and  N_18
REMARK    2  A    between atoms: C_7  and  C_31
REMARK    3  A    between atoms: C_9  and  C_13
REMARK    4  A    between atoms: C_19  and  C_21
REMARK    5  A    between atoms: C_24  and  O_28
REMARK    6  A    between atoms: C_31  and  O_32
REMARK                            x       y       z     vdW  Elec       q    Type
REMARK                         _______ _______ _______ _____ _____    ______ ____
ROOT
ATOM      1  C   UNL     1      32.025 -23.823 -15.679  0.00  0.00    +0.014 C 
ATOM      2  C   UNL     1      31.807 -24.606 -14.521  0.00  0.00    +0.001 C 
ATOM      3  C   UNL     1      33.321 -23.360 -15.961  0.00  0.00    +0.051 C 
ATOM      4  C   UNL     1      30.941 -23.525 -16.520  0.00  0.00    +0.004 C 
ATOM      5  C   UNL     1      32.891 -24.905 -13.679  0.00  0.00    +0.007 C 
ATOM      6  C   UNL     1      34.386 -23.667 -15.114  0.00  0.00    +0.021 C 
ATOM      7  C   UNL     1      34.171 -24.437 -13.975  0.00  0.00    +0.077 C 
ATOM      8  C   UNL     1      30.511 -25.068 -14.238  0.00  0.00    +0.000 C 
ATOM      9  C   UNL     1      29.661 -23.992 -16.224  0.00  0.00    +0.031 C 
ATOM     10  C   UNL     1      29.446 -24.763 -15.086  0.00  0.00    +0.003 C 
ENDROOT
BRANCH   9  13
ATOM     11  N   UNL     1      28.166 -22.357 -17.346  0.00  0.00    -0.343 N 
ATOM     12  N   UNL     1      27.878 -24.649 -17.698  0.00  0.00    -0.285 NA
ATOM     13  C   UNL     1      28.549 -23.675 -17.107  0.00  0.00    +0.117 C 
ATOM     14  H   UNL     1      27.411 -22.164 -17.947  0.00  0.00    +0.144 HD
ATOM     15  H   UNL     1      28.652 -21.617 -16.912  0.00  0.00    +0.144 HD
ATOM     16  H   UNL     1      27.126 -24.437 -18.295  0.00  0.00    +0.188 HD
ENDBRANCH   9  13
BRANCH   3  18
ATOM     17  O   UNL     1      33.913 -24.179 -18.783  0.00  0.00    -0.270 OA
ATOM     18  N   UNL     1      33.597 -22.580 -17.091  0.00  0.00    -0.280 N 
ATOM     19  C   UNL     1      33.867 -23.019 -18.390  0.00  0.00    +0.249 C 
ATOM     20  H   UNL     1      33.601 -21.606 -16.953  0.00  0.00    +0.155 HD
BRANCH  19  21
ATOM     21  C   UNL     1      34.153 -21.943 -19.375  0.00  0.00    +0.053 C 
ATOM     22  C   UNL     1      35.435 -21.455 -19.519  0.00  0.00    +0.016 C 
ATOM     23  C   UNL     1      33.097 -21.462 -20.125  0.00  0.00    +0.004 C 
ATOM     24  C   UNL     1      35.674 -20.445 -20.451  0.00  0.00    +0.130 C 
ATOM     25  C   UNL     1      36.568 -21.988 -18.699  0.00  0.00    +0.034 C 
ATOM     26  C   UNL     1      33.336 -20.452 -21.057  0.00  0.00    +0.003 C 
ATOM     27  C   UNL     1      34.624 -19.945 -21.219  0.00  0.00    +0.036 C 
BRANCH  24  28
ATOM     28  O   UNL     1      36.926 -19.937 -20.626  0.00  0.00    -0.506 OA
ATOM     29  H   UNL     1      37.248 -19.772 -21.490  0.00  0.00    +0.292 HD
ENDBRANCH  24  28
ENDBRANCH  19  21
ENDBRANCH   3  18
BRANCH   7  31
ATOM     30  O   UNL     1      35.173 -24.990 -11.882  0.00  0.00    -0.245 OA
ATOM     31  C   UNL     1      35.284 -24.755 -13.092  0.00  0.00    +0.341 C 
BRANCH  31  32
ATOM     32  O   UNL     1      36.475 -24.761 -13.766  0.00  0.00    -0.441 OA
ATOM     33  C   UNL     1      37.283 -25.936 -13.639  0.00  0.00    +0.256 C 
ENDBRANCH  31  32
ENDBRANCH   7  31
TORSDOF 6
ENDMDL
MODEL 2
REMARK VINA RESULT:     -11.5      2.515      5.321
REMARK  Name = 6852141
REMARK  6 active torsions:
REMARK  status: ('A' for Active; 'I' for Inactive)
REMARK    1  A    between atoms: C_3  and  N_18
REMARK    2  A    between atoms: C_7  and  C_31
REMARK    3  A    between atoms: C_9  and  C_13
REMARK    4  A    between atoms: C_19  and  C_21
REMARK    5  A    between atoms: C_24  and  O_28
REMARK    6  A    between atoms: C_31  and  O_32
REMARK                            x       y       z     vdW  Elec       q    Type
REMARK                         _______ _______ _______ _____ _____    ______ ____
ROOT
ATOM      1  C   UNL     1      32.376 -23.541 -15.844  0.00  0.00    +0.014 C 
ATOM      2  C   UNL     1      31.345 -24.157 -15.097  0.00  0.00    +0.001 C 
ATOM      3  C   UNL     1      32.051 -22.846 -17.021  0.00  0.00    +0.051 C 
ATOM      4  C   UNL     1      33.703 -23.638 -15.394  0.00  0.00    +0.004 C 
ATOM      5  C   UNL     1      30.018 -24.060 -15.547  0.00  0.00    +0.007 C 
ATOM      6  C   UNL     1      30.727 -22.759 -17.452  0.00  0.00    +0.021 C 
ATOM      7  C   UNL     1      29.713 -23.366 -16.717  0.00  0.00    +0.077 C 
ATOM      8  C   UNL     1      31.671 -24.853 -13.921  0.00  0.00    +0.000 C 
ATOM      9  C   UNL     1      34.008 -24.333 -14.224  0.00  0.00    +0.031 C 
ATOM     10  C   UNL     1      32.994 -24.939 -13.488  0.00  0.00    +0.003 C 
ENDROOT
BRANCH   9  13
ATOM     11  N   UNL     1      36.141 -23.280 -13.510  0.00  0.00    -0.343 N 
ATOM     12  N   UNL     1      35.950 -25.607 -13.604  0.00  0.00    -0.285 NA
ATOM     13  C   UNL     1      35.387 -24.423 -13.771  0.00  0.00    +0.117 C 
ATOM     14  H   UNL     1      37.072 -23.363 -13.205  0.00  0.00    +0.144 HD
ATOM     15  H   UNL     1      35.740 -22.388 -13.632  0.00  0.00    +0.144 HD
ATOM     16  H   UNL     1      36.883 -25.670 -13.298  0.00  0.00    +0.188 HD
ENDBRANCH   9  13
BRANCH   3  18
ATOM     17  O   UNL     1      33.728 -23.921 -19.261  0.00  0.00    -0.270 OA
ATOM     18  N   UNL     1      33.029 -22.217 -17.802  0.00  0.00    -0.280 N 
ATOM     19  C   UNL     1      33.783 -22.772 -18.840  0.00  0.00    +0.249 C 
ATOM     20  H   UNL     1      33.205 -21.272 -17.595  0.00  0.00    +0.155 HD
BRANCH  19  21
ATOM     21  C   UNL     1      34.771 -21.853 -19.464  0.00  0.00    +0.053 C 
ATOM     22  C   UNL     1      34.360 -20.916 -20.390  0.00  0.00    +0.016 C 
ATOM     23  C   UNL     1      36.093 -21.976 -19.082  0.00  0.00    +0.004 C 
ATOM     24  C   UNL     1      35.309 -20.067 -20.959  0.00  0.00    +0.130 C 
ATOM     25  C   UNL     1      32.924 -20.796 -20.792  0.00  0.00    +0.034 C 
ATOM     26  C   UNL     1      37.042 -21.127 -19.651  0.00  0.00    +0.003 C 
ATOM     27  C   UNL     1      36.649 -20.173 -20.589  0.00  0.00    +0.036 C 
BRANCH  24  28
ATOM     28  O   UNL     1      34.945 -19.127 -21.876  0.00  0.00    -0.506 OA
ATOM     29  H   UNL     1      34.363 -19.355 -22.575  0.00  0.00    +0.292 HD
ENDBRANCH  24  28
ENDBRANCH  19  21
ENDBRANCH   3  18
BRANCH   7  31
ATOM     30  O   UNL     1      27.708 -24.201 -17.704  0.00  0.00    -0.245 OA
ATOM     31  C   UNL     1      28.333 -23.274 -17.170  0.00  0.00    +0.341 C 
BRANCH  31  32
ATOM     32  O   UNL     1      27.806 -22.034 -16.933  0.00  0.00    -0.441 OA
ATOM     33  C   UNL     1      26.598 -21.701 -17.625  0.00  0.00    +0.256 C 
ENDBRANCH  31  32
ENDBRANCH   7  31
TORSDOF 6
ENDMDL
MODEL 3
REMARK VINA RESULT:     -11.4      2.412      5.008
REMARK  Name = 6852141
REMARK  6 active torsions:
REMARK  status: ('A' for Active; 'I' for Inactive)
REMARK    1  A    between atoms: C_3  and  N_18
REMARK    2  A    between atoms: C_7  and  C_31
REMARK    3  A    between atoms: C_9  and  C_13
REMARK    4  A    between atoms: C_19  and  C_21
REMARK    5  A    between atoms: C_24  and  O_28
REMARK    6  A    between atoms: C_31  and  O_32
REMARK                            x       y       z     vdW  Elec       q    Type
REMARK                         _______ _______ _______ _____ _____    ______ ____
ROOT
ATOM      1  C   UNL     1      33.629 -23.578 -15.613  0.00  0.00    +0.014 C 
ATOM      2  C   UNL     1      33.102 -24.381 -14.574  0.00  0.00    +0.001 C 
ATOM      3  C   UNL     1      32.773 -23.114 -16.624  0.00  0.00    +0.051 C 
ATOM      4  C   UNL     1      34.998 -23.265 -15.611  0.00  0.00    +0.004 C 
ATOM      5  C   UNL     1      31.733 -24.695 -14.575  0.00  0.00    +0.007 C 
ATOM      6  C   UNL     1      31.415 -23.435 -16.610  0.00  0.00    +0.021 C 
ATOM      7  C   UNL     1      30.896 -24.224 -15.588  0.00  0.00    +0.077 C 
ATOM      8  C   UNL     1      33.959 -24.846 -13.563  0.00  0.00    +0.000 C 
ATOM      9  C   UNL     1      35.835 -23.735 -14.599  0.00  0.00    +0.031 C 
ATOM     10  C   UNL     1      35.316 -24.524 -13.576  0.00  0.00    +0.003 C 
ENDROOT
BRANCH   9  13
ATOM     11  N   UNL     1      37.995 -23.446 -15.788  0.00  0.00    -0.343 N 
ATOM     12  N   UNL     1      37.853 -23.047 -13.489  0.00  0.00    -0.285 NA
ATOM     13  C   UNL     1      37.250 -23.400 -14.611  0.00  0.00    +0.117 C 
ATOM     14  H   UNL     1      38.952 -23.216 -15.774  0.00  0.00    +0.144 HD
ATOM     15  H   UNL     1      37.564 -23.710 -16.633  0.00  0.00    +0.144 HD
ATOM     16  H   UNL     1      38.811 -22.820 -13.496  0.00  0.00    +0.188 HD
ENDBRANCH   9  13
BRANCH   3  18
ATOM     17  O   UNL     1      33.971 -23.894 -19.259  0.00  0.00    -0.270 OA
ATOM     18  N   UNL     1      33.238 -22.317 -17.679  0.00  0.00    -0.280 N 
ATOM     19  C   UNL     1      33.791 -22.739 -18.891  0.00  0.00    +0.249 C 
ATOM     20  H   UNL     1      33.168 -21.344 -17.549  0.00  0.00    +0.155 HD
BRANCH  19  21
ATOM     21  C   UNL     1      34.221 -21.646 -19.803  0.00  0.00    +0.053 C 
ATOM     22  C   UNL     1      35.533 -21.218 -19.803  0.00  0.00    +0.016 C 
ATOM     23  C   UNL     1      33.269 -21.091 -20.634  0.00  0.00    +0.004 C 
ATOM     24  C   UNL     1      35.909 -20.191 -20.669  0.00  0.00    +0.130 C 
ATOM     25  C   UNL     1      36.553 -21.831 -18.896  0.00  0.00    +0.034 C 
ATOM     26  C   UNL     1      33.644 -20.064 -21.500  0.00  0.00    +0.003 C 
ATOM     27  C   UNL     1      34.964 -19.615 -21.517  0.00  0.00    +0.036 C 
BRANCH  24  28
ATOM     28  O   UNL     1      37.194 -19.739 -20.702  0.00  0.00    -0.506 OA
ATOM     29  H   UNL     1      37.395 -18.877 -20.395  0.00  0.00    +0.292 HD
ENDBRANCH  24  28
ENDBRANCH  19  21
ENDBRANCH   3  18
BRANCH   7  31
ATOM     30  O   UNL     1      28.959 -25.372 -14.801  0.00  0.00    -0.245 OA
ATOM     31  C   UNL     1      29.480 -24.558 -15.575  0.00  0.00    +0.341 C 
BRANCH  31  32
ATOM     32  O   UNL     1      28.790 -23.860 -16.528  0.00  0.00    -0.441 OA
ATOM     33  C   UNL     1      27.923 -22.819 -16.066  0.00  0.00    +0.256 C 
ENDBRANCH  31  32
ENDBRANCH   7  31
TORSDOF 6
ENDMDL
MODEL 4
REMARK VINA RESULT:     -10.7      2.646      6.263
REMARK  Name = 6852141
REMARK  6 active torsions:
REMARK  status: ('A' for Active; 'I' for Inactive)
REMARK    1  A    between atoms: C_3  and  N_18
REMARK    2  A    between atoms: C_7  and  C_31
REMARK    3  A    between atoms: C_9  and  C_13
REMARK    4  A    between atoms: C_19  and  C_21
REMARK    5  A    between atoms: C_24  and  O_28
REMARK    6  A    between atoms: C_31  and  O_32
REMARK                            x       y       z     vdW  Elec       q    Type
REMARK                         _______ _______ _______ _____ _____    ______ ____
ROOT
ATOM      1  C   UNL     1      35.231 -22.386 -17.838  0.00  0.00    +0.014 C 
ATOM      2  C   UNL     1      36.619 -22.113 -17.879  0.00  0.00    +0.001 C 
ATOM      3  C   UNL     1      34.712 -23.143 -16.774  0.00  0.00    +0.051 C 
ATOM      4  C   UNL     1      34.403 -21.897 -18.861  0.00  0.00    +0.004 C 
ATOM      5  C   UNL     1      37.447 -22.602 -16.856  0.00  0.00    +0.007 C 
ATOM      6  C   UNL     1      35.550 -23.620 -15.765  0.00  0.00    +0.021 C 
ATOM      7  C   UNL     1      36.915 -23.351 -15.807  0.00  0.00    +0.077 C 
ATOM      8  C   UNL     1      37.138 -21.358 -18.944  0.00  0.00    +0.000 C 
ATOM      9  C   UNL     1      34.936 -21.148 -19.910  0.00  0.00    +0.031 C 
ATOM     10  C   UNL     1      36.301 -20.878 -19.951  0.00  0.00    +0.003 C 
ENDROOT
BRANCH   9  13
ATOM     11  N   UNL     1      32.685 -20.839 -20.911  0.00  0.00    -0.343 N 
ATOM     12  N   UNL     1      34.579 -20.000 -21.992  0.00  0.00    -0.285 NA
ATOM     13  C   UNL     1      34.064 -20.648 -20.961  0.00  0.00    +0.117 C 
ATOM     14  H   UNL     1      32.113 -20.493 -21.633  0.00  0.00    +0.144 HD
ATOM     15  H   UNL     1      32.282 -21.323 -20.153  0.00  0.00    +0.144 HD
ATOM     16  H   UNL     1      33.991 -19.661 -22.704  0.00  0.00    +0.188 HD
ENDBRANCH   9  13
BRANCH   3  18
ATOM     17  O   UNL     1      32.670 -22.283 -14.754  0.00  0.00    -0.270 OA
ATOM     18  N   UNL     1      33.348 -23.446 -16.680  0.00  0.00    -0.280 N 
ATOM     19  C   UNL     1      32.439 -23.015 -15.710  0.00  0.00    +0.249 C 
ATOM     20  H   UNL     1      32.987 -24.035 -17.381  0.00  0.00    +0.155 HD
BRANCH  19  21
ATOM     21  C   UNL     1      31.055 -23.535 -15.864  0.00  0.00    +0.053 C 
ATOM     22  C   UNL     1      30.629 -24.610 -15.111  0.00  0.00    +0.016 C 
ATOM     23  C   UNL     1      30.231 -22.908 -16.778  0.00  0.00    +0.004 C 
ATOM     24  C   UNL     1      29.325 -25.077 -15.277  0.00  0.00    +0.130 C 
ATOM     25  C   UNL     1      31.535 -25.278 -14.125  0.00  0.00    +0.034 C 
ATOM     26  C   UNL     1      28.927 -23.375 -16.944  0.00  0.00    +0.003 C 
ATOM     27  C   UNL     1      28.475 -24.459 -16.193  0.00  0.00    +0.036 C 
BRANCH  24  28
ATOM     28  O   UNL     1      28.864 -26.135 -14.551  0.00  0.00    -0.506 OA
ATOM     29  H   UNL     1      28.001 -26.112 -14.187  0.00  0.00    +0.292 HD
ENDBRANCH  24  28
ENDBRANCH  19  21
ENDBRANCH   3  18
BRANCH   7  31
ATOM     30  O   UNL     1      37.968 -23.286 -13.668  0.00  0.00    -0.245 OA
ATOM     31  C   UNL     1      37.786 -23.851 -14.754  0.00  0.00    +0.341 C 
BRANCH  31  32
ATOM     32  O   UNL     1      38.384 -25.028 -15.113  0.00  0.00    -0.441 OA
ATOM     33  C   UNL     1      39.315 -25.591 -14.183  0.00  0.00    +0.256 C 
ENDBRANCH  31  32
ENDBRANCH   7  31
TORSDOF 6
ENDMDL
MODEL 5
REMARK VINA RESULT:     -10.4      2.033      6.649
REMARK  Name = 6852141
REMARK  6 active torsions:
REMARK  status: ('A' for Active; 'I' for Inactive)
REMARK    1  A    between atoms: C_3  and  N_18
REMARK    2  A    between atoms: C_7  and  C_31
REMARK    3  A    between atoms: C_9  and  C_13
REMARK    4  A    between atoms: C_19  and  C_21
REMARK    5  A    between atoms: C_24  and  O_28
REMARK    6  A    between atoms: C_31  and  O_32
REMARK                            x       y       z     vdW  Elec       q    Type
REMARK                         _______ _______ _______ _____ _____    ______ ____
ROOT
ATOM      1  C   UNL     1      33.430 -23.176 -16.506  0.00  0.00    +0.014 C 
ATOM      2  C   UNL     1      32.584 -22.756 -17.559  0.00  0.00    +0.001 C 
ATOM      3  C   UNL     1      34.821 -23.045 -16.648  0.00  0.00    +0.051 C 
ATOM      4  C   UNL     1      32.860 -23.715 -15.341  0.00  0.00    +0.004 C 
ATOM      5  C   UNL     1      33.154 -22.216 -18.724  0.00  0.00    +0.007 C 
ATOM      6  C   UNL     1      35.370 -22.505 -17.812  0.00  0.00    +0.021 C 
ATOM      7  C   UNL     1      34.538 -22.092 -18.848  0.00  0.00    +0.077 C 
ATOM      8  C   UNL     1      31.193 -22.888 -17.417  0.00  0.00    +0.000 C 
ATOM      9  C   UNL     1      31.476 -23.839 -15.217  0.00  0.00    +0.031 C 
ATOM     10  C   UNL     1      30.644 -23.425 -16.253  0.00  0.00    +0.003 C 
ENDROOT
BRANCH   9  13
ATOM     11  N   UNL     1      30.027 -25.482 -14.049  0.00  0.00    -0.343 N 
ATOM     12  N   UNL     1      31.206 -23.876 -12.829  0.00  0.00    -0.285 NA
ATOM     13  C   UNL     1      30.902 -24.399 -14.004  0.00  0.00    +0.117 C 
ATOM     14  H   UNL     1      29.650 -25.846 -13.216  0.00  0.00    +0.144 HD
ATOM     15  H   UNL     1      29.786 -25.884 -14.916  0.00  0.00    +0.144 HD
ATOM     16  H   UNL     1      30.819 -24.253 -12.007  0.00  0.00    +0.188 HD
ENDBRANCH   9  13
BRANCH   3  18
ATOM     17  O   UNL     1      35.768 -25.781 -15.873  0.00  0.00    -0.270 OA
ATOM     18  N   UNL     1      35.708 -23.444 -15.640  0.00  0.00    -0.280 N 
ATOM     19  C   UNL     1      36.115 -24.743 -15.322  0.00  0.00    +0.249 C 
ATOM     20  H   UNL     1      36.089 -22.723 -15.089  0.00  0.00    +0.155 HD
BRANCH  19  21
ATOM     21  C   UNL     1      37.049 -24.849 -14.171  0.00  0.00    +0.053 C 
ATOM     22  C   UNL     1      36.598 -24.622 -12.887  0.00  0.00    +0.016 C 
ATOM     23  C   UNL     1      38.363 -25.178 -14.439  0.00  0.00    +0.004 C 
ATOM     24  C   UNL     1      37.497 -24.729 -11.826  0.00  0.00    +0.130 C 
ATOM     25  C   UNL     1      35.170 -24.267 -12.614  0.00  0.00    +0.034 C 
ATOM     26  C   UNL     1      39.262 -25.284 -13.377  0.00  0.00    +0.003 C 
ATOM     27  C   UNL     1      38.828 -25.060 -12.072  0.00  0.00    +0.036 C 
BRANCH  24  28
ATOM     28  O   UNL     1      37.092 -24.515 -10.542  0.00  0.00    -0.506 OA
ATOM     29  H   UNL     1      36.474 -25.096 -10.142  0.00  0.00    +0.292 HD
ENDBRANCH  24  28
ENDBRANCH  19  21
ENDBRANCH   3  18
BRANCH   7  31
ATOM     30  O   UNL     1      36.255 -21.774 -20.473  0.00  0.00    -0.245 OA
ATOM     31  C   UNL     1      35.112 -21.531 -20.062  0.00  0.00    +0.341 C 
BRANCH  31  32
ATOM     32  O   UNL     1      34.232 -20.698 -20.697  0.00  0.00    -0.441 OA
ATOM     33  C   UNL     1      34.783 -19.768 -21.635  0.00  0.00    +0.256 C 
ENDBRANCH  31  32
ENDBRANCH   7  31
TORSDOF 6
ENDMDL
MODEL 6
REMARK VINA RESULT:     -10.1      2.555      7.229
REMARK  Name = 6852141
REMARK  6 active torsions:
REMARK  status: ('A' for Active; 'I' for Inactive)
REMARK    1  A    between atoms: C_3  and  N_18
REMARK    2  A    between atoms: C_7  and  C_31
REMARK    3  A    between atoms: C_9  and  C_13
REMARK    4  A    between atoms: C_19  and  C_21
REMARK    5  A    between atoms: C_24  and  O_28
REMARK    6  A    between atoms: C_31  and  O_32
REMARK                            x       y       z     vdW  Elec       q    Type
REMARK                         _______ _______ _______ _____ _____    ______ ____
ROOT
ATOM      1  C   UNL     1      35.525 -23.247 -16.375  0.00  0.00    +0.014 C 
ATOM      2  C   UNL     1      36.840 -22.804 -16.652  0.00  0.00    +0.001 C 
ATOM      3  C   UNL     1      34.488 -22.911 -17.261  0.00  0.00    +0.051 C 
ATOM      4  C   UNL     1      35.286 -24.010 -15.222  0.00  0.00    +0.004 C 
ATOM      5  C   UNL     1      37.081 -22.041 -17.806  0.00  0.00    +0.007 C 
ATOM      6  C   UNL     1      34.744 -22.152 -18.403  0.00  0.00    +0.021 C 
ATOM      7  C   UNL     1      36.038 -21.717 -18.675  0.00  0.00    +0.077 C 
ATOM      8  C   UNL     1      37.878 -23.139 -15.766  0.00  0.00    +0.000 C 
ATOM      9  C   UNL     1      36.329 -24.333 -14.353  0.00  0.00    +0.031 C 
ATOM     10  C   UNL     1      37.622 -23.899 -14.625  0.00  0.00    +0.003 C 
ENDROOT
BRANCH   9  13
ATOM     11  N   UNL     1      36.913 -26.161 -12.777  0.00  0.00    -0.343 N 
ATOM     12  N   UNL     1      34.996 -24.871 -12.426  0.00  0.00    -0.285 NA
ATOM     13  C   UNL     1      36.064 -25.126 -13.163  0.00  0.00    +0.117 C 
ATOM     14  H   UNL     1      36.715 -26.685 -11.968  0.00  0.00    +0.144 HD
ATOM     15  H   UNL     1      37.712 -26.369 -13.316  0.00  0.00    +0.144 HD
ATOM     16  H   UNL     1      34.815 -25.407 -11.620  0.00  0.00    +0.188 HD
ENDBRANCH   9  13
BRANCH   3  18
ATOM     17  O   UNL     1      32.564 -22.151 -15.091  0.00  0.00    -0.270 OA
ATOM     18  N   UNL     1      33.166 -23.319 -17.038  0.00  0.00    -0.280 N 
ATOM     19  C   UNL     1      32.312 -22.929 -16.003  0.00  0.00    +0.249 C 
ATOM     20  H   UNL     1      32.796 -23.958 -17.689  0.00  0.00    +0.155 HD
BRANCH  19  21
ATOM     21  C   UNL     1      30.967 -23.563 -16.021  0.00  0.00    +0.053 C 
ATOM     22  C   UNL     1      30.714 -24.675 -15.245  0.00  0.00    +0.016 C 
ATOM     23  C   UNL     1      30.003 -23.000 -16.832  0.00  0.00    +0.004 C 
ATOM     24  C   UNL     1      29.443 -25.249 -15.281  0.00  0.00    +0.130 C 
ATOM     25  C   UNL     1      31.771 -25.273 -14.370  0.00  0.00    +0.034 C 
ATOM     26  C   UNL     1      28.732 -23.574 -16.869  0.00  0.00    +0.003 C 
ATOM     27  C   UNL     1      28.453 -24.698 -16.093  0.00  0.00    +0.036 C 
BRANCH  24  28
ATOM     28  O   UNL     1      29.150 -26.348 -14.529  0.00  0.00    -0.506 OA
ATOM     29  H   UNL     1      29.573 -26.476 -13.702  0.00  0.00    +0.292 HD
ENDBRANCH  24  28
ENDBRANCH  19  21
ENDBRANCH   3  18
BRANCH   7  31
ATOM     30  O   UNL     1      37.249 -20.136 -19.986  0.00  0.00    -0.245 OA
ATOM     31  C   UNL     1      36.303 -20.925 -19.866  0.00  0.00    +0.341 C 
BRANCH  31  32
ATOM     32  O   UNL     1      35.374 -21.160 -20.843  0.00  0.00    -0.441 OA
ATOM     33  C   UNL     1      34.745 -20.014 -21.427  0.00  0.00    +0.256 C 
ENDBRANCH  31  32
ENDBRANCH   7  31
TORSDOF 6
ENDMDL
MODEL 7
REMARK VINA RESULT:     -10.0      2.874      6.319
REMARK  Name = 6852141
REMARK  6 active torsions:
REMARK  status: ('A' for Active; 'I' for Inactive)
REMARK    1  A    between atoms: C_3  and  N_18
REMARK    2  A    between atoms: C_7  and  C_31
REMARK    3  A    between atoms: C_9  and  C_13
REMARK    4  A    between atoms: C_19  and  C_21
REMARK    5  A    between atoms: C_24  and  O_28
REMARK    6  A    between atoms: C_31  and  O_32
REMARK                            x       y       z     vdW  Elec       q    Type
REMARK                         _______ _______ _______ _____ _____    ______ ____
ROOT
ATOM      1  C   UNL     1      35.810 -23.404 -15.885  0.00  0.00    +0.014 C 
ATOM      2  C   UNL     1      37.180 -23.327 -15.543  0.00  0.00    +0.001 C 
ATOM      3  C   UNL     1      34.925 -24.079 -15.028  0.00  0.00    +0.051 C 
ATOM      4  C   UNL     1      35.363 -22.804 -17.073  0.00  0.00    +0.004 C 
ATOM      5  C   UNL     1      37.627 -23.926 -14.354  0.00  0.00    +0.007 C 
ATOM      6  C   UNL     1      35.386 -24.669 -13.850  0.00  0.00    +0.021 C 
ATOM      7  C   UNL     1      36.735 -24.593 -13.514  0.00  0.00    +0.077 C 
ATOM      8  C   UNL     1      38.065 -22.652 -16.400  0.00  0.00    +0.000 C 
ATOM      9  C   UNL     1      36.256 -22.137 -17.912  0.00  0.00    +0.031 C 
ATOM     10  C   UNL     1      37.604 -22.060 -17.576  0.00  0.00    +0.003 C 
ENDROOT
BRANCH   9  13
ATOM     11  N   UNL     1      34.518 -21.819 -19.657  0.00  0.00    -0.343 N 
ATOM     12  N   UNL     1      36.543 -20.660 -19.787  0.00  0.00    -0.285 NA
ATOM     13  C   UNL     1      35.777 -21.520 -19.139  0.00  0.00    +0.117 C 
ATOM     14  H   UNL     1      34.214 -21.390 -20.489  0.00  0.00    +0.144 HD
ATOM     15  H   UNL     1      33.933 -22.460 -19.191  0.00  0.00    +0.144 HD
ATOM     16  H   UNL     1      36.221 -20.242 -20.618  0.00  0.00    +0.188 HD
ENDBRANCH   9  13
BRANCH   3  18
ATOM     17  O   UNL     1      32.657 -22.225 -14.393  0.00  0.00    -0.270 OA
ATOM     18  N   UNL     1      33.558 -24.189 -15.314  0.00  0.00    -0.280 N 
ATOM     19  C   UNL     1      32.540 -23.288 -14.992  0.00  0.00    +0.249 C 
ATOM     20  H   UNL     1      33.283 -24.999 -15.801  0.00  0.00    +0.155 HD
BRANCH  19  21
ATOM     21  C   UNL     1      31.175 -23.702 -15.409  0.00  0.00    +0.053 C 
ATOM     22  C   UNL     1      30.491 -24.663 -14.693  0.00  0.00    +0.016 C 
ATOM     23  C   UNL     1      30.631 -23.093 -16.523  0.00  0.00    +0.004 C 
ATOM     24  C   UNL     1      29.211 -25.031 -15.107  0.00  0.00    +0.130 C 
ATOM     25  C   UNL     1      31.094 -25.313 -13.487  0.00  0.00    +0.034 C 
ATOM     26  C   UNL     1      29.351 -23.461 -16.937  0.00  0.00    +0.003 C 
ATOM     27  C   UNL     1      28.642 -24.430 -16.229  0.00  0.00    +0.036 C 
BRANCH  24  28
ATOM     28  O   UNL     1      28.501 -25.975 -14.427  0.00  0.00    -0.506 OA
ATOM     29  H   UNL     1      28.749 -26.878 -14.482  0.00  0.00    +0.292 HD
ENDBRANCH  24  28
ENDBRANCH  19  21
ENDBRANCH   3  18
BRANCH   7  31
ATOM     30  O   UNL     1      37.600 -26.383 -12.196  0.00  0.00    -0.245 OA
ATOM     31  C   UNL     1      37.213 -25.210 -12.286  0.00  0.00    +0.341 C 
BRANCH  31  32
ATOM     32  O   UNL     1      37.185 -24.331 -11.238  0.00  0.00    -0.441 OA
ATOM     33  C   UNL     1      36.014 -24.344 -10.414  0.00  0.00    +0.256 C 
ENDBRANCH  31  32
ENDBRANCH   7  31
TORSDOF 6
ENDMDL
MODEL 8
REMARK VINA RESULT:      -9.8      2.430      7.740
REMARK  Name = 6852141
REMARK  6 active torsions:
REMARK  status: ('A' for Active; 'I' for Inactive)
REMARK    1  A    between atoms: C_3  and  N_18
REMARK    2  A    between atoms: C_7  and  C_31
REMARK    3  A    between atoms: C_9  and  C_13
REMARK    4  A    between atoms: C_19  and  C_21
REMARK    5  A    between atoms: C_24  and  O_28
REMARK    6  A    between atoms: C_31  and  O_32
REMARK                            x       y       z     vdW  Elec       q    Type
REMARK                         _______ _______ _______ _____ _____    ______ ____
ROOT
ATOM      1  C   UNL     1      35.344 -22.641 -17.362  0.00  0.00    +0.014 C 
ATOM      2  C   UNL     1      36.309 -21.955 -18.137  0.00  0.00    +0.001 C 
ATOM      3  C   UNL     1      34.011 -22.682 -17.803  0.00  0.00    +0.051 C 
ATOM      4  C   UNL     1      35.740 -23.265 -16.168  0.00  0.00    +0.004 C 
ATOM      5  C   UNL     1      35.914 -21.331 -19.331  0.00  0.00    +0.007 C 
ATOM      6  C   UNL     1      33.636 -22.056 -18.992  0.00  0.00    +0.021 C 
ATOM      7  C   UNL     1      34.585 -21.381 -19.755  0.00  0.00    +0.077 C 
ATOM      8  C   UNL     1      37.642 -21.914 -17.695  0.00  0.00    +0.000 C 
ATOM      9  C   UNL     1      37.068 -23.215 -15.745  0.00  0.00    +0.031 C 
ATOM     10  C   UNL     1      38.017 -22.541 -16.507  0.00  0.00    +0.003 C 
ENDROOT
BRANCH   9  13
ATOM     11  N   UNL     1      36.614 -23.894 -13.400  0.00  0.00    -0.343 N 
ATOM     12  N   UNL     1      38.646 -24.447 -14.414  0.00  0.00    -0.285 NA
ATOM     13  C   UNL     1      37.462 -23.868 -14.506  0.00  0.00    +0.117 C 
ATOM     14  H   UNL     1      36.900 -24.342 -12.571  0.00  0.00    +0.144 HD
ATOM     15  H   UNL     1      35.729 -23.465 -13.448  0.00  0.00    +0.144 HD
ATOM     16  H   UNL     1      38.914 -24.890 -13.577  0.00  0.00    +0.188 HD
ENDBRANCH   9  13
BRANCH   3  18
ATOM     17  O   UNL     1      31.094 -22.059 -17.509  0.00  0.00    -0.270 OA
ATOM     18  N   UNL     1      33.013 -23.343 -17.077  0.00  0.00    -0.280 N 
ATOM     19  C   UNL     1      31.660 -23.006 -16.976  0.00  0.00    +0.249 C 
ATOM     20  H   UNL     1      33.299 -24.142 -16.578  0.00  0.00    +0.155 HD
BRANCH  19  21
ATOM     21  C   UNL     1      30.851 -23.892 -16.099  0.00  0.00    +0.053 C 
ATOM     22  C   UNL     1      31.226 -24.102 -14.788  0.00  0.00    +0.016 C 
ATOM     23  C   UNL     1      29.730 -24.485 -16.645  0.00  0.00    +0.004 C 
ATOM     24  C   UNL     1      30.447 -24.939 -13.988  0.00  0.00    +0.130 C 
ATOM     25  C   UNL     1      32.444 -23.452 -14.211  0.00  0.00    +0.034 C 
ATOM     26  C   UNL     1      28.951 -25.322 -15.845  0.00  0.00    +0.003 C 
ATOM     27  C   UNL     1      29.310 -25.548 -14.517  0.00  0.00    +0.036 C 
BRANCH  24  28
ATOM     28  O   UNL     1      30.781 -25.172 -12.687  0.00  0.00    -0.506 OA
ATOM     29  H   UNL     1      31.219 -24.509 -12.190  0.00  0.00    +0.292 HD
ENDBRANCH  24  28
ENDBRANCH  19  21
ENDBRANCH   3  18
BRANCH   7  31
ATOM     30  O   UNL     1      33.018 -20.548 -21.348  0.00  0.00    -0.245 OA
ATOM     31  C   UNL     1      34.191 -20.729 -20.994  0.00  0.00    +0.341 C 
BRANCH  31  32
ATOM     32  O   UNL     1      35.280 -20.338 -21.725  0.00  0.00    -0.441 OA
ATOM     33  C   UNL     1      35.032 -19.493 -22.853  0.00  0.00    +0.256 C 
ENDBRANCH  31  32
ENDBRANCH   7  31
TORSDOF 6
ENDMDL
MODEL 9
REMARK VINA RESULT:      -9.8      1.676      2.621
REMARK  Name = 6852141
REMARK  6 active torsions:
REMARK  status: ('A' for Active; 'I' for Inactive)
REMARK    1  A    between atoms: C_3  and  N_18
REMARK    2  A    between atoms: C_7  and  C_31
REMARK    3  A    between atoms: C_9  and  C_13
REMARK    4  A    between atoms: C_19  and  C_21
REMARK    5  A    between atoms: C_24  and  O_28
REMARK    6  A    between atoms: C_31  and  O_32
REMARK                            x       y       z     vdW  Elec       q    Type
REMARK                         _______ _______ _______ _____ _____    ______ ____
ROOT
ATOM      1  C   UNL     1      34.352 -23.489 -15.462  0.00  0.00    +0.014 C 
ATOM      2  C   UNL     1      34.341 -24.301 -14.303  0.00  0.00    +0.001 C 
ATOM      3  C   UNL     1      35.580 -23.160 -16.058  0.00  0.00    +0.051 C 
ATOM      4  C   UNL     1      33.134 -23.030 -15.990  0.00  0.00    +0.004 C 
ATOM      5  C   UNL     1      35.558 -24.760 -13.774  0.00  0.00    +0.007 C 
ATOM      6  C   UNL     1      36.780 -23.626 -15.520  0.00  0.00    +0.021 C 
ATOM      7  C   UNL     1      36.769 -24.424 -14.380  0.00  0.00    +0.077 C 
ATOM      8  C   UNL     1      33.112 -24.629 -13.706  0.00  0.00    +0.000 C 
ATOM      9  C   UNL     1      31.924 -23.367 -15.385  0.00  0.00    +0.031 C 
ATOM     10  C   UNL     1      31.913 -24.165 -14.245  0.00  0.00    +0.003 C 
ENDROOT
BRANCH   9  13
ATOM     11  N   UNL     1      30.534 -22.642 -17.311  0.00  0.00    -0.343 N 
ATOM     12  N   UNL     1      29.637 -22.661 -15.153  0.00  0.00    -0.285 NA
ATOM     13  C   UNL     1      30.672 -22.883 -15.945  0.00  0.00    +0.117 C 
ATOM     14  H   UNL     1      29.678 -22.316 -17.670  0.00  0.00    +0.144 HD
ATOM     15  H   UNL     1      31.295 -22.799 -17.917  0.00  0.00    +0.144 HD
ATOM     16  H   UNL     1      28.790 -22.334 -15.531  0.00  0.00    +0.188 HD
ENDBRANCH   9  13
BRANCH   3  18
ATOM     17  O   UNL     1      34.447 -23.593 -18.799  0.00  0.00    -0.270 OA
ATOM     18  N   UNL     1      35.653 -22.359 -17.205  0.00  0.00    -0.280 N 
ATOM     19  C   UNL     1      35.102 -22.613 -18.464  0.00  0.00    +0.249 C 
ATOM     20  H   UNL     1      36.154 -21.516 -17.112  0.00  0.00    +0.155 HD
BRANCH  19  21
ATOM     21  C   UNL     1      35.379 -21.579 -19.495  0.00  0.00    +0.053 C 
ATOM     22  C   UNL     1      34.347 -21.047 -20.241  0.00  0.00    +0.016 C 
ATOM     23  C   UNL     1      36.690 -21.182 -19.671  0.00  0.00    +0.004 C 
ATOM     24  C   UNL     1      34.637 -20.078 -21.202  0.00  0.00    +0.130 C 
ATOM     25  C   UNL     1      32.932 -21.488 -20.038  0.00  0.00    +0.034 C 
ATOM     26  C   UNL     1      36.980 -20.213 -20.632  0.00  0.00    +0.003 C 
ATOM     27  C   UNL     1      35.953 -19.662 -21.396  0.00  0.00    +0.036 C 
BRANCH  24  28
ATOM     28  O   UNL     1      33.646 -19.526 -21.958  0.00  0.00    -0.506 OA
ATOM     29  H   UNL     1      32.763 -19.525 -21.645  0.00  0.00    +0.292 HD
ENDBRANCH  24  28
ENDBRANCH  19  21
ENDBRANCH   3  18
BRANCH   7  31
ATOM     30  O   UNL     1      38.109 -25.622 -12.812  0.00  0.00    -0.245 OA
ATOM     31  C   UNL     1      38.022 -24.908 -13.819  0.00  0.00    +0.341 C 
BRANCH  31  32
ATOM     32  O   UNL     1      39.098 -24.476 -14.546  0.00  0.00    -0.441 OA
ATOM     33  C   UNL     1      40.019 -25.475 -14.994  0.00  0.00    +0.256 C 
ENDBRANCH  31  32
ENDBRANCH   7  31
TORSDOF 6
ENDMDL
