MODEL 1
REMARK VINA RESULT:     -11.8      0.000      0.000
REMARK  Name = 11224409
REMARK  8 active torsions:
REMARK  status: ('A' for Active; 'I' for Inactive)
REMARK    1  A    between atoms: C_2  and  N_10
REMARK    2  A    between atoms: C_5  and  C_20
REMARK    3  A    between atoms: C_11  and  C_14
REMARK    4  A    between atoms: C_14  and  N_16
REMARK    5  A    between atoms: C_21  and  C_26
REMARK    6  A    between atoms: C_26  and  N_27
REMARK    7  A    between atoms: N_27  and  C_30
REMARK    8  A    between atoms: C_30  and  C_34
REMARK                            x       y       z     vdW  Elec       q    Type
REMARK                         _______ _______ _______ _____ _____    ______ ____
ROOT
ATOM      1  F   UNL     1      37.402 -19.869 -21.153  0.00  0.00    -0.204 F 
ATOM      2  C   UNL     1      35.005 -21.709 -19.133  0.00  0.00    +0.059 C 
ATOM      3  C   UNL     1      36.217 -21.213 -19.616  0.00  0.00    +0.045 C 
ATOM      4  C   UNL     1      33.806 -21.327 -19.736  0.00  0.00    +0.015 C 
ATOM      5  C   UNL     1      35.031 -19.955 -21.303  0.00  0.00    +0.028 C 
ATOM      6  C   UNL     1      36.229 -20.337 -20.701  0.00  0.00    +0.141 C 
ATOM      7  C   UNL     1      33.818 -20.449 -20.820  0.00  0.00    +0.004 C 
ENDROOT
BRANCH   2  10
ATOM      8  O   UNL     1      35.597 -23.768 -16.189  0.00  0.00    -0.434 OA
ATOM      9  O   UNL     1      37.120 -22.314 -17.033  0.00  0.00    -0.226 OA
ATOM     10  N   UNL     1      34.992 -22.604 -18.027  0.00  0.00    -0.221 N 
ATOM     11  C   UNL     1      34.200 -24.025 -16.380  0.00  0.00    +0.210 C 
ATOM     12  C   UNL     1      33.914 -23.523 -17.780  0.00  0.00    +0.147 C 
ATOM     13  C   UNL     1      36.007 -22.817 -17.097  0.00  0.00    +0.409 C 
BRANCH  11  14
ATOM     14  C   UNL     1      33.413 -23.287 -15.306  0.00  0.00    +0.135 C 
BRANCH  14  16
ATOM     15  O   UNL     1      30.984 -23.647 -13.756  0.00  0.00    -0.275 OA
ATOM     16  N   UNL     1      32.066 -23.039 -15.728  0.00  0.00    -0.301 N 
ATOM     17  C   UNL     1      30.955 -23.240 -14.915  0.00  0.00    +0.223 C 
ATOM     18  C   UNL     1      29.664 -22.878 -15.599  0.00  0.00    +0.095 C 
ATOM     19  H   UNL     1      31.919 -22.709 -16.644  0.00  0.00    +0.150 HD
ENDBRANCH  14  16
ENDBRANCH  11  14
ENDBRANCH   2  10
BRANCH   5  20
ATOM     20  C   UNL     1      35.039 -19.046 -22.429  0.00  0.00    +0.002 C 
ATOM     21  C   UNL     1      35.052 -17.293 -24.599  0.00  0.00    -0.044 C 
ATOM     22  C   UNL     1      34.640 -19.492 -23.688  0.00  0.00    -0.000 C 
ATOM     23  C   UNL     1      35.445 -17.722 -22.254  0.00  0.00    -0.000 C 
ATOM     24  C   UNL     1      34.646 -18.615 -24.773  0.00  0.00    -0.006 C 
ATOM     25  C   UNL     1      35.452 -16.846 -23.339  0.00  0.00    -0.006 C 
BRANCH  21  26
ATOM     26  C   UNL     1      35.058 -16.356 -25.759  0.00  0.00    -0.054 C 
BRANCH  26  27
ATOM     27  N   UNL     1      33.734 -15.793 -26.029  0.00  0.00    +0.390 N 
ATOM     28  H   UNL     1      33.157 -15.877 -25.192  0.00  0.00    -0.083 HD
ATOM     29  H   UNL     1      33.311 -16.307 -26.802  0.00  0.00    -0.083 HD
BRANCH  27  30
ATOM     30  C   UNL     1      33.837 -14.391 -26.400  0.00  0.00    -0.031 C 
BRANCH  30  34
ATOM     31  N   UNL     1      34.124 -12.203 -25.280  0.00  0.00    -0.170 NA
ATOM     32  N   UNL     1      33.902 -11.795 -24.021  0.00  0.00    -0.157 N 
ATOM     33  N   UNL     1      33.435 -12.687 -23.131  0.00  0.00    -0.162 NA
ATOM     34  C   UNL     1      33.762 -13.487 -25.198  0.00  0.00    +0.077 C 
ATOM     35  C   UNL     1      33.344 -13.781 -23.893  0.00  0.00    +0.133 C 
ATOM     36  H   UNL     1      34.079 -10.864 -23.754  0.00  0.00    +0.197 HD
ENDBRANCH  30  34
ENDBRANCH  27  30
ENDBRANCH  26  27
ENDBRANCH  21  26
ENDBRANCH   5  20
TORSDOF 8
ENDMDL
MODEL 2
REMARK VINA RESULT:     -11.3      6.896     12.462
REMARK  Name = 11224409
REMARK  8 active torsions:
REMARK  status: ('A' for Active; 'I' for Inactive)
REMARK    1  A    between atoms: C_2  and  N_10
REMARK    2  A    between atoms: C_5  and  C_20
REMARK    3  A    between atoms: C_11  and  C_14
REMARK    4  A    between atoms: C_14  and  N_16
REMARK    5  A    between atoms: C_21  and  C_26
REMARK    6  A    between atoms: C_26  and  N_27
REMARK    7  A    between atoms: N_27  and  C_30
REMARK    8  A    between atoms: C_30  and  C_34
REMARK                            x       y       z     vdW  Elec       q    Type
REMARK                         _______ _______ _______ _____ _____    ______ ____
ROOT
ATOM      1  F   UNL     1      34.889 -11.215 -25.168  0.00  0.00    -0.204 F 
ATOM      2  C   UNL     1      32.611  -9.748 -22.746  0.00  0.00    +0.059 C 
ATOM      3  C   UNL     1      33.567  -9.862 -23.756  0.00  0.00    +0.045 C 
ATOM      4  C   UNL     1      32.058 -10.896 -22.177  0.00  0.00    +0.015 C 
ATOM      5  C   UNL     1      33.416 -12.269 -23.628  0.00  0.00    +0.028 C 
ATOM      6  C   UNL     1      33.970 -11.123 -24.196  0.00  0.00    +0.141 C 
ATOM      7  C   UNL     1      32.460 -12.157 -22.618  0.00  0.00    +0.004 C 
ENDROOT
BRANCH   2  10
ATOM      8  O   UNL     1      31.807  -6.657 -20.998  0.00  0.00    -0.434 OA
ATOM      9  O   UNL     1      32.806  -8.436 -20.008  0.00  0.00    -0.226 OA
ATOM     10  N   UNL     1      32.201  -8.461 -22.296  0.00  0.00    -0.221 N 
ATOM     11  C   UNL     1      31.522  -6.249 -22.343  0.00  0.00    +0.210 C 
ATOM     12  C   UNL     1      31.464  -7.545 -23.123  0.00  0.00    +0.147 C 
ATOM     13  C   UNL     1      32.337  -7.928 -21.016  0.00  0.00    +0.409 C 
BRANCH  11  14
ATOM     14  C   UNL     1      32.625  -5.313 -22.816  0.00  0.00    +0.135 C 
BRANCH  14  16
ATOM     15  O   UNL     1      34.820  -5.682 -24.681  0.00  0.00    -0.275 OA
ATOM     16  N   UNL     1      32.594  -5.153 -24.240  0.00  0.00    -0.301 N 
ATOM     17  C   UNL     1      33.700  -5.352 -25.061  0.00  0.00    +0.223 C 
ATOM     18  C   UNL     1      33.385  -5.142 -26.518  0.00  0.00    +0.095 C 
ATOM     19  H   UNL     1      31.744  -4.888 -24.660  0.00  0.00    +0.150 HD
ENDBRANCH  14  16
ENDBRANCH  11  14
ENDBRANCH   2  10
BRANCH   5  20
ATOM     20  C   UNL     1      33.831 -13.580 -24.082  0.00  0.00    +0.002 C 
ATOM     21  C   UNL     1      34.632 -16.104 -24.958  0.00  0.00    -0.044 C 
ATOM     22  C   UNL     1      33.365 -14.075 -25.299  0.00  0.00    -0.000 C 
ATOM     23  C   UNL     1      34.698 -14.346 -23.303  0.00  0.00    -0.000 C 
ATOM     24  C   UNL     1      33.766 -15.337 -25.738  0.00  0.00    -0.006 C 
ATOM     25  C   UNL     1      35.098 -15.608 -23.740  0.00  0.00    -0.006 C 
BRANCH  21  26
ATOM     26  C   UNL     1      35.061 -17.453 -25.428  0.00  0.00    -0.054 C 
BRANCH  26  27
ATOM     27  N   UNL     1      34.289 -18.531 -24.806  0.00  0.00    +0.390 N 
ATOM     28  H   UNL     1      33.635 -18.912 -25.490  0.00  0.00    -0.083 HD
ATOM     29  H   UNL     1      33.784 -18.153 -24.006  0.00  0.00    -0.083 HD
BRANCH  27  30
ATOM     30  C   UNL     1      35.170 -19.592 -24.345  0.00  0.00    -0.031 C 
BRANCH  30  34
ATOM     31  N   UNL     1      34.963 -19.830 -21.890  0.00  0.00    -0.170 NA
ATOM     32  N   UNL     1      35.722 -19.395 -20.872  0.00  0.00    -0.157 N 
ATOM     33  N   UNL     1      36.826 -18.684 -21.154  0.00  0.00    -0.162 NA
ATOM     34  C   UNL     1      35.645 -19.354 -22.936  0.00  0.00    +0.077 C 
ATOM     35  C   UNL     1      36.776 -18.657 -22.489  0.00  0.00    +0.133 C 
ATOM     36  H   UNL     1      35.474 -19.592 -19.940  0.00  0.00    +0.197 HD
ENDBRANCH  30  34
ENDBRANCH  27  30
ENDBRANCH  26  27
ENDBRANCH  21  26
ENDBRANCH   5  20
TORSDOF 8
ENDMDL
MODEL 3
REMARK VINA RESULT:     -11.3      6.842     12.467
REMARK  Name = 11224409
REMARK  8 active torsions:
REMARK  status: ('A' for Active; 'I' for Inactive)
REMARK    1  A    between atoms: C_2  and  N_10
REMARK    2  A    between atoms: C_5  and  C_20
REMARK    3  A    between atoms: C_11  and  C_14
REMARK    4  A    between atoms: C_14  and  N_16
REMARK    5  A    between atoms: C_21  and  C_26
REMARK    6  A    between atoms: C_26  and  N_27
REMARK    7  A    between atoms: N_27  and  C_30
REMARK    8  A    between atoms: C_30  and  C_34
REMARK                            x       y       z     vdW  Elec       q    Type
REMARK                         _______ _______ _______ _____ _____    ______ ____
ROOT
ATOM      1  F   UNL     1      31.958 -13.251 -22.002  0.00  0.00    -0.204 F 
ATOM      2  C   UNL     1      32.617  -9.753 -22.737  0.00  0.00    +0.059 C 
ATOM      3  C   UNL     1      32.082 -10.897 -22.144  0.00  0.00    +0.045 C 
ATOM      4  C   UNL     1      33.550  -9.872 -23.767  0.00  0.00    +0.015 C 
ATOM      5  C   UNL     1      33.414 -12.279 -23.611  0.00  0.00    +0.028 C 
ATOM      6  C   UNL     1      32.481 -12.160 -22.582  0.00  0.00    +0.141 C 
ATOM      7  C   UNL     1      33.950 -11.135 -24.204  0.00  0.00    +0.004 C 
ENDROOT
BRANCH   2  10
ATOM      8  O   UNL     1      31.818  -6.655 -20.999  0.00  0.00    -0.434 OA
ATOM      9  O   UNL     1      32.812  -8.434 -20.003  0.00  0.00    -0.226 OA
ATOM     10  N   UNL     1      32.209  -8.464 -22.291  0.00  0.00    -0.221 N 
ATOM     11  C   UNL     1      31.536  -6.250 -22.345  0.00  0.00    +0.210 C 
ATOM     12  C   UNL     1      31.475  -7.548 -23.122  0.00  0.00    +0.147 C 
ATOM     13  C   UNL     1      32.345  -7.927 -21.013  0.00  0.00    +0.409 C 
BRANCH  11  14
ATOM     14  C   UNL     1      32.641  -5.318 -22.820  0.00  0.00    +0.135 C 
BRANCH  14  16
ATOM     15  O   UNL     1      34.831  -5.678 -24.692  0.00  0.00    -0.275 OA
ATOM     16  N   UNL     1      32.606  -5.154 -24.243  0.00  0.00    -0.301 N 
ATOM     17  C   UNL     1      33.709  -5.349 -25.068  0.00  0.00    +0.223 C 
ATOM     18  C   UNL     1      33.389  -5.135 -26.523  0.00  0.00    +0.095 C 
ATOM     19  H   UNL     1      31.754  -4.889 -24.660  0.00  0.00    +0.150 HD
ENDBRANCH  14  16
ENDBRANCH  11  14
ENDBRANCH   2  10
BRANCH   5  20
ATOM     20  C   UNL     1      33.831 -13.588 -24.068  0.00  0.00    +0.002 C 
ATOM     21  C   UNL     1      34.632 -16.110 -24.948  0.00  0.00    -0.044 C 
ATOM     22  C   UNL     1      34.694 -14.357 -23.288  0.00  0.00    -0.000 C 
ATOM     23  C   UNL     1      33.368 -14.080 -25.289  0.00  0.00    -0.000 C 
ATOM     24  C   UNL     1      35.094 -15.619 -23.727  0.00  0.00    -0.006 C 
ATOM     25  C   UNL     1      33.769 -15.341 -25.729  0.00  0.00    -0.006 C 
BRANCH  21  26
ATOM     26  C   UNL     1      35.060 -17.460 -25.418  0.00  0.00    -0.054 C 
BRANCH  26  27
ATOM     27  N   UNL     1      34.283 -18.537 -24.802  0.00  0.00    +0.390 N 
ATOM     28  H   UNL     1      33.633 -18.917 -25.491  0.00  0.00    -0.083 HD
ATOM     29  H   UNL     1      33.773 -18.159 -24.005  0.00  0.00    -0.083 HD
BRANCH  27  30
ATOM     30  C   UNL     1      35.159 -19.601 -24.336  0.00  0.00    -0.031 C 
BRANCH  30  34
ATOM     31  N   UNL     1      34.940 -19.831 -21.882  0.00  0.00    -0.170 NA
ATOM     32  N   UNL     1      35.697 -19.398 -20.862  0.00  0.00    -0.157 N 
ATOM     33  N   UNL     1      36.807 -18.693 -21.141  0.00  0.00    -0.162 NA
ATOM     34  C   UNL     1      35.629 -19.361 -22.926  0.00  0.00    +0.077 C 
ATOM     35  C   UNL     1      36.763 -18.670 -22.476  0.00  0.00    +0.133 C 
ATOM     36  H   UNL     1      35.445 -19.591 -19.930  0.00  0.00    +0.197 HD
ENDBRANCH  30  34
ENDBRANCH  27  30
ENDBRANCH  26  27
ENDBRANCH  21  26
ENDBRANCH   5  20
TORSDOF 8
ENDMDL
MODEL 4
REMARK VINA RESULT:     -11.2      2.125      3.326
REMARK  Name = 11224409
REMARK  8 active torsions:
REMARK  status: ('A' for Active; 'I' for Inactive)
REMARK    1  A    between atoms: C_2  and  N_10
REMARK    2  A    between atoms: C_5  and  C_20
REMARK    3  A    between atoms: C_11  and  C_14
REMARK    4  A    between atoms: C_14  and  N_16
REMARK    5  A    between atoms: C_21  and  C_26
REMARK    6  A    between atoms: C_26  and  N_27
REMARK    7  A    between atoms: N_27  and  C_30
REMARK    8  A    between atoms: C_30  and  C_34
REMARK                            x       y       z     vdW  Elec       q    Type
REMARK                         _______ _______ _______ _____ _____    ______ ____
ROOT
ATOM      1  F   UNL     1      32.736 -20.361 -21.201  0.00  0.00    -0.204 F 
ATOM      2  C   UNL     1      35.076 -21.837 -18.844  0.00  0.00    +0.059 C 
ATOM      3  C   UNL     1      33.882 -21.518 -19.492  0.00  0.00    +0.045 C 
ATOM      4  C   UNL     1      36.280 -21.295 -19.295  0.00  0.00    +0.015 C 
ATOM      5  C   UNL     1      35.096 -20.116 -21.040  0.00  0.00    +0.028 C 
ATOM      6  C   UNL     1      33.892 -20.657 -20.589  0.00  0.00    +0.141 C 
ATOM      7  C   UNL     1      36.290 -20.435 -20.393  0.00  0.00    +0.004 C 
ENDROOT
BRANCH   2  10
ATOM      8  O   UNL     1      34.654 -24.469 -16.364  0.00  0.00    -0.434 OA
ATOM      9  O   UNL     1      33.707 -24.520 -18.425  0.00  0.00    -0.226 OA
ATOM     10  N   UNL     1      35.065 -22.714 -17.723  0.00  0.00    -0.221 N 
ATOM     11  C   UNL     1      35.667 -23.691 -15.713  0.00  0.00    +0.210 C 
ATOM     12  C   UNL     1      35.670 -22.376 -16.463  0.00  0.00    +0.147 C 
ATOM     13  C   UNL     1      34.416 -23.942 -17.614  0.00  0.00    +0.409 C 
BRANCH  11  14
ATOM     14  C   UNL     1      36.991 -24.436 -15.802  0.00  0.00    +0.135 C 
BRANCH  14  16
ATOM     15  O   UNL     1      38.459 -26.820 -15.029  0.00  0.00    -0.275 OA
ATOM     16  N   UNL     1      37.488 -24.769 -14.499  0.00  0.00    -0.301 N 
ATOM     17  C   UNL     1      38.184 -25.940 -14.217  0.00  0.00    +0.223 C 
ATOM     18  C   UNL     1      38.611 -26.026 -12.776  0.00  0.00    +0.095 C 
ATOM     19  H   UNL     1      37.326 -24.134 -13.764  0.00  0.00    +0.150 HD
ENDBRANCH  14  16
ENDBRANCH  11  14
ENDBRANCH   2  10
BRANCH   5  20
ATOM     20  C   UNL     1      35.112 -19.223 -22.179  0.00  0.00    +0.002 C 
ATOM     21  C   UNL     1      35.139 -17.500 -24.372  0.00  0.00    -0.044 C 
ATOM     22  C   UNL     1      34.686 -19.677 -23.427  0.00  0.00    -0.000 C 
ATOM     23  C   UNL     1      35.551 -17.907 -22.027  0.00  0.00    -0.000 C 
ATOM     24  C   UNL     1      34.699 -18.815 -24.524  0.00  0.00    -0.006 C 
ATOM     25  C   UNL     1      35.565 -17.046 -23.124  0.00  0.00    -0.006 C 
BRANCH  21  26
ATOM     26  C   UNL     1      35.153 -16.580 -25.546  0.00  0.00    -0.054 C 
BRANCH  26  27
ATOM     27  N   UNL     1      33.812 -16.117 -25.907  0.00  0.00    +0.390 N 
ATOM     28  H   UNL     1      33.204 -16.178 -25.090  0.00  0.00    -0.083 HD
ATOM     29  H   UNL     1      33.453 -16.705 -26.659  0.00  0.00    -0.083 HD
BRANCH  27  30
ATOM     30  C   UNL     1      33.852 -14.739 -26.371  0.00  0.00    -0.031 C 
BRANCH  30  34
ATOM     31  N   UNL     1      34.125 -12.476 -25.406  0.00  0.00    -0.170 NA
ATOM     32  N   UNL     1      33.949 -11.994 -24.166  0.00  0.00    -0.157 N 
ATOM     33  N   UNL     1      33.549 -12.838 -23.201  0.00  0.00    -0.162 NA
ATOM     34  C   UNL     1      33.805 -13.761 -25.226  0.00  0.00    +0.077 C 
ATOM     35  C   UNL     1      33.456 -13.981 -23.887  0.00  0.00    +0.133 C 
ATOM     36  H   UNL     1      34.111 -11.044 -23.968  0.00  0.00    +0.197 HD
ENDBRANCH  30  34
ENDBRANCH  27  30
ENDBRANCH  26  27
ENDBRANCH  21  26
ENDBRANCH   5  20
TORSDOF 8
ENDMDL
MODEL 5
REMARK VINA RESULT:     -11.2      2.905      4.783
REMARK  Name = 11224409
REMARK  8 active torsions:
REMARK  status: ('A' for Active; 'I' for Inactive)
REMARK    1  A    between atoms: C_2  and  N_10
REMARK    2  A    between atoms: C_5  and  C_20
REMARK    3  A    between atoms: C_11  and  C_14
REMARK    4  A    between atoms: C_14  and  N_16
REMARK    5  A    between atoms: C_21  and  C_26
REMARK    6  A    between atoms: C_26  and  N_27
REMARK    7  A    between atoms: N_27  and  C_30
REMARK    8  A    between atoms: C_30  and  C_34
REMARK                            x       y       z     vdW  Elec       q    Type
REMARK                         _______ _______ _______ _____ _____    ______ ____
ROOT
ATOM      1  F   UNL     1      37.762 -20.966 -18.175  0.00  0.00    -0.204 F 
ATOM      2  C   UNL     1      35.943 -23.468 -16.268  0.00  0.00    +0.059 C 
ATOM      3  C   UNL     1      36.948 -22.584 -16.661  0.00  0.00    +0.045 C 
ATOM      4  C   UNL     1      34.777 -23.579 -17.026  0.00  0.00    +0.015 C 
ATOM      5  C   UNL     1      35.621 -21.922 -18.568  0.00  0.00    +0.028 C 
ATOM      6  C   UNL     1      36.787 -21.811 -17.811  0.00  0.00    +0.141 C 
ATOM      7  C   UNL     1      34.615 -22.806 -18.175  0.00  0.00    +0.004 C 
ENDROOT
BRANCH   2  10
ATOM      8  O   UNL     1      36.417 -26.003 -13.697  0.00  0.00    -0.434 OA
ATOM      9  O   UNL     1      36.374 -26.459 -15.919  0.00  0.00    -0.226 OA
ATOM     10  N   UNL     1      36.108 -24.257 -15.094  0.00  0.00    -0.221 N 
ATOM     11  C   UNL     1      36.515 -24.824 -12.887  0.00  0.00    +0.210 C 
ATOM     12  C   UNL     1      35.972 -23.719 -13.768  0.00  0.00    +0.147 C 
ATOM     13  C   UNL     1      36.313 -25.633 -15.019  0.00  0.00    +0.409 C 
BRANCH  11  14
ATOM     14  C   UNL     1      37.971 -24.618 -12.493  0.00  0.00    +0.135 C 
BRANCH  14  16
ATOM     15  O   UNL     1      39.545 -24.380 -14.922  0.00  0.00    -0.275 OA
ATOM     16  N   UNL     1      38.814 -25.614 -13.086  0.00  0.00    -0.301 N 
ATOM     17  C   UNL     1      39.536 -25.413 -14.258  0.00  0.00    +0.223 C 
ATOM     18  C   UNL     1      40.359 -26.613 -14.644  0.00  0.00    +0.095 C 
ATOM     19  H   UNL     1      38.886 -26.488 -12.639  0.00  0.00    +0.150 HD
ENDBRANCH  14  16
ENDBRANCH  11  14
ENDBRANCH   2  10
BRANCH   5  20
ATOM     20  C   UNL     1      35.450 -21.122 -19.762  0.00  0.00    +0.002 C 
ATOM     21  C   UNL     1      35.119 -19.579 -22.061  0.00  0.00    -0.044 C 
ATOM     22  C   UNL     1      34.174 -20.916 -20.285  0.00  0.00    -0.000 C 
ATOM     23  C   UNL     1      36.561 -20.556 -20.388  0.00  0.00    -0.000 C 
ATOM     24  C   UNL     1      34.008 -20.144 -21.435  0.00  0.00    -0.006 C 
ATOM     25  C   UNL     1      36.396 -19.785 -21.538  0.00  0.00    -0.006 C 
BRANCH  21  26
ATOM     26  C   UNL     1      34.942 -18.753 -23.291  0.00  0.00    -0.054 C 
BRANCH  26  27
ATOM     27  N   UNL     1      35.973 -17.723 -23.425  0.00  0.00    +0.390 N 
ATOM     28  H   UNL     1      36.400 -17.795 -24.348  0.00  0.00    -0.083 HD
ATOM     29  H   UNL     1      36.675 -17.865 -22.699  0.00  0.00    -0.083 HD
BRANCH  27  30
ATOM     30  C   UNL     1      35.398 -16.397 -23.266  0.00  0.00    -0.031 C 
BRANCH  30  34
ATOM     31  N   UNL     1      33.932 -14.834 -24.504  0.00  0.00    -0.170 NA
ATOM     32  N   UNL     1      33.472 -14.832 -25.765  0.00  0.00    -0.157 N 
ATOM     33  N   UNL     1      33.828 -15.840 -26.579  0.00  0.00    -0.162 NA
ATOM     34  C   UNL     1      34.661 -15.954 -24.502  0.00  0.00    +0.077 C 
ATOM     35  C   UNL     1      34.596 -16.565 -25.762  0.00  0.00    +0.133 C 
ATOM     36  H   UNL     1      32.885 -14.109 -26.086  0.00  0.00    +0.197 HD
ENDBRANCH  30  34
ENDBRANCH  27  30
ENDBRANCH  26  27
ENDBRANCH  21  26
ENDBRANCH   5  20
TORSDOF 8
ENDMDL
MODEL 6
REMARK VINA RESULT:     -11.2      4.384     11.421
REMARK  Name = 11224409
REMARK  8 active torsions:
REMARK  status: ('A' for Active; 'I' for Inactive)
REMARK    1  A    between atoms: C_2  and  N_10
REMARK    2  A    between atoms: C_5  and  C_20
REMARK    3  A    between atoms: C_11  and  C_14
REMARK    4  A    between atoms: C_14  and  N_16
REMARK    5  A    between atoms: C_21  and  C_26
REMARK    6  A    between atoms: C_26  and  N_27
REMARK    7  A    between atoms: N_27  and  C_30
REMARK    8  A    between atoms: C_30  and  C_34
REMARK                            x       y       z     vdW  Elec       q    Type
REMARK                         _______ _______ _______ _____ _____    ______ ____
ROOT
ATOM      1  F   UNL     1      32.777 -20.969 -19.926  0.00  0.00    -0.204 F 
ATOM      2  C   UNL     1      35.266 -19.269 -21.956  0.00  0.00    +0.059 C 
ATOM      3  C   UNL     1      34.030 -19.687 -21.463  0.00  0.00    +0.045 C 
ATOM      4  C   UNL     1      36.444 -19.738 -21.375  0.00  0.00    +0.015 C 
ATOM      5  C   UNL     1      35.151 -21.045 -19.808  0.00  0.00    +0.028 C 
ATOM      6  C   UNL     1      33.973 -20.576 -20.389  0.00  0.00    +0.141 C 
ATOM      7  C   UNL     1      36.387 -20.626 -20.300  0.00  0.00    +0.004 C 
ENDROOT
BRANCH   2  10
ATOM      8  O   UNL     1      35.219 -17.482 -25.128  0.00  0.00    -0.434 OA
ATOM      9  O   UNL     1      34.690 -19.677 -24.915  0.00  0.00    -0.226 OA
ATOM     10  N   UNL     1      35.324 -18.362 -23.053  0.00  0.00    -0.221 N 
ATOM     11  C   UNL     1      35.415 -16.376 -24.237  0.00  0.00    +0.210 C 
ATOM     12  C   UNL     1      35.818 -17.017 -22.927  0.00  0.00    +0.147 C 
ATOM     13  C   UNL     1      35.033 -18.628 -24.389  0.00  0.00    +0.409 C 
BRANCH  11  14
ATOM     14  C   UNL     1      34.118 -15.584 -24.144  0.00  0.00    +0.135 C 
BRANCH  14  16
ATOM     15  O   UNL     1      33.542 -15.647 -26.989  0.00  0.00    -0.275 OA
ATOM     16  N   UNL     1      34.118 -14.480 -25.057  0.00  0.00    -0.301 N 
ATOM     17  C   UNL     1      33.829 -14.602 -26.412  0.00  0.00    +0.223 C 
ATOM     18  C   UNL     1      33.876 -13.282 -27.136  0.00  0.00    +0.095 C 
ATOM     19  H   UNL     1      34.336 -13.585 -24.706  0.00  0.00    +0.150 HD
ENDBRANCH  14  16
ENDBRANCH  11  14
ENDBRANCH   2  10
BRANCH   5  20
ATOM     20  C   UNL     1      35.096 -21.966 -18.694  0.00  0.00    +0.002 C 
ATOM     21  C   UNL     1      34.989 -23.741 -16.544  0.00  0.00    -0.044 C 
ATOM     22  C   UNL     1      36.157 -22.033 -17.791  0.00  0.00    -0.000 C 
ATOM     23  C   UNL     1      33.981 -22.788 -18.521  0.00  0.00    -0.000 C 
ATOM     24  C   UNL     1      36.103 -22.920 -16.716  0.00  0.00    -0.006 C 
ATOM     25  C   UNL     1      33.928 -23.676 -17.448  0.00  0.00    -0.006 C 
BRANCH  21  26
ATOM     26  C   UNL     1      34.932 -24.689 -15.394  0.00  0.00    -0.054 C 
BRANCH  26  27
ATOM     27  N   UNL     1      36.196 -24.748 -14.656  0.00  0.00    +0.390 N 
ATOM     28  H   UNL     1      36.012 -24.594 -13.665  0.00  0.00    -0.083 HD
ATOM     29  H   UNL     1      36.819 -24.027 -15.016  0.00  0.00    -0.083 HD
BRANCH  27  30
ATOM     30  C   UNL     1      36.831 -26.045 -14.829  0.00  0.00    -0.031 C 
BRANCH  30  34
ATOM     31  N   UNL     1      39.129 -26.943 -15.026  0.00  0.00    -0.170 NA
ATOM     32  N   UNL     1      40.317 -26.487 -14.600  0.00  0.00    -0.157 N 
ATOM     33  N   UNL     1      40.355 -25.326 -13.926  0.00  0.00    -0.162 NA
ATOM     34  C   UNL     1      38.316 -25.978 -14.585  0.00  0.00    +0.077 C 
ATOM     35  C   UNL     1      39.060 -24.997 -13.917  0.00  0.00    +0.133 C 
ATOM     36  H   UNL     1      41.143 -26.994 -14.776  0.00  0.00    +0.197 HD
ENDBRANCH  30  34
ENDBRANCH  27  30
ENDBRANCH  26  27
ENDBRANCH  21  26
ENDBRANCH   5  20
TORSDOF 8
ENDMDL
MODEL 7
REMARK VINA RESULT:     -11.2      4.364     11.329
REMARK  Name = 11224409
REMARK  8 active torsions:
REMARK  status: ('A' for Active; 'I' for Inactive)
REMARK    1  A    between atoms: C_2  and  N_10
REMARK    2  A    between atoms: C_5  and  C_20
REMARK    3  A    between atoms: C_11  and  C_14
REMARK    4  A    between atoms: C_14  and  N_16
REMARK    5  A    between atoms: C_21  and  C_26
REMARK    6  A    between atoms: C_26  and  N_27
REMARK    7  A    between atoms: N_27  and  C_30
REMARK    8  A    between atoms: C_30  and  C_34
REMARK                            x       y       z     vdW  Elec       q    Type
REMARK                         _______ _______ _______ _____ _____    ______ ____
ROOT
ATOM      1  F   UNL     1      33.412 -20.954 -20.409  0.00  0.00    -0.204 F 
ATOM      2  C   UNL     1      35.384 -18.884 -22.653  0.00  0.00    +0.059 C 
ATOM      3  C   UNL     1      34.293 -19.541 -22.082  0.00  0.00    +0.045 C 
ATOM      4  C   UNL     1      36.651 -19.015 -22.085  0.00  0.00    +0.015 C 
ATOM      5  C   UNL     1      35.738 -20.460 -20.378  0.00  0.00    +0.028 C 
ATOM      6  C   UNL     1      34.470 -20.329 -20.945  0.00  0.00    +0.141 C 
ATOM      7  C   UNL     1      36.829 -19.803 -20.947  0.00  0.00    +0.004 C 
ENDROOT
BRANCH   2  10
ATOM      8  O   UNL     1      34.660 -17.389 -25.893  0.00  0.00    -0.434 OA
ATOM      9  O   UNL     1      34.214 -19.553 -25.380  0.00  0.00    -0.226 OA
ATOM     10  N   UNL     1      35.203 -18.081 -23.814  0.00  0.00    -0.221 N 
ATOM     11  C   UNL     1      35.022 -16.209 -25.164  0.00  0.00    +0.210 C 
ATOM     12  C   UNL     1      35.695 -16.733 -23.914  0.00  0.00    +0.147 C 
ATOM     13  C   UNL     1      34.645 -18.463 -25.032  0.00  0.00    +0.409 C 
BRANCH  11  14
ATOM     14  C   UNL     1      33.763 -15.404 -24.875  0.00  0.00    +0.135 C 
BRANCH  14  16
ATOM     15  O   UNL     1      34.297 -13.175 -23.093  0.00  0.00    -0.275 OA
ATOM     16  N   UNL     1      33.935 -14.026 -25.231  0.00  0.00    -0.301 N 
ATOM     17  C   UNL     1      34.189 -13.019 -24.306  0.00  0.00    +0.223 C 
ATOM     18  C   UNL     1      34.352 -11.668 -24.951  0.00  0.00    +0.095 C 
ATOM     19  H   UNL     1      33.869 -13.780 -26.182  0.00  0.00    +0.150 HD
ENDBRANCH  14  16
ENDBRANCH  11  14
ENDBRANCH   2  10
BRANCH   5  20
ATOM     20  C   UNL     1      35.926 -21.276 -19.198  0.00  0.00    +0.002 C 
ATOM     21  C   UNL     1      36.289 -22.848 -16.922  0.00  0.00    -0.044 C 
ATOM     22  C   UNL     1      37.107 -21.177 -18.463  0.00  0.00    -0.000 C 
ATOM     23  C   UNL     1      34.926 -22.161 -18.794  0.00  0.00    -0.000 C 
ATOM     24  C   UNL     1      37.289 -21.963 -17.325  0.00  0.00    -0.006 C 
ATOM     25  C   UNL     1      35.107 -22.947 -17.657  0.00  0.00    -0.006 C 
BRANCH  21  26
ATOM     26  C   UNL     1      36.483 -23.687 -15.705  0.00  0.00    -0.054 C 
BRANCH  26  27
ATOM     27  N   UNL     1      37.810 -24.303 -15.657  0.00  0.00    +0.390 N 
ATOM     28  H   UNL     1      38.490 -23.609 -15.346  0.00  0.00    -0.083 HD
ATOM     29  H   UNL     1      38.050 -24.639 -16.589  0.00  0.00    -0.083 HD
BRANCH  27  30
ATOM     30  C   UNL     1      37.821 -25.428 -14.737  0.00  0.00    -0.031 C 
BRANCH  30  34
ATOM     31  N   UNL     1      38.770 -24.175 -12.825  0.00  0.00    -0.170 NA
ATOM     32  N   UNL     1      38.377 -24.038 -11.549  0.00  0.00    -0.157 N 
ATOM     33  N   UNL     1      37.262 -24.672 -11.150  0.00  0.00    -0.162 NA
ATOM     34  C   UNL     1      37.813 -24.978 -13.300  0.00  0.00    +0.077 C 
ATOM     35  C   UNL     1      36.898 -25.280 -12.282  0.00  0.00    +0.133 C 
ATOM     36  H   UNL     1      38.894 -23.485 -10.920  0.00  0.00    +0.197 HD
ENDBRANCH  30  34
ENDBRANCH  27  30
ENDBRANCH  26  27
ENDBRANCH  21  26
ENDBRANCH   5  20
TORSDOF 8
ENDMDL
MODEL 8
REMARK VINA RESULT:     -11.1      1.516      2.107
REMARK  Name = 11224409
REMARK  8 active torsions:
REMARK  status: ('A' for Active; 'I' for Inactive)
REMARK    1  A    between atoms: C_2  and  N_10
REMARK    2  A    between atoms: C_5  and  C_20
REMARK    3  A    between atoms: C_11  and  C_14
REMARK    4  A    between atoms: C_14  and  N_16
REMARK    5  A    between atoms: C_21  and  C_26
REMARK    6  A    between atoms: C_26  and  N_27
REMARK    7  A    between atoms: N_27  and  C_30
REMARK    8  A    between atoms: C_30  and  C_34
REMARK                            x       y       z     vdW  Elec       q    Type
REMARK                         _______ _______ _______ _____ _____    ______ ____
ROOT
ATOM      1  F   UNL     1      32.747 -20.231 -21.433  0.00  0.00    -0.204 F 
ATOM      2  C   UNL     1      35.231 -21.690 -19.218  0.00  0.00    +0.059 C 
ATOM      3  C   UNL     1      34.000 -21.390 -19.803  0.00  0.00    +0.045 C 
ATOM      4  C   UNL     1      36.399 -21.110 -19.715  0.00  0.00    +0.015 C 
ATOM      5  C   UNL     1      35.105 -19.930 -21.379  0.00  0.00    +0.028 C 
ATOM      6  C   UNL     1      33.938 -20.509 -20.883  0.00  0.00    +0.141 C 
ATOM      7  C   UNL     1      36.336 -20.230 -20.796  0.00  0.00    +0.004 C 
ENDROOT
BRANCH   2  10
ATOM      8  O   UNL     1      36.031 -23.769 -16.338  0.00  0.00    -0.434 OA
ATOM      9  O   UNL     1      37.505 -22.342 -17.306  0.00  0.00    -0.226 OA
ATOM     10  N   UNL     1      35.295 -22.588 -18.115  0.00  0.00    -0.221 N 
ATOM     11  C   UNL     1      34.618 -23.998 -16.410  0.00  0.00    +0.210 C 
ATOM     12  C   UNL     1      34.224 -23.487 -17.779  0.00  0.00    +0.147 C 
ATOM     13  C   UNL     1      36.382 -22.824 -17.276  0.00  0.00    +0.409 C 
BRANCH  11  14
ATOM     14  C   UNL     1      33.940 -23.249 -15.271  0.00  0.00    +0.135 C 
BRANCH  14  16
ATOM     15  O   UNL     1      33.358 -24.990 -13.021  0.00  0.00    -0.275 OA
ATOM     16  N   UNL     1      34.684 -23.375 -14.052  0.00  0.00    -0.301 N 
ATOM     17  C   UNL     1      34.331 -24.239 -13.021  0.00  0.00    +0.223 C 
ATOM     18  C   UNL     1      35.297 -24.191 -11.868  0.00  0.00    +0.095 C 
ATOM     19  H   UNL     1      35.489 -22.819 -13.939  0.00  0.00    +0.150 HD
ENDBRANCH  14  16
ENDBRANCH  11  14
ENDBRANCH   2  10
BRANCH   5  20
ATOM     20  C   UNL     1      35.044 -19.016 -22.499  0.00  0.00    +0.002 C 
ATOM     21  C   UNL     1      34.925 -17.254 -24.658  0.00  0.00    -0.044 C 
ATOM     22  C   UNL     1      34.608 -19.467 -23.745  0.00  0.00    -0.000 C 
ATOM     23  C   UNL     1      35.421 -17.682 -22.334  0.00  0.00    -0.000 C 
ATOM     24  C   UNL     1      34.548 -18.586 -24.824  0.00  0.00    -0.006 C 
ATOM     25  C   UNL     1      35.362 -16.802 -23.413  0.00  0.00    -0.006 C 
BRANCH  21  26
ATOM     26  C   UNL     1      34.860 -16.312 -25.813  0.00  0.00    -0.054 C 
BRANCH  26  27
ATOM     27  N   UNL     1      33.538 -15.700 -25.961  0.00  0.00    +0.390 N 
ATOM     28  H   UNL     1      33.072 -15.687 -25.054  0.00  0.00    -0.083 HD
ATOM     29  H   UNL     1      32.997 -16.249 -26.629  0.00  0.00    -0.083 HD
BRANCH  27  30
ATOM     30  C   UNL     1      33.655 -14.339 -26.459  0.00  0.00    -0.031 C 
BRANCH  30  34
ATOM     31  N   UNL     1      33.402 -13.665 -24.091  0.00  0.00    -0.170 NA
ATOM     32  N   UNL     1      33.648 -12.513 -23.448  0.00  0.00    -0.157 N 
ATOM     33  N   UNL     1      34.126 -11.474 -24.153  0.00  0.00    -0.162 NA
ATOM     34  C   UNL     1      33.757 -13.339 -25.338  0.00  0.00    +0.077 C 
ATOM     35  C   UNL     1      34.196 -12.009 -25.375  0.00  0.00    +0.133 C 
ATOM     36  H   UNL     1      33.482 -12.431 -22.481  0.00  0.00    +0.197 HD
ENDBRANCH  30  34
ENDBRANCH  27  30
ENDBRANCH  26  27
ENDBRANCH  21  26
ENDBRANCH   5  20
TORSDOF 8
ENDMDL
MODEL 9
REMARK VINA RESULT:     -10.7      3.653     10.851
REMARK  Name = 11224409
REMARK  8 active torsions:
REMARK  status: ('A' for Active; 'I' for Inactive)
REMARK    1  A    between atoms: C_2  and  N_10
REMARK    2  A    between atoms: C_5  and  C_20
REMARK    3  A    between atoms: C_11  and  C_14
REMARK    4  A    between atoms: C_14  and  N_16
REMARK    5  A    between atoms: C_21  and  C_26
REMARK    6  A    between atoms: C_26  and  N_27
REMARK    7  A    between atoms: N_27  and  C_30
REMARK    8  A    between atoms: C_30  and  C_34
REMARK                            x       y       z     vdW  Elec       q    Type
REMARK                         _______ _______ _______ _____ _____    ______ ____
ROOT
ATOM      1  F   UNL     1      32.791 -20.954 -20.007  0.00  0.00    -0.204 F 
ATOM      2  C   UNL     1      35.246 -19.206 -22.040  0.00  0.00    +0.059 C 
ATOM      3  C   UNL     1      34.019 -19.653 -21.548  0.00  0.00    +0.045 C 
ATOM      4  C   UNL     1      36.433 -19.641 -21.449  0.00  0.00    +0.015 C 
ATOM      5  C   UNL     1      35.166 -20.968 -19.878  0.00  0.00    +0.028 C 
ATOM      6  C   UNL     1      33.979 -20.534 -20.468  0.00  0.00    +0.141 C 
ATOM      7  C   UNL     1      36.393 -20.521 -20.367  0.00  0.00    +0.004 C 
ENDROOT
BRANCH   2  10
ATOM      8  O   UNL     1      35.150 -17.441 -25.223  0.00  0.00    -0.434 OA
ATOM      9  O   UNL     1      34.632 -19.637 -24.987  0.00  0.00    -0.226 OA
ATOM     10  N   UNL     1      35.287 -18.307 -23.143  0.00  0.00    -0.221 N 
ATOM     11  C   UNL     1      35.355 -16.329 -24.342  0.00  0.00    +0.210 C 
ATOM     12  C   UNL     1      35.778 -16.960 -23.032  0.00  0.00    +0.147 C 
ATOM     13  C   UNL     1      34.978 -18.583 -24.473  0.00  0.00    +0.409 C 
BRANCH  11  14
ATOM     14  C   UNL     1      34.056 -15.541 -24.236  0.00  0.00    +0.135 C 
BRANCH  14  16
ATOM     15  O   UNL     1      33.554 -15.544 -27.096  0.00  0.00    -0.275 OA
ATOM     16  N   UNL     1      34.060 -14.414 -25.123  0.00  0.00    -0.301 N 
ATOM     17  C   UNL     1      33.808 -14.508 -26.487  0.00  0.00    +0.223 C 
ATOM     18  C   UNL     1      33.851 -13.170 -27.177  0.00  0.00    +0.095 C 
ATOM     19  H   UNL     1      34.253 -13.525 -24.744  0.00  0.00    +0.150 HD
ENDBRANCH  14  16
ENDBRANCH  11  14
ENDBRANCH   2  10
BRANCH   5  20
ATOM     20  C   UNL     1      35.129 -21.882 -18.756  0.00  0.00    +0.002 C 
ATOM     21  C   UNL     1      35.058 -23.642 -16.594  0.00  0.00    -0.044 C 
ATOM     22  C   UNL     1      36.217 -21.965 -17.888  0.00  0.00    -0.000 C 
ATOM     23  C   UNL     1      34.004 -22.680 -18.542  0.00  0.00    -0.000 C 
ATOM     24  C   UNL     1      36.182 -22.844 -16.806  0.00  0.00    -0.006 C 
ATOM     25  C   UNL     1      33.969 -23.560 -17.462  0.00  0.00    -0.006 C 
BRANCH  21  26
ATOM     26  C   UNL     1      35.020 -24.582 -15.436  0.00  0.00    -0.054 C 
BRANCH  26  27
ATOM     27  N   UNL     1      34.822 -23.891 -14.161  0.00  0.00    +0.390 N 
ATOM     28  H   UNL     1      34.634 -22.904 -14.341  0.00  0.00    -0.083 HD
ATOM     29  H   UNL     1      35.667 -23.993 -13.599  0.00  0.00    -0.083 HD
BRANCH  27  30
ATOM     30  C   UNL     1      33.703 -24.465 -13.433  0.00  0.00    -0.031 C 
BRANCH  30  34
ATOM     31  N   UNL     1      32.014 -22.951 -14.423  0.00  0.00    -0.170 NA
ATOM     32  N   UNL     1      30.825 -23.178 -15.003  0.00  0.00    -0.157 N 
ATOM     33  N   UNL     1      30.393 -24.446 -15.105  0.00  0.00    -0.162 NA
ATOM     34  C   UNL     1      32.390 -24.197 -14.120  0.00  0.00    +0.077 C 
ATOM     35  C   UNL     1      31.405 -25.105 -14.534  0.00  0.00    +0.133 C 
ATOM     36  H   UNL     1      30.281 -22.433 -15.346  0.00  0.00    +0.197 HD
ENDBRANCH  30  34
ENDBRANCH  27  30
ENDBRANCH  26  27
ENDBRANCH  21  26
ENDBRANCH   5  20
TORSDOF 8
ENDMDL
