MODEL 1
REMARK VINA RESULT:     -11.3      0.000      0.000
REMARK  Name = 24963036
REMARK  7 active torsions:
REMARK  status: ('A' for Active; 'I' for Inactive)
REMARK    1  A    between atoms: N_2  and  C_20
REMARK    2  A    between atoms: C_3  and  C_7
REMARK    3  A    between atoms: C_11  and  C_12
REMARK    4  A    between atoms: C_12  and  O_13
REMARK    5  A    between atoms: O_13  and  C_14
REMARK    6  A    between atoms: C_20  and  C_21
REMARK    7  A    between atoms: C_26  and  C_29
REMARK                            x       y       z     vdW  Elec       q    Type
REMARK                         _______ _______ _______ _____ _____    ______ ____
ROOT
ATOM      1  O   UNL     1      32.531 -25.133 -13.438  0.00  0.00    -0.273 OA
ATOM      2  N   UNL     1      34.430 -23.797 -13.271  0.00  0.00    -0.299 N 
ATOM      3  C   UNL     1      33.152 -24.107 -13.702  0.00  0.00    +0.241 C 
ATOM      4  H   UNL     1      34.823 -22.939 -13.551  0.00  0.00    +0.150 HD
ENDROOT
BRANCH   3   7
ATOM      5  O   UNL     1      35.023 -22.825 -15.997  0.00  0.00    -0.272 OA
ATOM      6  N   UNL     1      32.776 -23.375 -15.935  0.00  0.00    -0.271 N 
ATOM      7  C   UNL     1      32.555 -23.016 -14.540  0.00  0.00    +0.152 C 
ATOM      8  C   UNL     1      31.039 -22.954 -14.391  0.00  0.00    +0.031 C 
ATOM      9  C   UNL     1      30.539 -23.953 -15.432  0.00  0.00    +0.024 C 
ATOM     10  C   UNL     1      31.531 -23.793 -16.575  0.00  0.00    +0.094 C 
ATOM     11  C   UNL     1      33.991 -23.178 -16.571  0.00  0.00    +0.256 C 
BRANCH  11  12
ATOM     12  C   UNL     1      33.997 -23.439 -18.056  0.00  0.00    +0.227 C 
BRANCH  12  13
ATOM     13  O   UNL     1      35.163 -22.839 -18.566  0.00  0.00    -0.347 OA
BRANCH  13  14
ATOM     14  C   UNL     1      34.918 -22.136 -19.778  0.00  0.00    +0.116 C 
ATOM     15  C   UNL     1      33.572 -21.418 -19.691  0.00  0.00    +0.030 C 
ATOM     16  C   UNL     1      36.061 -21.158 -20.044  0.00  0.00    +0.030 C 
ATOM     17  C   UNL     1      33.306 -20.570 -20.931  0.00  0.00    +0.002 C 
ATOM     18  C   UNL     1      35.796 -20.310 -21.284  0.00  0.00    +0.002 C 
ATOM     19  C   UNL     1      34.450 -19.594 -21.198  0.00  0.00    +0.000 C 
ENDBRANCH  13  14
ENDBRANCH  12  13
ENDBRANCH  11  12
ENDBRANCH   3   7
BRANCH   2  20
ATOM     20  C   UNL     1      35.215 -24.672 -12.431  0.00  0.00    +0.116 C 
BRANCH  20  21
ATOM     21  C   UNL     1      36.520 -25.044 -13.071  0.00  0.00    -0.003 C 
ATOM     22  C   UNL     1      37.721 -24.769 -12.416  0.00  0.00    -0.003 C 
ATOM     23  C   UNL     1      36.533 -25.662 -14.321  0.00  0.00    -0.003 C 
ATOM     24  C   UNL     1      38.935 -25.114 -13.012  0.00  0.00    +0.002 C 
ATOM     25  C   UNL     1      37.747 -26.007 -14.917  0.00  0.00    +0.002 C 
ATOM     26  C   UNL     1      38.947 -25.733 -14.263  0.00  0.00    +0.031 C 
BRANCH  26  29
ATOM     27  N   UNL     1      41.181 -26.814 -14.190  0.00  0.00    -0.343 N 
ATOM     28  N   UNL     1      40.462 -25.727 -16.129  0.00  0.00    -0.285 NA
ATOM     29  C   UNL     1      40.212 -26.091 -14.883  0.00  0.00    +0.117 C 
ATOM     30  H   UNL     1      42.031 -27.046 -14.630  0.00  0.00    +0.144 HD
ATOM     31  H   UNL     1      41.016 -27.092 -13.259  0.00  0.00    +0.144 HD
ATOM     32  H   UNL     1      41.317 -25.969 -16.551  0.00  0.00    +0.188 HD
ENDBRANCH  26  29
ENDBRANCH  20  21
ENDBRANCH   2  20
TORSDOF 7
ENDMDL
MODEL 2
REMARK VINA RESULT:     -11.0      2.182      6.473
REMARK  Name = 24963036
REMARK  7 active torsions:
REMARK  status: ('A' for Active; 'I' for Inactive)
REMARK    1  A    between atoms: N_2  and  C_20
REMARK    2  A    between atoms: C_3  and  C_7
REMARK    3  A    between atoms: C_11  and  C_12
REMARK    4  A    between atoms: C_12  and  O_13
REMARK    5  A    between atoms: O_13  and  C_14
REMARK    6  A    between atoms: C_20  and  C_21
REMARK    7  A    between atoms: C_26  and  C_29
REMARK                            x       y       z     vdW  Elec       q    Type
REMARK                         _______ _______ _______ _____ _____    ______ ____
ROOT
ATOM      1  O   UNL     1      35.289 -24.028 -12.964  0.00  0.00    -0.273 OA
ATOM      2  N   UNL     1      33.712 -25.081 -14.315  0.00  0.00    -0.299 N 
ATOM      3  C   UNL     1      34.986 -24.662 -13.972  0.00  0.00    +0.241 C 
ATOM      4  H   UNL     1      33.594 -25.584 -15.152  0.00  0.00    +0.150 HD
ENDROOT
BRANCH   3   7
ATOM      5  O   UNL     1      34.598 -23.638 -17.007  0.00  0.00    -0.272 OA
ATOM      6  N   UNL     1      36.468 -23.893 -15.667  0.00  0.00    -0.271 N 
ATOM      7  C   UNL     1      36.014 -25.092 -14.974  0.00  0.00    +0.152 C 
ATOM      8  C   UNL     1      37.264 -25.646 -14.300  0.00  0.00    +0.031 C 
ATOM      9  C   UNL     1      38.111 -24.402 -14.045  0.00  0.00    +0.024 C 
ATOM     10  C   UNL     1      37.821 -23.528 -15.256  0.00  0.00    +0.094 C 
ATOM     11  C   UNL     1      35.741 -23.303 -16.688  0.00  0.00    +0.256 C 
BRANCH  11  12
ATOM     12  C   UNL     1      36.434 -22.178 -17.414  0.00  0.00    +0.227 C 
BRANCH  12  13
ATOM     13  O   UNL     1      36.208 -22.383 -18.787  0.00  0.00    -0.347 OA
BRANCH  13  14
ATOM     14  C   UNL     1      35.585 -21.261 -19.401  0.00  0.00    +0.116 C 
ATOM     15  C   UNL     1      36.455 -20.760 -20.553  0.00  0.00    +0.030 C 
ATOM     16  C   UNL     1      34.187 -21.648 -19.879  0.00  0.00    +0.030 C 
ATOM     17  C   UNL     1      35.784 -19.615 -21.307  0.00  0.00    +0.002 C 
ATOM     18  C   UNL     1      33.515 -20.503 -20.632  0.00  0.00    +0.002 C 
ATOM     19  C   UNL     1      34.385 -20.001 -21.782  0.00  0.00    +0.000 C 
ENDBRANCH  13  14
ENDBRANCH  12  13
ENDBRANCH  11  12
ENDBRANCH   3   7
BRANCH   2  20
ATOM     20  C   UNL     1      32.546 -24.814 -13.503  0.00  0.00    +0.116 C 
BRANCH  20  21
ATOM     21  C   UNL     1      31.371 -24.383 -14.331  0.00  0.00    -0.003 C 
ATOM     22  C   UNL     1      31.299 -23.075 -14.811  0.00  0.00    -0.003 C 
ATOM     23  C   UNL     1      30.351 -25.289 -14.620  0.00  0.00    -0.003 C 
ATOM     24  C   UNL     1      30.206 -22.673 -15.580  0.00  0.00    +0.002 C 
ATOM     25  C   UNL     1      29.259 -24.888 -15.390  0.00  0.00    +0.002 C 
ATOM     26  C   UNL     1      29.186 -23.580 -15.869  0.00  0.00    +0.031 C 
BRANCH  26  29
ATOM     27  N   UNL     1      27.029 -22.379 -16.130  0.00  0.00    -0.343 N 
ATOM     28  N   UNL     1      27.963 -23.528 -17.937  0.00  0.00    -0.285 NA
ATOM     29  C   UNL     1      28.047 -23.162 -16.670  0.00  0.00    +0.117 C 
ATOM     30  H   UNL     1      26.267 -22.106 -16.691  0.00  0.00    +0.144 HD
ATOM     31  H   UNL     1      27.072 -22.098 -15.187  0.00  0.00    +0.144 HD
ATOM     32  H   UNL     1      27.194 -23.245 -18.481  0.00  0.00    +0.188 HD
ENDBRANCH  26  29
ENDBRANCH  20  21
ENDBRANCH   2  20
TORSDOF 7
ENDMDL
MODEL 3
REMARK VINA RESULT:      -9.9     12.384     17.222
REMARK  Name = 24963036
REMARK  7 active torsions:
REMARK  status: ('A' for Active; 'I' for Inactive)
REMARK    1  A    between atoms: N_2  and  C_20
REMARK    2  A    between atoms: C_3  and  C_7
REMARK    3  A    between atoms: C_11  and  C_12
REMARK    4  A    between atoms: C_12  and  O_13
REMARK    5  A    between atoms: O_13  and  C_14
REMARK    6  A    between atoms: C_20  and  C_21
REMARK    7  A    between atoms: C_26  and  C_29
REMARK                            x       y       z     vdW  Elec       q    Type
REMARK                         _______ _______ _______ _____ _____    ______ ____
ROOT
ATOM      1  O   UNL     1      32.948  -9.069 -19.870  0.00  0.00    -0.273 OA
ATOM      2  N   UNL     1      32.676  -8.958 -22.180  0.00  0.00    -0.299 N 
ATOM      3  C   UNL     1      32.437  -9.466 -20.915  0.00  0.00    +0.241 C 
ATOM      4  H   UNL     1      32.204  -9.361 -22.944  0.00  0.00    +0.150 HD
ENDROOT
BRANCH   3   7
ATOM      5  O   UNL     1      32.561 -11.519 -23.400  0.00  0.00    -0.272 OA
ATOM      6  N   UNL     1      32.171 -11.819 -21.139  0.00  0.00    -0.271 N 
ATOM      7  C   UNL     1      31.434 -10.580 -20.930  0.00  0.00    +0.152 C 
ATOM      8  C   UNL     1      30.759 -10.753 -19.575  0.00  0.00    +0.031 C 
ATOM      9  C   UNL     1      31.705 -11.688 -18.825  0.00  0.00    +0.024 C 
ATOM     10  C   UNL     1      32.216 -12.617 -19.916  0.00  0.00    +0.094 C 
ATOM     11  C   UNL     1      32.615 -12.221 -22.389  0.00  0.00    +0.256 C 
BRANCH  11  12
ATOM     12  C   UNL     1      33.203 -13.608 -22.455  0.00  0.00    +0.227 C 
BRANCH  12  13
ATOM     13  O   UNL     1      34.518 -13.466 -22.933  0.00  0.00    -0.347 OA
BRANCH  13  14
ATOM     14  C   UNL     1      34.811 -14.389 -23.975  0.00  0.00    +0.116 C 
ATOM     15  C   UNL     1      35.099 -15.765 -23.376  0.00  0.00    +0.030 C 
ATOM     16  C   UNL     1      33.644 -14.438 -24.960  0.00  0.00    +0.030 C 
ATOM     17  C   UNL     1      35.324 -16.814 -24.460  0.00  0.00    +0.002 C 
ATOM     18  C   UNL     1      33.869 -15.486 -26.046  0.00  0.00    +0.002 C 
ATOM     19  C   UNL     1      34.159 -16.861 -25.447  0.00  0.00    +0.000 C 
ENDBRANCH  13  14
ENDBRANCH  12  13
ENDBRANCH  11  12
ENDBRANCH   3   7
BRANCH   2  20
ATOM     20  C   UNL     1      33.585  -7.863 -22.433  0.00  0.00    +0.116 C 
BRANCH  20  21
ATOM     21  C   UNL     1      32.857  -6.586 -22.735  0.00  0.00    -0.003 C 
ATOM     22  C   UNL     1      33.281  -5.773 -23.786  0.00  0.00    -0.003 C 
ATOM     23  C   UNL     1      31.757  -6.211 -21.964  0.00  0.00    -0.003 C 
ATOM     24  C   UNL     1      32.605  -4.585 -24.066  0.00  0.00    +0.002 C 
ATOM     25  C   UNL     1      31.080  -5.024 -22.244  0.00  0.00    +0.002 C 
ATOM     26  C   UNL     1      31.504  -4.211 -23.294  0.00  0.00    +0.031 C 
BRANCH  26  29
ATOM     27  N   UNL     1      30.355  -2.133 -22.566  0.00  0.00    -0.343 N 
ATOM     28  N   UNL     1      30.567  -2.627 -24.840  0.00  0.00    -0.285 NA
ATOM     29  C   UNL     1      30.800  -2.973 -23.586  0.00  0.00    +0.117 C 
ATOM     30  H   UNL     1      29.881  -1.299 -22.786  0.00  0.00    +0.144 HD
ATOM     31  H   UNL     1      30.516  -2.375 -21.625  0.00  0.00    +0.144 HD
ATOM     32  H   UNL     1      30.092  -1.789 -25.039  0.00  0.00    +0.188 HD
ENDBRANCH  26  29
ENDBRANCH  20  21
ENDBRANCH   2  20
TORSDOF 7
ENDMDL
MODEL 4
REMARK VINA RESULT:      -9.9     12.529     17.292
REMARK  Name = 24963036
REMARK  7 active torsions:
REMARK  status: ('A' for Active; 'I' for Inactive)
REMARK    1  A    between atoms: N_2  and  C_20
REMARK    2  A    between atoms: C_3  and  C_7
REMARK    3  A    between atoms: C_11  and  C_12
REMARK    4  A    between atoms: C_12  and  O_13
REMARK    5  A    between atoms: O_13  and  C_14
REMARK    6  A    between atoms: C_20  and  C_21
REMARK    7  A    between atoms: C_26  and  C_29
REMARK                            x       y       z     vdW  Elec       q    Type
REMARK                         _______ _______ _______ _____ _____    ______ ____
ROOT
ATOM      1  O   UNL     1      32.696  -9.269 -19.987  0.00  0.00    -0.273 OA
ATOM      2  N   UNL     1      32.071  -8.236 -21.978  0.00  0.00    -0.299 N 
ATOM      3  C   UNL     1      32.166  -9.298 -21.095  0.00  0.00    +0.241 C 
ATOM      4  H   UNL     1      31.621  -8.383 -22.841  0.00  0.00    +0.150 HD
ENDROOT
BRANCH   3   7
ATOM      5  O   UNL     1      33.023 -10.258 -24.054  0.00  0.00    -0.272 OA
ATOM      6  N   UNL     1      32.575 -11.415 -22.100  0.00  0.00    -0.271 N 
ATOM      7  C   UNL     1      31.513 -10.538 -21.627  0.00  0.00    +0.152 C 
ATOM      8  C   UNL     1      30.819 -11.329 -20.524  0.00  0.00    +0.031 C 
ATOM      9  C   UNL     1      31.932 -12.218 -19.972  0.00  0.00    +0.024 C 
ATOM     10  C   UNL     1      32.753 -12.557 -21.206  0.00  0.00    +0.094 C 
ATOM     11  C   UNL     1      33.199 -11.236 -23.325  0.00  0.00    +0.256 C 
BRANCH  11  12
ATOM     12  C   UNL     1      34.149 -12.332 -23.737  0.00  0.00    +0.227 C 
BRANCH  12  13
ATOM     13  O   UNL     1      33.503 -13.066 -24.748  0.00  0.00    -0.347 OA
BRANCH  13  14
ATOM     14  C   UNL     1      33.657 -14.470 -24.572  0.00  0.00    +0.116 C 
ATOM     15  C   UNL     1      33.735 -15.152 -25.937  0.00  0.00    +0.030 C 
ATOM     16  C   UNL     1      34.903 -14.748 -23.732  0.00  0.00    +0.030 C 
ATOM     17  C   UNL     1      33.998 -16.649 -25.803  0.00  0.00    +0.002 C 
ATOM     18  C   UNL     1      35.166 -16.245 -23.597  0.00  0.00    +0.002 C 
ATOM     19  C   UNL     1      35.241 -16.927 -24.961  0.00  0.00    +0.000 C 
ENDBRANCH  13  14
ENDBRANCH  12  13
ENDBRANCH  11  12
ENDBRANCH   3   7
BRANCH   2  20
ATOM     20  C   UNL     1      32.602  -6.922 -21.693  0.00  0.00    +0.116 C 
BRANCH  20  21
ATOM     21  C   UNL     1      32.996  -6.192 -22.944  0.00  0.00    -0.003 C 
ATOM     22  C   UNL     1      32.205  -5.146 -23.420  0.00  0.00    -0.003 C 
ATOM     23  C   UNL     1      34.151  -6.561 -23.633  0.00  0.00    -0.003 C 
ATOM     24  C   UNL     1      32.570  -4.468 -24.583  0.00  0.00    +0.002 C 
ATOM     25  C   UNL     1      34.517  -5.883 -24.796  0.00  0.00    +0.002 C 
ATOM     26  C   UNL     1      33.726  -4.837 -25.271  0.00  0.00    +0.031 C 
BRANCH  26  29
ATOM     27  N   UNL     1      35.408  -4.191 -26.980  0.00  0.00    -0.343 N 
ATOM     28  N   UNL     1      33.210  -3.413 -27.137  0.00  0.00    -0.285 NA
ATOM     29  C   UNL     1      34.107  -4.132 -26.484  0.00  0.00    +0.117 C 
ATOM     30  H   UNL     1      35.643  -3.706 -27.804  0.00  0.00    +0.144 HD
ATOM     31  H   UNL     1      36.091  -4.719 -26.507  0.00  0.00    +0.144 HD
ATOM     32  H   UNL     1      33.465  -2.935 -27.958  0.00  0.00    +0.188 HD
ENDBRANCH  26  29
ENDBRANCH  20  21
ENDBRANCH   2  20
TORSDOF 7
ENDMDL
MODEL 5
REMARK VINA RESULT:      -9.8      7.881     11.539
REMARK  Name = 24963036
REMARK  7 active torsions:
REMARK  status: ('A' for Active; 'I' for Inactive)
REMARK    1  A    between atoms: N_2  and  C_20
REMARK    2  A    between atoms: C_3  and  C_7
REMARK    3  A    between atoms: C_11  and  C_12
REMARK    4  A    between atoms: C_12  and  O_13
REMARK    5  A    between atoms: O_13  and  C_14
REMARK    6  A    between atoms: C_20  and  C_21
REMARK    7  A    between atoms: C_26  and  C_29
REMARK                            x       y       z     vdW  Elec       q    Type
REMARK                         _______ _______ _______ _____ _____    ______ ____
ROOT
ATOM      1  O   UNL     1      34.234 -15.506 -23.936  0.00  0.00    -0.273 OA
ATOM      2  N   UNL     1      35.431 -16.630 -22.285  0.00  0.00    -0.299 N 
ATOM      3  C   UNL     1      34.796 -15.534 -22.844  0.00  0.00    +0.241 C 
ATOM      4  H   UNL     1      35.847 -16.529 -21.399  0.00  0.00    +0.150 HD
ENDROOT
BRANCH   3   7
ATOM      5  O   UNL     1      34.838 -12.636 -24.260  0.00  0.00    -0.272 OA
ATOM      6  N   UNL     1      33.769 -13.441 -22.372  0.00  0.00    -0.271 N 
ATOM      7  C   UNL     1      34.836 -14.335 -21.945  0.00  0.00    +0.152 C 
ATOM      8  C   UNL     1      34.487 -14.695 -20.505  0.00  0.00    +0.031 C 
ATOM      9  C   UNL     1      32.963 -14.599 -20.475  0.00  0.00    +0.024 C 
ATOM     10  C   UNL     1      32.669 -13.437 -21.412  0.00  0.00    +0.094 C 
ATOM     11  C   UNL     1      33.893 -12.604 -23.470  0.00  0.00    +0.256 C 
BRANCH  11  12
ATOM     12  C   UNL     1      32.768 -11.619 -23.668  0.00  0.00    +0.227 C 
BRANCH  12  13
ATOM     13  O   UNL     1      33.336 -10.470 -24.246  0.00  0.00    -0.347 OA
BRANCH  13  14
ATOM     14  C   UNL     1      32.967  -9.284 -23.553  0.00  0.00    +0.116 C 
ATOM     15  C   UNL     1      32.450  -9.644 -22.161  0.00  0.00    +0.030 C 
ATOM     16  C   UNL     1      34.165  -8.338 -23.480  0.00  0.00    +0.030 C 
ATOM     17  C   UNL     1      32.132  -8.398 -21.339  0.00  0.00    +0.002 C 
ATOM     18  C   UNL     1      33.847  -7.091 -22.660  0.00  0.00    +0.002 C 
ATOM     19  C   UNL     1      33.328  -7.452 -21.270  0.00  0.00    +0.000 C 
ENDBRANCH  13  14
ENDBRANCH  12  13
ENDBRANCH  11  12
ENDBRANCH   3   7
BRANCH   2  20
ATOM     20  C   UNL     1      35.511 -17.916 -22.941  0.00  0.00    +0.116 C 
BRANCH  20  21
ATOM     21  C   UNL     1      35.347 -19.051 -21.973  0.00  0.00    -0.003 C 
ATOM     22  C   UNL     1      36.458 -19.562 -21.303  0.00  0.00    -0.003 C 
ATOM     23  C   UNL     1      34.083 -19.597 -21.746  0.00  0.00    -0.003 C 
ATOM     24  C   UNL     1      36.306 -20.619 -20.403  0.00  0.00    +0.002 C 
ATOM     25  C   UNL     1      33.931 -20.652 -20.847  0.00  0.00    +0.002 C 
ATOM     26  C   UNL     1      35.041 -21.163 -20.176  0.00  0.00    +0.031 C 
BRANCH  26  29
ATOM     27  N   UNL     1      33.793 -23.130 -19.316  0.00  0.00    -0.343 N 
ATOM     28  N   UNL     1      35.781 -22.457 -18.291  0.00  0.00    -0.285 NA
ATOM     29  C   UNL     1      34.883 -22.264 -19.240  0.00  0.00    +0.117 C 
ATOM     30  H   UNL     1      33.705 -23.870 -18.672  0.00  0.00    +0.144 HD
ATOM     31  H   UNL     1      33.110 -23.001 -20.015  0.00  0.00    +0.144 HD
ATOM     32  H   UNL     1      35.676 -23.201 -17.657  0.00  0.00    +0.188 HD
ENDBRANCH  26  29
ENDBRANCH  20  21
ENDBRANCH   2  20
TORSDOF 7
ENDMDL
MODEL 6
REMARK VINA RESULT:      -9.8     12.581     17.083
REMARK  Name = 24963036
REMARK  7 active torsions:
REMARK  status: ('A' for Active; 'I' for Inactive)
REMARK    1  A    between atoms: N_2  and  C_20
REMARK    2  A    between atoms: C_3  and  C_7
REMARK    3  A    between atoms: C_11  and  C_12
REMARK    4  A    between atoms: C_12  and  O_13
REMARK    5  A    between atoms: O_13  and  C_14
REMARK    6  A    between atoms: C_20  and  C_21
REMARK    7  A    between atoms: C_26  and  C_29
REMARK                            x       y       z     vdW  Elec       q    Type
REMARK                         _______ _______ _______ _____ _____    ______ ____
ROOT
ATOM      1  O   UNL     1      33.145  -9.308 -19.433  0.00  0.00    -0.273 OA
ATOM      2  N   UNL     1      32.642  -8.456 -21.541  0.00  0.00    -0.299 N 
ATOM      3  C   UNL     1      32.504  -9.336 -20.481  0.00  0.00    +0.241 C 
ATOM      4  H   UNL     1      32.068  -8.582 -22.331  0.00  0.00    +0.150 HD
ENDROOT
BRANCH   3   7
ATOM      5  O   UNL     1      32.590 -10.899 -23.302  0.00  0.00    -0.272 OA
ATOM      6  N   UNL     1      32.104 -11.585 -21.146  0.00  0.00    -0.271 N 
ATOM      7  C   UNL     1      31.437 -10.359 -20.727  0.00  0.00    +0.152 C 
ATOM      8  C   UNL     1      30.706 -10.735 -19.444  0.00  0.00    +0.031 C 
ATOM      9  C   UNL     1      31.567 -11.853 -18.859  0.00  0.00    +0.024 C 
ATOM     10  C   UNL     1      32.058 -12.596 -20.092  0.00  0.00    +0.094 C 
ATOM     11  C   UNL     1      32.567 -11.778 -22.438  0.00  0.00    +0.256 C 
BRANCH  11  12
ATOM     12  C   UNL     1      33.071 -13.164 -22.748  0.00  0.00    +0.227 C 
BRANCH  12  13
ATOM     13  O   UNL     1      34.380 -13.016 -23.241  0.00  0.00    -0.347 OA
BRANCH  13  14
ATOM     14  C   UNL     1      34.676 -13.957 -24.266  0.00  0.00    +0.116 C 
ATOM     15  C   UNL     1      34.974 -15.320 -23.641  0.00  0.00    +0.030 C 
ATOM     16  C   UNL     1      33.507 -14.032 -25.247  0.00  0.00    +0.030 C 
ATOM     17  C   UNL     1      35.202 -16.389 -24.705  0.00  0.00    +0.002 C 
ATOM     18  C   UNL     1      33.735 -15.101 -26.312  0.00  0.00    +0.002 C 
ATOM     19  C   UNL     1      34.035 -16.461 -25.687  0.00  0.00    +0.000 C 
ENDBRANCH  13  14
ENDBRANCH  12  13
ENDBRANCH  11  12
ENDBRANCH   3   7
BRANCH   2  20
ATOM     20  C   UNL     1      33.587  -7.363 -21.543  0.00  0.00    +0.116 C 
BRANCH  20  21
ATOM     21  C   UNL     1      33.512  -6.558 -22.808  0.00  0.00    -0.003 C 
ATOM     22  C   UNL     1      32.440  -5.691 -23.020  0.00  0.00    -0.003 C 
ATOM     23  C   UNL     1      34.512  -6.679 -23.773  0.00  0.00    -0.003 C 
ATOM     24  C   UNL     1      32.370  -4.944 -24.197  0.00  0.00    +0.002 C 
ATOM     25  C   UNL     1      34.442  -5.932 -24.948  0.00  0.00    +0.002 C 
ATOM     26  C   UNL     1      33.371  -5.065 -25.161  0.00  0.00    +0.031 C 
BRANCH  26  29
ATOM     27  N   UNL     1      32.544  -3.116 -26.458  0.00  0.00    -0.343 N 
ATOM     28  N   UNL     1      33.949  -4.689 -27.463  0.00  0.00    -0.285 NA
ATOM     29  C   UNL     1      33.297  -4.287 -26.387  0.00  0.00    +0.117 C 
ATOM     30  H   UNL     1      32.509  -2.604 -27.298  0.00  0.00    +0.144 HD
ATOM     31  H   UNL     1      32.049  -2.801 -25.668  0.00  0.00    +0.144 HD
ATOM     32  H   UNL     1      33.901  -4.164 -28.293  0.00  0.00    +0.188 HD
ENDBRANCH  26  29
ENDBRANCH  20  21
ENDBRANCH   2  20
TORSDOF 7
ENDMDL
MODEL 7
REMARK VINA RESULT:      -9.8      2.519      7.189
REMARK  Name = 24963036
REMARK  7 active torsions:
REMARK  status: ('A' for Active; 'I' for Inactive)
REMARK    1  A    between atoms: N_2  and  C_20
REMARK    2  A    between atoms: C_3  and  C_7
REMARK    3  A    between atoms: C_11  and  C_12
REMARK    4  A    between atoms: C_12  and  O_13
REMARK    5  A    between atoms: O_13  and  C_14
REMARK    6  A    between atoms: C_20  and  C_21
REMARK    7  A    between atoms: C_26  and  C_29
REMARK                            x       y       z     vdW  Elec       q    Type
REMARK                         _______ _______ _______ _____ _____    ______ ____
ROOT
ATOM      1  O   UNL     1      38.400 -24.191 -15.127  0.00  0.00    -0.273 OA
ATOM      2  N   UNL     1      37.176 -22.404 -15.981  0.00  0.00    -0.299 N 
ATOM      3  C   UNL     1      37.557 -23.307 -15.003  0.00  0.00    +0.241 C 
ATOM      4  H   UNL     1      36.486 -21.738 -15.761  0.00  0.00    +0.150 HD
ENDROOT
BRANCH   3   7
ATOM      5  O   UNL     1      34.372 -22.819 -15.169  0.00  0.00    -0.272 OA
ATOM      6  N   UNL     1      35.701 -23.999 -13.686  0.00  0.00    -0.271 N 
ATOM      7  C   UNL     1      36.832 -23.082 -13.710  0.00  0.00    +0.152 C 
ATOM      8  C   UNL     1      37.681 -23.482 -12.509  0.00  0.00    +0.031 C 
ATOM      9  C   UNL     1      37.390 -24.973 -12.350  0.00  0.00    +0.024 C 
ATOM     10  C   UNL     1      35.923 -25.086 -12.735  0.00  0.00    +0.094 C 
ATOM     11  C   UNL     1      34.523 -23.748 -14.373  0.00  0.00    +0.256 C 
BRANCH  11  12
ATOM     12  C   UNL     1      33.393 -24.708 -14.099  0.00  0.00    +0.227 C 
BRANCH  12  13
ATOM     13  O   UNL     1      32.480 -24.030 -13.273  0.00  0.00    -0.347 OA
BRANCH  13  14
ATOM     14  C   UNL     1      31.163 -24.035 -13.812  0.00  0.00    +0.116 C 
ATOM     15  C   UNL     1      31.029 -22.919 -14.847  0.00  0.00    +0.030 C 
ATOM     16  C   UNL     1      30.864 -25.404 -14.421  0.00  0.00    +0.030 C 
ATOM     17  C   UNL     1      29.663 -22.944 -15.527  0.00  0.00    +0.002 C 
ATOM     18  C   UNL     1      29.498 -25.430 -15.100  0.00  0.00    +0.002 C 
ATOM     19  C   UNL     1      29.363 -24.314 -16.132  0.00  0.00    +0.000 C 
ENDBRANCH  13  14
ENDBRANCH  12  13
ENDBRANCH  11  12
ENDBRANCH   3   7
BRANCH   2  20
ATOM     20  C   UNL     1      37.743 -22.394 -17.311  0.00  0.00    +0.116 C 
BRANCH  20  21
ATOM     21  C   UNL     1      36.769 -21.885 -18.333  0.00  0.00    -0.003 C 
ATOM     22  C   UNL     1      37.170 -20.923 -19.260  0.00  0.00    -0.003 C 
ATOM     23  C   UNL     1      35.462 -22.373 -18.354  0.00  0.00    -0.003 C 
ATOM     24  C   UNL     1      36.264 -20.449 -20.210  0.00  0.00    +0.002 C 
ATOM     25  C   UNL     1      34.556 -21.900 -19.304  0.00  0.00    +0.002 C 
ATOM     26  C   UNL     1      34.957 -20.938 -20.231  0.00  0.00    +0.031 C 
BRANCH  26  29
ATOM     27  N   UNL     1      34.446 -19.797 -22.376  0.00  0.00    -0.343 N 
ATOM     28  N   UNL     1      32.715 -20.601 -21.029  0.00  0.00    -0.285 NA
ATOM     29  C   UNL     1      34.013 -20.444 -21.220  0.00  0.00    +0.117 C 
ATOM     30  H   UNL     1      33.789 -19.471 -23.034  0.00  0.00    +0.144 HD
ATOM     31  H   UNL     1      35.409 -19.667 -22.536  0.00  0.00    +0.144 HD
ATOM     32  H   UNL     1      32.075 -20.268 -21.697  0.00  0.00    +0.188 HD
ENDBRANCH  26  29
ENDBRANCH  20  21
ENDBRANCH   2  20
TORSDOF 7
ENDMDL
MODEL 8
REMARK VINA RESULT:      -9.7      7.493     11.618
REMARK  Name = 24963036
REMARK  7 active torsions:
REMARK  status: ('A' for Active; 'I' for Inactive)
REMARK    1  A    between atoms: N_2  and  C_20
REMARK    2  A    between atoms: C_3  and  C_7
REMARK    3  A    between atoms: C_11  and  C_12
REMARK    4  A    between atoms: C_12  and  O_13
REMARK    5  A    between atoms: O_13  and  C_14
REMARK    6  A    between atoms: C_20  and  C_21
REMARK    7  A    between atoms: C_26  and  C_29
REMARK                            x       y       z     vdW  Elec       q    Type
REMARK                         _______ _______ _______ _____ _____    ______ ____
ROOT
ATOM      1  O   UNL     1      36.072 -15.318 -24.184  0.00  0.00    -0.273 OA
ATOM      2  N   UNL     1      35.017 -17.279 -23.504  0.00  0.00    -0.299 N 
ATOM      3  C   UNL     1      35.067 -16.016 -24.067  0.00  0.00    +0.241 C 
ATOM      4  H   UNL     1      34.149 -17.742 -23.467  0.00  0.00    +0.150 HD
ENDROOT
BRANCH   3   7
ATOM      5  O   UNL     1      33.190 -14.413 -21.990  0.00  0.00    -0.272 OA
ATOM      6  N   UNL     1      33.608 -14.146 -24.250  0.00  0.00    -0.271 N 
ATOM      7  C   UNL     1      33.728 -15.563 -24.566  0.00  0.00    +0.152 C 
ATOM      8  C   UNL     1      33.639 -15.630 -26.086  0.00  0.00    +0.031 C 
ATOM      9  C   UNL     1      34.201 -14.283 -26.534  0.00  0.00    +0.024 C 
ATOM     10  C   UNL     1      33.718 -13.326 -25.454  0.00  0.00    +0.094 C 
ATOM     11  C   UNL     1      33.274 -13.690 -22.984  0.00  0.00    +0.256 C 
BRANCH  11  12
ATOM     12  C   UNL     1      33.019 -12.209 -22.873  0.00  0.00    +0.227 C 
BRANCH  12  13
ATOM     13  O   UNL     1      31.762 -12.061 -22.259  0.00  0.00    -0.347 OA
BRANCH  13  14
ATOM     14  C   UNL     1      31.565 -10.747 -21.752  0.00  0.00    +0.116 C 
ATOM     15  C   UNL     1      31.976 -10.697 -20.281  0.00  0.00    +0.030 C 
ATOM     16  C   UNL     1      32.360  -9.748 -22.592  0.00  0.00    +0.030 C 
ATOM     17  C   UNL     1      31.876  -9.284 -19.716  0.00  0.00    +0.002 C 
ATOM     18  C   UNL     1      32.259  -8.334 -22.028  0.00  0.00    +0.002 C 
ATOM     19  C   UNL     1      32.668  -8.286 -20.557  0.00  0.00    +0.000 C 
ENDBRANCH  13  14
ENDBRANCH  12  13
ENDBRANCH  11  12
ENDBRANCH   3   7
BRANCH   2  20
ATOM     20  C   UNL     1      36.179 -17.953 -22.969  0.00  0.00    +0.116 C 
BRANCH  20  21
ATOM     21  C   UNL     1      35.803 -19.041 -22.005  0.00  0.00    -0.003 C 
ATOM     22  C   UNL     1      34.473 -19.450 -21.901  0.00  0.00    -0.003 C 
ATOM     23  C   UNL     1      36.781 -19.641 -21.214  0.00  0.00    -0.003 C 
ATOM     24  C   UNL     1      34.123 -20.461 -21.005  0.00  0.00    +0.002 C 
ATOM     25  C   UNL     1      36.431 -20.652 -20.318  0.00  0.00    +0.002 C 
ATOM     26  C   UNL     1      35.103 -21.061 -20.213  0.00  0.00    +0.031 C 
BRANCH  26  29
ATOM     27  N   UNL     1      33.504 -22.758 -19.359  0.00  0.00    -0.343 N 
ATOM     28  N   UNL     1      35.582 -22.474 -18.330  0.00  0.00    -0.285 NA
ATOM     29  C   UNL     1      34.737 -22.114 -19.279  0.00  0.00    +0.117 C 
ATOM     30  H   UNL     1      33.277 -23.469 -18.716  0.00  0.00    +0.144 HD
ATOM     31  H   UNL     1      32.859 -22.501 -20.058  0.00  0.00    +0.144 HD
ATOM     32  H   UNL     1      35.337 -23.187 -17.697  0.00  0.00    +0.188 HD
ENDBRANCH  26  29
ENDBRANCH  20  21
ENDBRANCH   2  20
TORSDOF 7
ENDMDL
MODEL 9
REMARK VINA RESULT:      -9.6      5.278      8.594
REMARK  Name = 24963036
REMARK  7 active torsions:
REMARK  status: ('A' for Active; 'I' for Inactive)
REMARK    1  A    between atoms: N_2  and  C_20
REMARK    2  A    between atoms: C_3  and  C_7
REMARK    3  A    between atoms: C_11  and  C_12
REMARK    4  A    between atoms: C_12  and  O_13
REMARK    5  A    between atoms: O_13  and  C_14
REMARK    6  A    between atoms: C_20  and  C_21
REMARK    7  A    between atoms: C_26  and  C_29
REMARK                            x       y       z     vdW  Elec       q    Type
REMARK                         _______ _______ _______ _____ _____    ______ ____
ROOT
ATOM      1  O   UNL     1      37.343 -18.647 -22.251  0.00  0.00    -0.273 OA
ATOM      2  N   UNL     1      36.093 -19.889 -20.729  0.00  0.00    -0.299 N 
ATOM      3  C   UNL     1      36.266 -19.032 -21.803  0.00  0.00    +0.241 C 
ATOM      4  H   UNL     1      35.176 -20.127 -20.462  0.00  0.00    +0.150 HD
ENDROOT
BRANCH   3   7
ATOM      5  O   UNL     1      34.943 -16.297 -20.719  0.00  0.00    -0.272 OA
ATOM      6  N   UNL     1      35.105 -17.229 -22.831  0.00  0.00    -0.271 N 
ATOM      7  C   UNL     1      34.962 -18.617 -22.413  0.00  0.00    +0.152 C 
ATOM      8  C   UNL     1      34.669 -19.381 -23.699  0.00  0.00    +0.031 C 
ATOM      9  C   UNL     1      35.373 -18.552 -24.772  0.00  0.00    +0.024 C 
ATOM     10  C   UNL     1      35.188 -17.122 -24.286  0.00  0.00    +0.094 C 
ATOM     11  C   UNL     1      35.011 -16.169 -21.943  0.00  0.00    +0.256 C 
BRANCH  11  12
ATOM     12  C   UNL     1      35.007 -14.796 -22.566  0.00  0.00    +0.227 C 
BRANCH  12  13
ATOM     13  O   UNL     1      33.659 -14.428 -22.722  0.00  0.00    -0.347 OA
BRANCH  13  14
ATOM     14  C   UNL     1      33.315 -13.303 -21.921  0.00  0.00    +0.116 C 
ATOM     15  C   UNL     1      32.521 -12.301 -22.758  0.00  0.00    +0.030 C 
ATOM     16  C   UNL     1      32.523 -13.767 -20.699  0.00  0.00    +0.030 C 
ATOM     17  C   UNL     1      32.044 -11.120 -21.919  0.00  0.00    +0.002 C 
ATOM     18  C   UNL     1      32.046 -12.586 -19.858  0.00  0.00    +0.002 C 
ATOM     19  C   UNL     1      31.256 -11.584 -20.696  0.00  0.00    +0.000 C 
ENDBRANCH  13  14
ENDBRANCH  12  13
ENDBRANCH  11  12
ENDBRANCH   3   7
BRANCH   2  20
ATOM     20  C   UNL     1      37.195 -20.452 -19.982  0.00  0.00    +0.116 C 
BRANCH  20  21
ATOM     21  C   UNL     1      36.722 -21.297 -18.835  0.00  0.00    -0.003 C 
ATOM     22  C   UNL     1      37.482 -21.376 -17.668  0.00  0.00    -0.003 C 
ATOM     23  C   UNL     1      35.525 -22.005 -18.937  0.00  0.00    -0.003 C 
ATOM     24  C   UNL     1      37.043 -22.163 -16.602  0.00  0.00    +0.002 C 
ATOM     25  C   UNL     1      35.086 -22.790 -17.871  0.00  0.00    +0.002 C 
ATOM     26  C   UNL     1      35.845 -22.870 -16.704  0.00  0.00    +0.031 C 
BRANCH  26  29
ATOM     27  N   UNL     1      35.096 -23.130 -14.351  0.00  0.00    -0.343 N 
ATOM     28  N   UNL     1      35.246 -24.993 -15.752  0.00  0.00    -0.285 NA
ATOM     29  C   UNL     1      35.388 -23.689 -15.594  0.00  0.00    +0.117 C 
ATOM     30  H   UNL     1      34.788 -23.703 -13.612  0.00  0.00    +0.144 HD
ATOM     31  H   UNL     1      35.199 -22.160 -14.212  0.00  0.00    +0.144 HD
ATOM     32  H   UNL     1      34.937 -25.550 -15.002  0.00  0.00    +0.188 HD
ENDBRANCH  26  29
ENDBRANCH  20  21
ENDBRANCH   2  20
TORSDOF 7
ENDMDL
