MODEL 1
REMARK VINA RESULT:     -11.9      0.000      0.000
REMARK  Name = 54671008
REMARK  7 active torsions:
REMARK  status: ('A' for Active; 'I' for Inactive)
REMARK    1  A    between atoms: C_4  and  C_21
REMARK    2  A    between atoms: C_6  and  C_11
REMARK    3  A    between atoms: C_8  and  O_34
REMARK    4  A    between atoms: N_10  and  C_13
REMARK    5  A    between atoms: C_13  and  C_15
REMARK    6  A    between atoms: C_21  and  N_25
REMARK    7  A    between atoms: C_26  and  C_31
REMARK                            x       y       z     vdW  Elec       q    Type
REMARK                         _______ _______ _______ _____ _____    ______ ____
ROOT
ATOM      1  O   UNL     1      36.351 -23.340 -15.009  0.00  0.00    -0.271 OA
ATOM      2  N   UNL     1      34.034 -23.666 -14.941  0.00  0.00    -0.232 N 
ATOM      3  N   UNL     1      32.769 -23.407 -16.938  0.00  0.00    -0.386 NA
ATOM      4  C   UNL     1      32.846 -23.668 -15.669  0.00  0.00    +0.182 C 
ATOM      5  C   UNL     1      35.251 -23.371 -15.559  0.00  0.00    +0.265 C 
ATOM      6  C   UNL     1      33.939 -23.115 -17.584  0.00  0.00    +0.199 C 
ATOM      7  C   UNL     1      34.004 -23.976 -13.513  0.00  0.00    +0.122 C 
ATOM      8  C   UNL     1      35.152 -23.075 -17.015  0.00  0.00    +0.245 C 
ENDROOT
BRANCH   6  11
ATOM      9  O   UNL     1      34.005 -23.707 -19.855  0.00  0.00    -0.268 OA
ATOM     10  N   UNL     1      33.512 -21.503 -19.277  0.00  0.00    -0.295 N 
ATOM     11  C   UNL     1      33.826 -22.825 -19.020  0.00  0.00    +0.275 C 
ATOM     12  H   UNL     1      33.394 -20.893 -18.513  0.00  0.00    +0.150 HD
BRANCH  10  13
ATOM     13  C   UNL     1      33.348 -20.973 -20.611  0.00  0.00    +0.117 C 
BRANCH  13  15
ATOM     14  F   UNL     1      38.034 -18.471 -22.477  0.00  0.00    -0.204 F 
ATOM     15  C   UNL     1      34.598 -20.306 -21.109  0.00  0.00    -0.002 C 
ATOM     16  C   UNL     1      35.799 -20.472 -20.419  0.00  0.00    -0.000 C 
ATOM     17  C   UNL     1      34.558 -19.520 -22.261  0.00  0.00    -0.000 C 
ATOM     18  C   UNL     1      36.959 -19.852 -20.882  0.00  0.00    +0.029 C 
ATOM     19  C   UNL     1      35.718 -18.900 -22.723  0.00  0.00    +0.029 C 
ATOM     20  C   UNL     1      36.919 -19.066 -22.033  0.00  0.00    +0.140 C 
ENDBRANCH  13  15
ENDBRANCH  10  13
ENDBRANCH   6  11
BRANCH   4  21
ATOM     21  C   UNL     1      31.565 -23.995 -14.940  0.00  0.00    +0.117 C 
ATOM     22  C   UNL     1      31.467 -25.498 -14.721  0.00  0.00    +0.028 C 
ATOM     23  C   UNL     1      31.515 -23.236 -13.621  0.00  0.00    +0.028 C 
BRANCH  21  25
ATOM     24  O   UNL     1      28.786 -24.714 -14.898  0.00  0.00    -0.265 OA
ATOM     25  N   UNL     1      30.544 -23.534 -15.845  0.00  0.00    -0.293 N 
ATOM     26  C   UNL     1      29.220 -23.938 -15.745  0.00  0.00    +0.302 C 
ATOM     27  H   UNL     1      30.795 -22.906 -16.561  0.00  0.00    +0.150 HD
BRANCH  26  31
ATOM     28  O   UNL     1      27.614 -22.237 -16.528  0.00  0.00    -0.416 OA
ATOM     29  N   UNL     1      28.037 -23.914 -17.947  0.00  0.00    -0.102 NA
ATOM     30  N   UNL     1      27.125 -23.067 -18.547  0.00  0.00    -0.111 NA
ATOM     31  C   UNL     1      28.294 -23.391 -16.771  0.00  0.00    +0.304 A 
ATOM     32  C   UNL     1      26.907 -22.103 -17.684  0.00  0.00    +0.227 A 
ATOM     33  C   UNL     1      26.030 -20.930 -17.790  0.00  0.00    +0.097 C 
ENDBRANCH  26  31
ENDBRANCH  21  25
ENDBRANCH   4  21
BRANCH   8  34
ATOM     34  O   UNL     1      36.307 -22.775 -17.701  0.00  0.00    -0.370 OA
ATOM     35  H   UNL     1      36.716 -21.940 -17.587  0.00  0.00    +0.211 HD
ENDBRANCH   8  34
TORSDOF 7
ENDMDL
MODEL 2
REMARK VINA RESULT:     -10.5      2.366      6.002
REMARK  Name = 54671008
REMARK  7 active torsions:
REMARK  status: ('A' for Active; 'I' for Inactive)
REMARK    1  A    between atoms: C_4  and  C_21
REMARK    2  A    between atoms: C_6  and  C_11
REMARK    3  A    between atoms: C_8  and  O_34
REMARK    4  A    between atoms: N_10  and  C_13
REMARK    5  A    between atoms: C_13  and  C_15
REMARK    6  A    between atoms: C_21  and  N_25
REMARK    7  A    between atoms: C_26  and  C_31
REMARK                            x       y       z     vdW  Elec       q    Type
REMARK                         _______ _______ _______ _____ _____    ______ ____
ROOT
ATOM      1  O   UNL     1      30.371 -22.501 -17.500  0.00  0.00    -0.271 OA
ATOM      2  N   UNL     1      31.549 -23.395 -15.686  0.00  0.00    -0.232 N 
ATOM      3  N   UNL     1      33.920 -23.539 -15.802  0.00  0.00    -0.386 NA
ATOM      4  C   UNL     1      32.801 -23.725 -15.172  0.00  0.00    +0.182 C 
ATOM      5  C   UNL     1      31.425 -22.826 -16.956  0.00  0.00    +0.265 C 
ATOM      6  C   UNL     1      33.844 -22.982 -17.049  0.00  0.00    +0.199 C 
ATOM      7  C   UNL     1      30.352 -23.648 -14.886  0.00  0.00    +0.122 C 
ATOM      8  C   UNL     1      32.714 -22.615 -17.670  0.00  0.00    +0.245 C 
ENDROOT
BRANCH   6  11
ATOM      9  O   UNL     1      36.188 -23.030 -17.183  0.00  0.00    -0.268 OA
ATOM     10  N   UNL     1      34.966 -22.297 -19.028  0.00  0.00    -0.295 N 
ATOM     11  C   UNL     1      35.124 -22.779 -17.743  0.00  0.00    +0.275 C 
ATOM     12  H   UNL     1      34.053 -22.137 -19.360  0.00  0.00    +0.150 HD
BRANCH  10  13
ATOM     13  C   UNL     1      36.077 -22.017 -19.911  0.00  0.00    +0.117 C 
BRANCH  13  15
ATOM     14  F   UNL     1      35.525 -17.038 -22.480  0.00  0.00    -0.204 F 
ATOM     15  C   UNL     1      35.930 -20.689 -20.596  0.00  0.00    -0.002 C 
ATOM     16  C   UNL     1      34.675 -20.266 -21.034  0.00  0.00    -0.000 C 
ATOM     17  C   UNL     1      37.047 -19.879 -20.794  0.00  0.00    -0.000 C 
ATOM     18  C   UNL     1      34.538 -19.033 -21.671  0.00  0.00    +0.029 C 
ATOM     19  C   UNL     1      36.911 -18.645 -21.431  0.00  0.00    +0.029 C 
ATOM     20  C   UNL     1      35.656 -18.222 -21.869  0.00  0.00    +0.140 C 
ENDBRANCH  13  15
ENDBRANCH  10  13
ENDBRANCH   6  11
BRANCH   4  21
ATOM     21  C   UNL     1      32.866 -24.338 -13.793  0.00  0.00    +0.117 C 
ATOM     22  C   UNL     1      32.662 -23.257 -12.740  0.00  0.00    +0.028 C 
ATOM     23  C   UNL     1      31.822 -25.440 -13.670  0.00  0.00    +0.028 C 
BRANCH  21  25
ATOM     24  O   UNL     1      34.786 -23.931 -11.698  0.00  0.00    -0.265 OA
ATOM     25  N   UNL     1      34.200 -24.876 -13.734  0.00  0.00    -0.293 N 
ATOM     26  C   UNL     1      35.061 -24.623 -12.674  0.00  0.00    +0.302 C 
ATOM     27  H   UNL     1      34.513 -25.446 -14.473  0.00  0.00    +0.150 HD
BRANCH  26  31
ATOM     28  O   UNL     1      37.217 -24.931 -13.832  0.00  0.00    -0.416 OA
ATOM     29  N   UNL     1      36.956 -26.069 -11.924  0.00  0.00    -0.102 NA
ATOM     30  N   UNL     1      38.210 -26.361 -12.427  0.00  0.00    -0.111 NA
ATOM     31  C   UNL     1      36.413 -25.231 -12.775  0.00  0.00    +0.304 A 
ATOM     32  C   UNL     1      38.319 -25.675 -13.541  0.00  0.00    +0.227 A 
ATOM     33  C   UNL     1      39.436 -25.602 -14.491  0.00  0.00    +0.097 C 
ENDBRANCH  26  31
ENDBRANCH  21  25
ENDBRANCH   4  21
BRANCH   8  34
ATOM     34  O   UNL     1      32.680 -22.057 -18.927  0.00  0.00    -0.370 OA
ATOM     35  H   UNL     1      33.426 -22.124 -19.490  0.00  0.00    +0.211 HD
ENDBRANCH   8  34
TORSDOF 7
ENDMDL
MODEL 3
REMARK VINA RESULT:     -10.1      2.095      3.045
REMARK  Name = 54671008
REMARK  7 active torsions:
REMARK  status: ('A' for Active; 'I' for Inactive)
REMARK    1  A    between atoms: C_4  and  C_21
REMARK    2  A    between atoms: C_6  and  C_11
REMARK    3  A    between atoms: C_8  and  O_34
REMARK    4  A    between atoms: N_10  and  C_13
REMARK    5  A    between atoms: C_13  and  C_15
REMARK    6  A    between atoms: C_21  and  N_25
REMARK    7  A    between atoms: C_26  and  C_31
REMARK                            x       y       z     vdW  Elec       q    Type
REMARK                         _______ _______ _______ _____ _____    ______ ____
ROOT
ATOM      1  O   UNL     1      38.409 -21.278 -16.864  0.00  0.00    -0.271 OA
ATOM      2  N   UNL     1      36.827 -22.752 -15.967  0.00  0.00    -0.232 N 
ATOM      3  N   UNL     1      34.900 -23.300 -17.246  0.00  0.00    -0.386 NA
ATOM      4  C   UNL     1      35.617 -23.411 -16.171  0.00  0.00    +0.182 C 
ATOM      5  C   UNL     1      37.355 -21.905 -16.945  0.00  0.00    +0.265 C 
ATOM      6  C   UNL     1      35.380 -22.482 -18.232  0.00  0.00    +0.199 C 
ATOM      7  C   UNL     1      37.554 -22.952 -14.715  0.00  0.00    +0.122 C 
ATOM      8  C   UNL     1      36.525 -21.787 -18.176  0.00  0.00    +0.245 C 
ENDROOT
BRANCH   6  11
ATOM      9  O   UNL     1      34.039 -23.371 -19.942  0.00  0.00    -0.268 OA
ATOM     10  N   UNL     1      34.440 -21.075 -19.900  0.00  0.00    -0.295 N 
ATOM     11  C   UNL     1      34.551 -22.374 -19.440  0.00  0.00    +0.275 C 
ATOM     12  H   UNL     1      34.902 -20.362 -19.404  0.00  0.00    +0.150 HD
BRANCH  10  13
ATOM     13  C   UNL     1      33.678 -20.713 -21.074  0.00  0.00    +0.117 C 
BRANCH  13  15
ATOM     14  F   UNL     1      36.292 -16.796 -24.160  0.00  0.00    -0.204 F 
ATOM     15  C   UNL     1      34.375 -19.669 -21.897  0.00  0.00    -0.002 C 
ATOM     16  C   UNL     1      35.145 -18.687 -21.272  0.00  0.00    -0.000 C 
ATOM     17  C   UNL     1      34.253 -19.679 -23.286  0.00  0.00    -0.000 C 
ATOM     18  C   UNL     1      35.792 -17.717 -22.036  0.00  0.00    +0.029 C 
ATOM     19  C   UNL     1      34.900 -18.709 -24.051  0.00  0.00    +0.029 C 
ATOM     20  C   UNL     1      35.670 -17.728 -23.426  0.00  0.00    +0.140 C 
ENDBRANCH  13  15
ENDBRANCH  10  13
ENDBRANCH   6  11
BRANCH   4  21
ATOM     21  C   UNL     1      35.103 -24.312 -15.073  0.00  0.00    +0.117 C 
ATOM     22  C   UNL     1      35.728 -25.694 -15.208  0.00  0.00    +0.028 C 
ATOM     23  C   UNL     1      35.406 -23.693 -13.715  0.00  0.00    +0.028 C 
BRANCH  21  25
ATOM     24  O   UNL     1      33.052 -24.952 -13.170  0.00  0.00    -0.265 OA
ATOM     25  N   UNL     1      33.685 -24.356 -15.320  0.00  0.00    -0.293 N 
ATOM     26  C   UNL     1      32.764 -24.677 -14.332  0.00  0.00    +0.302 C 
ATOM     27  H   UNL     1      33.356 -24.149 -16.225  0.00  0.00    +0.150 HD
BRANCH  26  31
ATOM     28  O   UNL     1      30.743 -23.568 -15.208  0.00  0.00    -0.416 OA
ATOM     29  N   UNL     1      30.543 -25.746 -14.740  0.00  0.00    -0.102 NA
ATOM     30  N   UNL     1      29.325 -25.298 -15.215  0.00  0.00    -0.111 NA
ATOM     31  C   UNL     1      31.340 -24.704 -14.754  0.00  0.00    +0.304 A 
ATOM     32  C   UNL     1      29.488 -24.022 -15.475  0.00  0.00    +0.227 A 
ATOM     33  C   UNL     1      28.528 -23.043 -16.000  0.00  0.00    +0.097 C 
ENDBRANCH  26  31
ENDBRANCH  21  25
ENDBRANCH   4  21
BRANCH   8  34
ATOM     34  O   UNL     1      36.973 -20.972 -19.190  0.00  0.00    -0.370 OA
ATOM     35  H   UNL     1      37.890 -20.912 -19.372  0.00  0.00    +0.211 HD
ENDBRANCH   8  34
TORSDOF 7
ENDMDL
MODEL 4
REMARK VINA RESULT:      -9.4      6.036      9.773
REMARK  Name = 54671008
REMARK  7 active torsions:
REMARK  status: ('A' for Active; 'I' for Inactive)
REMARK    1  A    between atoms: C_4  and  C_21
REMARK    2  A    between atoms: C_6  and  C_11
REMARK    3  A    between atoms: C_8  and  O_34
REMARK    4  A    between atoms: N_10  and  C_13
REMARK    5  A    between atoms: C_13  and  C_15
REMARK    6  A    between atoms: C_21  and  N_25
REMARK    7  A    between atoms: C_26  and  C_31
REMARK                            x       y       z     vdW  Elec       q    Type
REMARK                         _______ _______ _______ _____ _____    ______ ____
ROOT
ATOM      1  O   UNL     1      33.335 -18.093 -26.387  0.00  0.00    -0.271 OA
ATOM      2  N   UNL     1      34.724 -18.234 -24.507  0.00  0.00    -0.232 N 
ATOM      3  N   UNL     1      35.202 -16.261 -23.271  0.00  0.00    -0.386 NA
ATOM      4  C   UNL     1      35.331 -17.537 -23.466  0.00  0.00    +0.182 C 
ATOM      5  C   UNL     1      33.913 -17.573 -25.434  0.00  0.00    +0.265 C 
ATOM      6  C   UNL     1      34.415 -15.574 -24.154  0.00  0.00    +0.199 C 
ATOM      7  C   UNL     1      34.937 -19.675 -24.632  0.00  0.00    +0.122 C 
ATOM      8  C   UNL     1      33.770 -16.110 -25.200  0.00  0.00    +0.245 C 
ENDROOT
BRANCH   6  11
ATOM      9  O   UNL     1      35.252 -13.384 -24.021  0.00  0.00    -0.268 OA
ATOM     10  N   UNL     1      32.997 -13.761 -23.563  0.00  0.00    -0.295 N 
ATOM     11  C   UNL     1      34.283 -14.130 -23.911  0.00  0.00    +0.275 C 
ATOM     12  H   UNL     1      32.307 -14.461 -23.509  0.00  0.00    +0.150 HD
BRANCH  10  13
ATOM     13  C   UNL     1      32.616 -12.397 -23.274  0.00  0.00    +0.117 C 
BRANCH  13  15
ATOM     14  F   UNL     1      31.486 -11.633 -17.812  0.00  0.00    -0.204 F 
ATOM     15  C   UNL     1      32.315 -12.193 -21.817  0.00  0.00    -0.002 C 
ATOM     16  C   UNL     1      31.851 -10.957 -21.367  0.00  0.00    -0.000 C 
ATOM     17  C   UNL     1      32.498 -13.240 -20.914  0.00  0.00    -0.000 C 
ATOM     18  C   UNL     1      31.572 -10.767 -20.014  0.00  0.00    +0.029 C 
ATOM     19  C   UNL     1      32.218 -13.051 -19.561  0.00  0.00    +0.029 C 
ATOM     20  C   UNL     1      31.755 -11.814 -19.111  0.00  0.00    +0.140 C 
ENDBRANCH  13  15
ENDBRANCH  10  13
ENDBRANCH   6  11
BRANCH   4  21
ATOM     21  C   UNL     1      36.196 -18.311 -22.500  0.00  0.00    +0.117 C 
ATOM     22  C   UNL     1      37.255 -19.089 -23.267  0.00  0.00    +0.028 C 
ATOM     23  C   UNL     1      36.824 -17.358 -21.493  0.00  0.00    +0.028 C 
BRANCH  21  25
ATOM     24  O   UNL     1      36.760 -20.147 -20.366  0.00  0.00    -0.265 OA
ATOM     25  N   UNL     1      35.260 -19.200 -21.860  0.00  0.00    -0.293 N 
ATOM     26  C   UNL     1      35.627 -20.056 -20.831  0.00  0.00    +0.302 C 
ATOM     27  H   UNL     1      34.323 -19.199 -22.165  0.00  0.00    +0.150 HD
BRANCH  26  31
ATOM     28  O   UNL     1      34.820 -21.801 -19.285  0.00  0.00    -0.416 OA
ATOM     29  N   UNL     1      33.301 -20.961 -20.697  0.00  0.00    -0.102 NA
ATOM     30  N   UNL     1      32.677 -21.915 -19.916  0.00  0.00    -0.111 NA
ATOM     31  C   UNL     1      34.550 -20.928 -20.294  0.00  0.00    +0.304 A 
ATOM     32  C   UNL     1      33.601 -22.379 -19.107  0.00  0.00    +0.227 A 
ATOM     33  C   UNL     1      33.503 -23.408 -18.064  0.00  0.00    +0.097 C 
ENDBRANCH  26  31
ENDBRANCH  21  25
ENDBRANCH   4  21
BRANCH   8  34
ATOM     34  O   UNL     1      32.987 -15.383 -26.067  0.00  0.00    -0.370 OA
ATOM     35  H   UNL     1      32.500 -15.821 -26.737  0.00  0.00    +0.211 HD
ENDBRANCH   8  34
TORSDOF 7
ENDMDL
MODEL 5
REMARK VINA RESULT:      -9.3      6.390      9.910
REMARK  Name = 54671008
REMARK  7 active torsions:
REMARK  status: ('A' for Active; 'I' for Inactive)
REMARK    1  A    between atoms: C_4  and  C_21
REMARK    2  A    between atoms: C_6  and  C_11
REMARK    3  A    between atoms: C_8  and  O_34
REMARK    4  A    between atoms: N_10  and  C_13
REMARK    5  A    between atoms: C_13  and  C_15
REMARK    6  A    between atoms: C_21  and  N_25
REMARK    7  A    between atoms: C_26  and  C_31
REMARK                            x       y       z     vdW  Elec       q    Type
REMARK                         _______ _______ _______ _____ _____    ______ ____
ROOT
ATOM      1  O   UNL     1      33.989 -15.463 -25.906  0.00  0.00    -0.271 OA
ATOM      2  N   UNL     1      34.980 -16.994 -24.439  0.00  0.00    -0.232 N 
ATOM      3  N   UNL     1      35.111 -16.463 -22.126  0.00  0.00    -0.386 NA
ATOM      4  C   UNL     1      35.335 -17.266 -23.120  0.00  0.00    +0.182 C 
ATOM      5  C   UNL     1      34.340 -15.798 -24.777  0.00  0.00    +0.265 C 
ATOM      6  C   UNL     1      34.485 -15.281 -22.411  0.00  0.00    +0.199 C 
ATOM      7  C   UNL     1      35.280 -17.973 -25.483  0.00  0.00    +0.122 C 
ATOM      8  C   UNL     1      34.087 -14.886 -23.628  0.00  0.00    +0.245 C 
ENDROOT
BRANCH   6  11
ATOM      9  O   UNL     1      35.177 -13.905 -20.638  0.00  0.00    -0.268 OA
ATOM     10  N   UNL     1      32.896 -14.190 -21.021  0.00  0.00    -0.295 N 
ATOM     11  C   UNL     1      34.241 -14.389 -21.268  0.00  0.00    +0.275 C 
ATOM     12  H   UNL     1      32.241 -14.639 -21.604  0.00  0.00    +0.150 HD
BRANCH  10  13
ATOM     13  C   UNL     1      32.402 -13.354 -19.950  0.00  0.00    +0.117 C 
BRANCH  13  15
ATOM     14  F   UNL     1      31.751  -8.004 -21.579  0.00  0.00    -0.204 F 
ATOM     15  C   UNL     1      32.229 -11.928 -20.385  0.00  0.00    -0.002 C 
ATOM     16  C   UNL     1      32.360 -10.895 -19.456  0.00  0.00    -0.000 C 
ATOM     17  C   UNL     1      31.935 -11.635 -21.717  0.00  0.00    -0.000 C 
ATOM     18  C   UNL     1      32.199  -9.570 -19.860  0.00  0.00    +0.029 C 
ATOM     19  C   UNL     1      31.774 -10.310 -22.120  0.00  0.00    +0.029 C 
ATOM     20  C   UNL     1      31.905  -9.277 -21.192  0.00  0.00    +0.140 C 
ENDBRANCH  13  15
ENDBRANCH  10  13
ENDBRANCH   6  11
BRANCH   4  21
ATOM     21  C   UNL     1      36.025 -18.576 -22.824  0.00  0.00    +0.117 C 
ATOM     22  C   UNL     1      36.223 -19.357 -24.116  0.00  0.00    +0.028 C 
ATOM     23  C   UNL     1      37.351 -18.314 -22.123  0.00  0.00    +0.028 C 
BRANCH  21  25
ATOM     24  O   UNL     1      36.627 -20.704 -20.994  0.00  0.00    -0.265 OA
ATOM     25  N   UNL     1      35.097 -19.246 -21.949  0.00  0.00    -0.293 N 
ATOM     26  C   UNL     1      35.483 -20.269 -21.094  0.00  0.00    +0.302 C 
ATOM     27  H   UNL     1      34.153 -18.965 -21.957  0.00  0.00    +0.150 HD
BRANCH  26  31
ATOM     28  O   UNL     1      34.692 -21.874 -19.396  0.00  0.00    -0.416 OA
ATOM     29  N   UNL     1      33.131 -20.545 -20.294  0.00  0.00    -0.102 NA
ATOM     30  N   UNL     1      32.512 -21.369 -19.374  0.00  0.00    -0.111 NA
ATOM     31  C   UNL     1      34.402 -20.874 -20.274  0.00  0.00    +0.304 A 
ATOM     32  C   UNL     1      33.460 -22.128 -18.875  0.00  0.00    +0.227 A 
ATOM     33  C   UNL     1      33.378 -23.184 -17.858  0.00  0.00    +0.097 C 
ENDBRANCH  26  31
ENDBRANCH  21  25
ENDBRANCH   4  21
BRANCH   8  34
ATOM     34  O   UNL     1      33.459 -13.686 -23.874  0.00  0.00    -0.370 OA
ATOM     35  H   UNL     1      33.877 -13.039 -24.408  0.00  0.00    +0.211 HD
ENDBRANCH   8  34
TORSDOF 7
ENDMDL
MODEL 6
REMARK VINA RESULT:      -8.9      7.764     11.389
REMARK  Name = 54671008
REMARK  7 active torsions:
REMARK  status: ('A' for Active; 'I' for Inactive)
REMARK    1  A    between atoms: C_4  and  C_21
REMARK    2  A    between atoms: C_6  and  C_11
REMARK    3  A    between atoms: C_8  and  O_34
REMARK    4  A    between atoms: N_10  and  C_13
REMARK    5  A    between atoms: C_13  and  C_15
REMARK    6  A    between atoms: C_21  and  N_25
REMARK    7  A    between atoms: C_26  and  C_31
REMARK                            x       y       z     vdW  Elec       q    Type
REMARK                         _______ _______ _______ _____ _____    ______ ____
ROOT
ATOM      1  O   UNL     1      33.717 -14.756 -26.618  0.00  0.00    -0.271 OA
ATOM      2  N   UNL     1      33.701 -14.227 -24.338  0.00  0.00    -0.232 N 
ATOM      3  N   UNL     1      34.666 -15.750 -22.789  0.00  0.00    -0.386 NA
ATOM      4  C   UNL     1      34.057 -14.636 -23.055  0.00  0.00    +0.182 C 
ATOM      5  C   UNL     1      33.990 -15.023 -25.449  0.00  0.00    +0.265 C 
ATOM      6  C   UNL     1      34.969 -16.561 -23.848  0.00  0.00    +0.199 C 
ATOM      7  C   UNL     1      33.018 -12.948 -24.523  0.00  0.00    +0.122 C 
ATOM      8  C   UNL     1      34.689 -16.299 -25.132  0.00  0.00    +0.245 C 
ENDROOT
BRANCH   6  11
ATOM      9  O   UNL     1      35.805 -18.693 -24.370  0.00  0.00    -0.268 OA
ATOM     10  N   UNL     1      36.090 -17.866 -22.209  0.00  0.00    -0.295 N 
ATOM     11  C   UNL     1      35.660 -17.816 -23.521  0.00  0.00    +0.275 C 
ATOM     12  H   UNL     1      35.909 -17.092 -21.627  0.00  0.00    +0.150 HD
BRANCH  10  13
ATOM     13  C   UNL     1      36.794 -18.997 -21.648  0.00  0.00    +0.117 C 
BRANCH  13  15
ATOM     14  F   UNL     1      33.301 -22.598 -19.092  0.00  0.00    -0.204 F 
ATOM     15  C   UNL     1      35.862 -19.957 -20.966  0.00  0.00    -0.002 C 
ATOM     16  C   UNL     1      36.375 -20.960 -20.144  0.00  0.00    -0.000 C 
ATOM     17  C   UNL     1      34.485 -19.847 -21.156  0.00  0.00    -0.000 C 
ATOM     18  C   UNL     1      35.510 -21.852 -19.511  0.00  0.00    +0.029 C 
ATOM     19  C   UNL     1      33.620 -20.739 -20.523  0.00  0.00    +0.029 C 
ATOM     20  C   UNL     1      34.132 -21.742 -19.701  0.00  0.00    +0.140 C 
ENDBRANCH  13  15
ENDBRANCH  10  13
ENDBRANCH   6  11
BRANCH   4  21
ATOM     21  C   UNL     1      33.716 -13.728 -21.898  0.00  0.00    +0.117 C 
ATOM     22  C   UNL     1      32.426 -14.196 -21.240  0.00  0.00    +0.028 C 
ATOM     23  C   UNL     1      34.870 -13.702 -20.905  0.00  0.00    +0.028 C 
BRANCH  21  25
ATOM     24  O   UNL     1      32.257 -11.489 -20.848  0.00  0.00    -0.265 OA
ATOM     25  N   UNL     1      33.542 -12.444 -22.527  0.00  0.00    -0.293 N 
ATOM     26  C   UNL     1      32.816 -11.416 -21.939  0.00  0.00    +0.302 C 
ATOM     27  H   UNL     1      33.956 -12.289 -23.407  0.00  0.00    +0.150 HD
BRANCH  26  31
ATOM     28  O   UNL     1      31.556  -9.438 -22.702  0.00  0.00    -0.416 OA
ATOM     29  N   UNL     1      33.641  -9.637 -23.489  0.00  0.00    -0.102 NA
ATOM     30  N   UNL     1      33.094  -8.483 -24.017  0.00  0.00    -0.111 NA
ATOM     31  C   UNL     1      32.709 -10.162 -22.728  0.00  0.00    +0.304 A 
ATOM     32  C   UNL     1      31.877  -8.407 -23.531  0.00  0.00    +0.227 A 
ATOM     33  C   UNL     1      30.842  -7.390 -23.753  0.00  0.00    +0.097 C 
ENDBRANCH  26  31
ENDBRANCH  21  25
ENDBRANCH   4  21
BRANCH   8  34
ATOM     34  O   UNL     1      35.011 -17.142 -26.171  0.00  0.00    -0.370 OA
ATOM     35  H   UNL     1      35.619 -16.865 -26.828  0.00  0.00    +0.211 HD
ENDBRANCH   8  34
TORSDOF 7
ENDMDL
