MODEL 1
REMARK VINA RESULT:     -12.0      0.000      0.000
REMARK  Name = 15985904
REMARK  7 active torsions:
REMARK  status: ('A' for Active; 'I' for Inactive)
REMARK    1  A    between atoms: N_1  and  S_6
REMARK    2  A    between atoms: C_4  and  C_21
REMARK    3  A    between atoms: S_6  and  C_9
REMARK    4  A    between atoms: C_10  and  C_17
REMARK    5  A    between atoms: C_22  and  C_25
REMARK    6  A    between atoms: N_24  and  C_27
REMARK    7  A    between atoms: C_28  and  N_33
REMARK                            x       y       z     vdW  Elec       q    Type
REMARK                         _______ _______ _______ _____ _____    ______ ____
ROOT
ATOM      1  N   UNL     1      35.381 -17.269 -22.568  0.00  0.00    -0.167 N 
ATOM      2  C   UNL     1      35.228 -16.269 -23.437  0.00  0.00    +0.089 C 
ATOM      3  C   UNL     1      35.212 -16.918 -21.293  0.00  0.00    +0.089 C 
ATOM      4  C   UNL     1      34.932 -15.161 -22.674  0.00  0.00    +0.018 C 
ATOM      5  C   UNL     1      34.922 -15.572 -21.317  0.00  0.00    +0.019 C 
ENDROOT
BRANCH   1   6
ATOM      6  S   UNL     1      35.767 -18.883 -23.053  0.00  0.00    +0.080 S 
ATOM      7  O   UNL     1      37.210 -18.839 -23.203  0.00  0.00    -0.149 OA
ATOM      8  O   UNL     1      34.879 -19.187 -24.159  0.00  0.00    -0.149 OA
BRANCH   6   9
ATOM      9  C   UNL     1      35.325 -19.897 -21.703  0.00  0.00    +0.126 C 
ATOM     10  C   UNL     1      34.620 -21.517 -19.544  0.00  0.00    +0.003 C 
ATOM     11  C   UNL     1      33.981 -20.140 -21.423  0.00  0.00    +0.020 C 
ATOM     12  C   UNL     1      36.318 -20.465 -20.903  0.00  0.00    +0.020 C 
ATOM     13  C   UNL     1      33.628 -20.950 -20.344  0.00  0.00    +0.001 C 
ATOM     14  C   UNL     1      35.965 -21.274 -19.823  0.00  0.00    +0.001 C 
BRANCH  10  17
ATOM     15  N   UNL     1      34.402 -23.524 -16.603  0.00  0.00    -0.208 N 
ATOM     16  N   UNL     1      33.108 -23.640 -16.946  0.00  0.00    -0.176 NA
ATOM     17  C   UNL     1      34.257 -22.351 -18.432  0.00  0.00    +0.037 C 
ATOM     18  C   UNL     1      35.135 -22.760 -17.462  0.00  0.00    +0.086 C 
ATOM     19  C   UNL     1      33.027 -22.919 -18.067  0.00  0.00    +0.119 C 
ATOM     20  C   UNL     1      34.889 -24.182 -15.413  0.00  0.00    +0.140 C 
ENDBRANCH  10  17
ENDBRANCH   6   9
ENDBRANCH   1   6
BRANCH   4  21
ATOM     21  C   UNL     1      34.687 -13.869 -23.183  0.00  0.00    +0.006 C 
ATOM     22  C   UNL     1      34.210 -13.520 -24.412  0.00  0.00    +0.058 C 
BRANCH  22  25
ATOM     23  O   UNL     1      34.057 -11.725 -25.964  0.00  0.00    -0.270 OA
ATOM     24  N   UNL     1      33.772 -11.302 -23.673  0.00  0.00    -0.279 N 
ATOM     25  C   UNL     1      34.007 -12.086 -24.794  0.00  0.00    +0.250 C 
ATOM     26  H   UNL     1      33.768 -11.769 -22.805  0.00  0.00    +0.155 HD
BRANCH  24  27
ATOM     27  C   UNL     1      33.536  -9.905 -23.635  0.00  0.00    +0.064 C 
ATOM     28  C   UNL     1      34.521  -9.018 -24.041  0.00  0.00    +0.055 C 
ATOM     29  C   UNL     1      32.304  -9.459 -23.186  0.00  0.00    +0.016 C 
ATOM     30  C   UNL     1      34.266  -7.648 -23.995  0.00  0.00    +0.015 C 
ATOM     31  C   UNL     1      32.049  -8.088 -23.140  0.00  0.00    +0.001 C 
ATOM     32  C   UNL     1      33.030  -7.183 -23.544  0.00  0.00    +0.001 C 
BRANCH  28  33
ATOM     33  N   UNL     1      35.778  -9.466 -24.502  0.00  0.00    -0.356 N 
ATOM     34  H   UNL     1      36.417  -9.872 -23.872  0.00  0.00    +0.142 HD
ATOM     35  H   UNL     1      36.016  -9.373 -25.452  0.00  0.00    +0.142 HD
ENDBRANCH  28  33
ENDBRANCH  24  27
ENDBRANCH  22  25
ENDBRANCH   4  21
TORSDOF 7
ENDMDL
MODEL 2
REMARK VINA RESULT:     -11.9      2.698     12.075
REMARK  Name = 15985904
REMARK  7 active torsions:
REMARK  status: ('A' for Active; 'I' for Inactive)
REMARK    1  A    between atoms: N_1  and  S_6
REMARK    2  A    between atoms: C_4  and  C_21
REMARK    3  A    between atoms: S_6  and  C_9
REMARK    4  A    between atoms: C_10  and  C_17
REMARK    5  A    between atoms: C_22  and  C_25
REMARK    6  A    between atoms: N_24  and  C_27
REMARK    7  A    between atoms: C_28  and  N_33
REMARK                            x       y       z     vdW  Elec       q    Type
REMARK                         _______ _______ _______ _____ _____    ______ ____
ROOT
ATOM      1  N   UNL     1      35.579 -19.845 -21.462  0.00  0.00    -0.167 N 
ATOM      2  C   UNL     1      36.120 -20.565 -20.478  0.00  0.00    +0.089 C 
ATOM      3  C   UNL     1      34.254 -19.950 -21.554  0.00  0.00    +0.089 C 
ATOM      4  C   UNL     1      35.063 -21.200 -19.865  0.00  0.00    +0.018 C 
ATOM      5  C   UNL     1      33.882 -20.812 -20.545  0.00  0.00    +0.019 C 
ENDROOT
BRANCH   1   6
ATOM      6  S   UNL     1      36.518 -18.861 -22.529  0.00  0.00    +0.080 S 
ATOM      7  O   UNL     1      36.387 -19.547 -23.802  0.00  0.00    -0.149 OA
ATOM      8  O   UNL     1      37.799 -18.676 -21.873  0.00  0.00    -0.149 OA
BRANCH   6   9
ATOM      9  C   UNL     1      35.704 -17.317 -22.583  0.00  0.00    +0.126 C 
ATOM     10  C   UNL     1      34.404 -14.851 -22.668  0.00  0.00    +0.003 C 
ATOM     11  C   UNL     1      35.406 -16.729 -23.811  0.00  0.00    +0.020 C 
ATOM     12  C   UNL     1      35.351 -16.673 -21.397  0.00  0.00    +0.020 C 
ATOM     13  C   UNL     1      34.756 -15.495 -23.854  0.00  0.00    +0.001 C 
ATOM     14  C   UNL     1      34.701 -15.440 -21.440  0.00  0.00    +0.001 C 
BRANCH  10  17
ATOM     15  N   UNL     1      32.368 -11.954 -22.231  0.00  0.00    -0.208 N 
ATOM     16  N   UNL     1      33.078 -11.470 -23.266  0.00  0.00    -0.176 NA
ATOM     17  C   UNL     1      33.734 -13.581 -22.713  0.00  0.00    +0.037 C 
ATOM     18  C   UNL     1      32.724 -13.217 -21.860  0.00  0.00    +0.086 C 
ATOM     19  C   UNL     1      33.912 -12.472 -23.554  0.00  0.00    +0.119 C 
ATOM     20  C   UNL     1      31.341 -11.141 -21.625  0.00  0.00    +0.140 C 
ENDBRANCH  10  17
ENDBRANCH   6   9
ENDBRANCH   1   6
BRANCH   4  21
ATOM     21  C   UNL     1      35.172 -22.072 -18.761  0.00  0.00    +0.006 C 
ATOM     22  C   UNL     1      36.100 -22.061 -17.762  0.00  0.00    +0.058 C 
BRANCH  22  25
ATOM     23  O   UNL     1      35.173 -23.901 -16.575  0.00  0.00    -0.270 OA
ATOM     24  N   UNL     1      37.154 -22.905 -15.804  0.00  0.00    -0.279 N 
ATOM     25  C   UNL     1      36.070 -23.069 -16.656  0.00  0.00    +0.250 C 
ATOM     26  H   UNL     1      37.779 -22.177 -16.028  0.00  0.00    +0.155 HD
BRANCH  24  27
ATOM     27  C   UNL     1      37.463 -23.667 -14.650  0.00  0.00    +0.064 C 
ATOM     28  C   UNL     1      38.538 -24.541 -14.655  0.00  0.00    +0.055 C 
ATOM     29  C   UNL     1      36.666 -23.511 -13.528  0.00  0.00    +0.016 C 
ATOM     30  C   UNL     1      38.823 -25.280 -13.508  0.00  0.00    +0.015 C 
ATOM     31  C   UNL     1      36.951 -24.250 -12.380  0.00  0.00    +0.001 C 
ATOM     32  C   UNL     1      38.029 -25.135 -12.370  0.00  0.00    +0.001 C 
BRANCH  28  33
ATOM     33  N   UNL     1      39.356 -24.703 -15.795  0.00  0.00    -0.356 N 
ATOM     34  H   UNL     1      38.948 -24.758 -16.690  0.00  0.00    +0.142 HD
ATOM     35  H   UNL     1      40.334 -24.760 -15.696  0.00  0.00    +0.142 HD
ENDBRANCH  28  33
ENDBRANCH  24  27
ENDBRANCH  22  25
ENDBRANCH   4  21
TORSDOF 7
ENDMDL
MODEL 3
REMARK VINA RESULT:     -11.6      2.542     11.895
REMARK  Name = 15985904
REMARK  7 active torsions:
REMARK  status: ('A' for Active; 'I' for Inactive)
REMARK    1  A    between atoms: N_1  and  S_6
REMARK    2  A    between atoms: C_4  and  C_21
REMARK    3  A    between atoms: S_6  and  C_9
REMARK    4  A    between atoms: C_10  and  C_17
REMARK    5  A    between atoms: C_22  and  C_25
REMARK    6  A    between atoms: N_24  and  C_27
REMARK    7  A    between atoms: C_28  and  N_33
REMARK                            x       y       z     vdW  Elec       q    Type
REMARK                         _______ _______ _______ _____ _____    ______ ____
ROOT
ATOM      1  N   UNL     1      35.001 -19.712 -21.428  0.00  0.00    -0.167 N 
ATOM      2  C   UNL     1      35.173 -20.536 -20.394  0.00  0.00    +0.089 C 
ATOM      3  C   UNL     1      33.756 -19.683 -21.904  0.00  0.00    +0.089 C 
ATOM      4  C   UNL     1      33.937 -21.101 -20.164  0.00  0.00    +0.018 C 
ATOM      5  C   UNL     1      33.041 -20.561 -21.120  0.00  0.00    +0.019 C 
ENDROOT
BRANCH   1   6
ATOM      6  S   UNL     1      36.283 -18.763 -22.095  0.00  0.00    +0.080 S 
ATOM      7  O   UNL     1      36.550 -19.424 -23.360  0.00  0.00    -0.149 OA
ATOM      8  O   UNL     1      37.281 -18.654 -21.048  0.00  0.00    -0.149 OA
BRANCH   6   9
ATOM      9  C   UNL     1      35.601 -17.179 -22.368  0.00  0.00    +0.126 C 
ATOM     10  C   UNL     1      34.514 -14.647 -22.805  0.00  0.00    +0.003 C 
ATOM     11  C   UNL     1      35.472 -16.691 -23.668  0.00  0.00    +0.020 C 
ATOM     12  C   UNL     1      35.187 -16.402 -21.287  0.00  0.00    +0.020 C 
ATOM     13  C   UNL     1      34.929 -15.425 -23.887  0.00  0.00    +0.001 C 
ATOM     14  C   UNL     1      34.643 -15.136 -21.505  0.00  0.00    +0.001 C 
BRANCH  10  17
ATOM     15  N   UNL     1      32.718 -11.565 -22.802  0.00  0.00    -0.208 N 
ATOM     16  N   UNL     1      33.490 -11.275 -23.864  0.00  0.00    -0.176 NA
ATOM     17  C   UNL     1      33.955 -13.344 -23.030  0.00  0.00    +0.037 C 
ATOM     18  C   UNL     1      32.958 -12.796 -22.265  0.00  0.00    +0.086 C 
ATOM     19  C   UNL     1      34.244 -12.369 -23.997  0.00  0.00    +0.119 C 
ATOM     20  C   UNL     1      31.748 -10.603 -22.338  0.00  0.00    +0.140 C 
ENDBRANCH  10  17
ENDBRANCH   6   9
ENDBRANCH   1   6
BRANCH   4  21
ATOM     21  C   UNL     1      33.652 -22.041 -19.152  0.00  0.00    +0.006 C 
ATOM     22  C   UNL     1      34.471 -22.490 -18.159  0.00  0.00    +0.058 C 
BRANCH  22  25
ATOM     23  O   UNL     1      34.712 -24.445 -16.827  0.00  0.00    -0.270 OA
ATOM     24  N   UNL     1      32.727 -23.198 -16.705  0.00  0.00    -0.279 N 
ATOM     25  C   UNL     1      34.004 -23.500 -17.157  0.00  0.00    +0.250 C 
ATOM     26  H   UNL     1      32.308 -22.392 -17.086  0.00  0.00    +0.155 HD
BRANCH  24  27
ATOM     27  C   UNL     1      31.957 -23.919 -15.759  0.00  0.00    +0.064 C 
ATOM     28  C   UNL     1      32.421 -24.092 -14.465  0.00  0.00    +0.055 C 
ATOM     29  C   UNL     1      30.739 -24.440 -16.164  0.00  0.00    +0.016 C 
ATOM     30  C   UNL     1      31.646 -24.806 -13.552  0.00  0.00    +0.015 C 
ATOM     31  C   UNL     1      29.963 -25.154 -15.250  0.00  0.00    +0.001 C 
ATOM     32  C   UNL     1      30.417 -25.337 -13.944  0.00  0.00    +0.001 C 
BRANCH  28  33
ATOM     33  N   UNL     1      33.661 -23.562 -14.045  0.00  0.00    -0.356 N 
ATOM     34  H   UNL     1      34.389 -23.439 -14.696  0.00  0.00    +0.142 HD
ATOM     35  H   UNL     1      33.797 -23.315 -13.102  0.00  0.00    +0.142 HD
ENDBRANCH  28  33
ENDBRANCH  24  27
ENDBRANCH  22  25
ENDBRANCH   4  21
TORSDOF 7
ENDMDL
MODEL 4
REMARK VINA RESULT:     -11.4      2.862     12.204
REMARK  Name = 15985904
REMARK  7 active torsions:
REMARK  status: ('A' for Active; 'I' for Inactive)
REMARK    1  A    between atoms: N_1  and  S_6
REMARK    2  A    between atoms: C_4  and  C_21
REMARK    3  A    between atoms: S_6  and  C_9
REMARK    4  A    between atoms: C_10  and  C_17
REMARK    5  A    between atoms: C_22  and  C_25
REMARK    6  A    between atoms: N_24  and  C_27
REMARK    7  A    between atoms: C_28  and  N_33
REMARK                            x       y       z     vdW  Elec       q    Type
REMARK                         _______ _______ _______ _____ _____    ______ ____
ROOT
ATOM      1  N   UNL     1      36.146 -19.743 -21.538  0.00  0.00    -0.167 N 
ATOM      2  C   UNL     1      37.036 -20.146 -20.631  0.00  0.00    +0.089 C 
ATOM      3  C   UNL     1      34.907 -20.186 -21.325  0.00  0.00    +0.089 C 
ATOM      4  C   UNL     1      36.327 -20.921 -19.739  0.00  0.00    +0.018 C 
ATOM      5  C   UNL     1      34.980 -20.946 -20.179  0.00  0.00    +0.019 C 
ENDROOT
BRANCH   1   6
ATOM      6  S   UNL     1      36.564 -18.734 -22.878  0.00  0.00    +0.080 S 
ATOM      7  O   UNL     1      36.049 -19.475 -24.015  0.00  0.00    -0.149 OA
ATOM      8  O   UNL     1      37.974 -18.430 -22.721  0.00  0.00    -0.149 OA
BRANCH   6   9
ATOM      9  C   UNL     1      35.659 -17.258 -22.654  0.00  0.00    +0.126 C 
ATOM     10  C   UNL     1      34.214 -14.898 -22.296  0.00  0.00    +0.003 C 
ATOM     11  C   UNL     1      35.229 -16.529 -23.762  0.00  0.00    +0.020 C 
ATOM     12  C   UNL     1      35.366 -16.807 -21.367  0.00  0.00    +0.020 C 
ATOM     13  C   UNL     1      34.507 -15.349 -23.583  0.00  0.00    +0.001 C 
ATOM     14  C   UNL     1      34.644 -15.628 -21.188  0.00  0.00    +0.001 C 
BRANCH  10  17
ATOM     15  N   UNL     1      32.179 -12.174 -21.220  0.00  0.00    -0.208 N 
ATOM     16  N   UNL     1      32.540 -11.623 -22.391  0.00  0.00    -0.176 NA
ATOM     17  C   UNL     1      33.471 -13.684 -22.112  0.00  0.00    +0.037 C 
ATOM     18  C   UNL     1      32.711 -13.411 -21.004  0.00  0.00    +0.086 C 
ATOM     19  C   UNL     1      33.331 -12.553 -22.931  0.00  0.00    +0.119 C 
ATOM     20  C   UNL     1      31.303 -11.451 -20.328  0.00  0.00    +0.140 C 
ENDBRANCH  10  17
ENDBRANCH   6   9
ENDBRANCH   1   6
BRANCH   4  21
ATOM     21  C   UNL     1      36.874 -21.558 -18.606  0.00  0.00    +0.006 C 
ATOM     22  C   UNL     1      36.216 -22.138 -17.562  0.00  0.00    +0.058 C 
BRANCH  22  25
ATOM     23  O   UNL     1      38.035 -22.336 -16.042  0.00  0.00    -0.270 OA
ATOM     24  N   UNL     1      36.262 -23.872 -15.933  0.00  0.00    -0.279 N 
ATOM     25  C   UNL     1      36.958 -22.777 -16.429  0.00  0.00    +0.250 C 
ATOM     26  H   UNL     1      35.405 -24.080 -16.372  0.00  0.00    +0.155 HD
BRANCH  24  27
ATOM     27  C   UNL     1      36.646 -24.723 -14.868  0.00  0.00    +0.064 C 
ATOM     28  C   UNL     1      36.135 -24.526 -13.595  0.00  0.00    +0.055 C 
ATOM     29  C   UNL     1      37.538 -25.749 -15.136  0.00  0.00    +0.016 C 
ATOM     30  C   UNL     1      36.528 -25.377 -12.563  0.00  0.00    +0.015 C 
ATOM     31  C   UNL     1      37.931 -26.600 -14.103  0.00  0.00    +0.001 C 
ATOM     32  C   UNL     1      37.426 -26.414 -12.816  0.00  0.00    +0.001 C 
BRANCH  28  33
ATOM     33  N   UNL     1      35.223 -23.484 -13.315  0.00  0.00    -0.356 N 
ATOM     34  H   UNL     1      34.847 -22.949 -14.051  0.00  0.00    +0.142 HD
ATOM     35  H   UNL     1      34.964 -23.293 -12.386  0.00  0.00    +0.142 HD
ENDBRANCH  28  33
ENDBRANCH  24  27
ENDBRANCH  22  25
ENDBRANCH   4  21
TORSDOF 7
ENDMDL
MODEL 5
REMARK VINA RESULT:     -11.1      5.310      8.596
REMARK  Name = 15985904
REMARK  7 active torsions:
REMARK  status: ('A' for Active; 'I' for Inactive)
REMARK    1  A    between atoms: N_1  and  S_6
REMARK    2  A    between atoms: C_4  and  C_21
REMARK    3  A    between atoms: S_6  and  C_9
REMARK    4  A    between atoms: C_10  and  C_17
REMARK    5  A    between atoms: C_22  and  C_25
REMARK    6  A    between atoms: N_24  and  C_27
REMARK    7  A    between atoms: C_28  and  N_33
REMARK                            x       y       z     vdW  Elec       q    Type
REMARK                         _______ _______ _______ _____ _____    ______ ____
ROOT
ATOM      1  N   UNL     1      36.378 -23.435 -15.900  0.00  0.00    -0.167 N 
ATOM      2  C   UNL     1      36.052 -22.832 -17.044  0.00  0.00    +0.089 C 
ATOM      3  C   UNL     1      37.522 -23.012 -15.364  0.00  0.00    +0.089 C 
ATOM      4  C   UNL     1      37.066 -21.932 -17.287  0.00  0.00    +0.018 C 
ATOM      5  C   UNL     1      37.997 -22.046 -16.224  0.00  0.00    +0.019 C 
ENDROOT
BRANCH   1   6
ATOM      6  S   UNL     1      35.399 -24.662 -15.175  0.00  0.00    +0.080 S 
ATOM      7  O   UNL     1      35.749 -24.566 -13.769  0.00  0.00    -0.149 OA
ATOM      8  O   UNL     1      35.629 -25.865 -15.953  0.00  0.00    -0.149 OA
BRANCH   6   9
ATOM      9  C   UNL     1      33.747 -24.155 -15.426  0.00  0.00    +0.126 C 
ATOM     10  C   UNL     1      31.109 -23.345 -15.828  0.00  0.00    +0.003 C 
ATOM     11  C   UNL     1      33.371 -23.581 -16.641  0.00  0.00    +0.020 C 
ATOM     12  C   UNL     1      32.804 -24.324 -14.413  0.00  0.00    +0.020 C 
ATOM     13  C   UNL     1      32.052 -23.176 -16.841  0.00  0.00    +0.001 C 
ATOM     14  C   UNL     1      31.485 -23.919 -14.614  0.00  0.00    +0.001 C 
BRANCH  10  17
ATOM     15  N   UNL     1      27.866 -22.461 -17.024  0.00  0.00    -0.208 N 
ATOM     16  N   UNL     1      27.621 -22.174 -15.734  0.00  0.00    -0.176 NA
ATOM     17  C   UNL     1      29.750 -22.927 -16.035  0.00  0.00    +0.037 C 
ATOM     18  C   UNL     1      29.130 -22.917 -17.258  0.00  0.00    +0.086 C 
ATOM     19  C   UNL     1      28.779 -22.462 -15.135  0.00  0.00    +0.119 C 
ATOM     20  C   UNL     1      26.827 -22.275 -18.009  0.00  0.00    +0.140 C 
ENDBRANCH  10  17
ENDBRANCH   6   9
ENDBRANCH   1   6
BRANCH   4  21
ATOM     21  C   UNL     1      37.134 -21.069 -18.400  0.00  0.00    +0.006 C 
ATOM     22  C   UNL     1      36.343 -21.058 -19.511  0.00  0.00    +0.058 C 
BRANCH  22  25
ATOM     23  O   UNL     1      37.605 -19.442 -20.716  0.00  0.00    -0.270 OA
ATOM     24  N   UNL     1      35.432 -19.977 -21.424  0.00  0.00    -0.279 N 
ATOM     25  C   UNL     1      36.554 -20.063 -20.610  0.00  0.00    +0.250 C 
ATOM     26  H   UNL     1      34.673 -20.557 -21.185  0.00  0.00    +0.155 HD
BRANCH  24  27
ATOM     27  C   UNL     1      35.257 -19.149 -22.560  0.00  0.00    +0.064 C 
ATOM     28  C   UNL     1      35.333 -17.770 -22.440  0.00  0.00    +0.055 C 
ATOM     29  C   UNL     1      35.009 -19.753 -23.782  0.00  0.00    +0.016 C 
ATOM     30  C   UNL     1      35.156 -16.976 -23.573  0.00  0.00    +0.015 C 
ATOM     31  C   UNL     1      34.833 -18.959 -24.915  0.00  0.00    +0.001 C 
ATOM     32  C   UNL     1      34.906 -17.570 -24.810  0.00  0.00    +0.001 C 
BRANCH  28  33
ATOM     33  N   UNL     1      35.586 -17.147 -21.199  0.00  0.00    -0.356 N 
ATOM     34  H   UNL     1      36.375 -16.567 -21.092  0.00  0.00    +0.142 HD
ATOM     35  H   UNL     1      34.975 -17.291 -20.441  0.00  0.00    +0.142 HD
ENDBRANCH  28  33
ENDBRANCH  24  27
ENDBRANCH  22  25
ENDBRANCH   4  21
TORSDOF 7
ENDMDL
MODEL 6
REMARK VINA RESULT:     -10.9      2.747     11.428
REMARK  Name = 15985904
REMARK  7 active torsions:
REMARK  status: ('A' for Active; 'I' for Inactive)
REMARK    1  A    between atoms: N_1  and  S_6
REMARK    2  A    between atoms: C_4  and  C_21
REMARK    3  A    between atoms: S_6  and  C_9
REMARK    4  A    between atoms: C_10  and  C_17
REMARK    5  A    between atoms: C_22  and  C_25
REMARK    6  A    between atoms: N_24  and  C_27
REMARK    7  A    between atoms: C_28  and  N_33
REMARK                            x       y       z     vdW  Elec       q    Type
REMARK                         _______ _______ _______ _____ _____    ______ ____
ROOT
ATOM      1  N   UNL     1      36.326 -19.583 -21.619  0.00  0.00    -0.167 N 
ATOM      2  C   UNL     1      35.279 -20.382 -21.412  0.00  0.00    +0.089 C 
ATOM      3  C   UNL     1      37.231 -19.601 -20.640  0.00  0.00    +0.089 C 
ATOM      4  C   UNL     1      35.509 -20.982 -20.194  0.00  0.00    +0.018 C 
ATOM      5  C   UNL     1      36.744 -20.488 -19.705  0.00  0.00    +0.019 C 
ENDROOT
BRANCH   1   6
ATOM      6  S   UNL     1      36.495 -18.605 -23.034  0.00  0.00    +0.080 S 
ATOM      7  O   UNL     1      35.831 -19.396 -24.055  0.00  0.00    -0.149 OA
ATOM      8  O   UNL     1      37.902 -18.259 -23.111  0.00  0.00    -0.149 OA
BRANCH   6   9
ATOM      9  C   UNL     1      35.591 -17.147 -22.709  0.00  0.00    +0.126 C 
ATOM     10  C   UNL     1      34.147 -14.818 -22.190  0.00  0.00    +0.003 C 
ATOM     11  C   UNL     1      35.151 -16.350 -23.765  0.00  0.00    +0.020 C 
ATOM     12  C   UNL     1      35.308 -16.780 -21.394  0.00  0.00    +0.020 C 
ATOM     13  C   UNL     1      34.429 -15.185 -23.506  0.00  0.00    +0.001 C 
ATOM     14  C   UNL     1      34.587 -15.615 -21.134  0.00  0.00    +0.001 C 
BRANCH  10  17
ATOM     15  N   UNL     1      32.243 -12.104 -20.871  0.00  0.00    -0.208 N 
ATOM     16  N   UNL     1      32.356 -11.604 -22.113  0.00  0.00    -0.176 NA
ATOM     17  C   UNL     1      33.404 -13.618 -21.923  0.00  0.00    +0.037 C 
ATOM     18  C   UNL     1      32.856 -13.312 -20.704  0.00  0.00    +0.086 C 
ATOM     19  C   UNL     1      33.068 -12.536 -22.751  0.00  0.00    +0.119 C 
ATOM     20  C   UNL     1      31.523 -11.364 -19.863  0.00  0.00    +0.140 C 
ENDBRANCH  10  17
ENDBRANCH   6   9
ENDBRANCH   1   6
BRANCH   4  21
ATOM     21  C   UNL     1      34.651 -21.915 -19.575  0.00  0.00    +0.006 C 
ATOM     22  C   UNL     1      34.717 -22.415 -18.309  0.00  0.00    +0.058 C 
BRANCH  22  25
ATOM     23  O   UNL     1      33.434 -24.412 -18.451  0.00  0.00    -0.270 OA
ATOM     24  N   UNL     1      33.199 -23.016 -16.578  0.00  0.00    -0.279 N 
ATOM     25  C   UNL     1      33.714 -23.407 -17.807  0.00  0.00    +0.250 C 
ATOM     26  H   UNL     1      33.545 -22.170 -16.209  0.00  0.00    +0.155 HD
BRANCH  24  27
ATOM     27  C   UNL     1      32.232 -23.695 -15.796  0.00  0.00    +0.064 C 
ATOM     28  C   UNL     1      30.883 -23.560 -16.079  0.00  0.00    +0.055 C 
ATOM     29  C   UNL     1      32.674 -24.490 -14.751  0.00  0.00    +0.016 C 
ATOM     30  C   UNL     1      29.950 -24.238 -15.295  0.00  0.00    +0.015 C 
ATOM     31  C   UNL     1      31.741 -25.168 -13.967  0.00  0.00    +0.001 C 
ATOM     32  C   UNL     1      30.379 -25.042 -14.238  0.00  0.00    +0.001 C 
BRANCH  28  33
ATOM     33  N   UNL     1      30.425 -22.753 -17.144  0.00  0.00    -0.356 N 
ATOM     34  H   UNL     1      30.070 -21.852 -16.961  0.00  0.00    +0.142 HD
ATOM     35  H   UNL     1      30.462 -23.089 -18.068  0.00  0.00    +0.142 HD
ENDBRANCH  28  33
ENDBRANCH  24  27
ENDBRANCH  22  25
ENDBRANCH   4  21
TORSDOF 7
ENDMDL
MODEL 7
REMARK VINA RESULT:     -10.6      2.976      5.236
REMARK  Name = 15985904
REMARK  7 active torsions:
REMARK  status: ('A' for Active; 'I' for Inactive)
REMARK    1  A    between atoms: N_1  and  S_6
REMARK    2  A    between atoms: C_4  and  C_21
REMARK    3  A    between atoms: S_6  and  C_9
REMARK    4  A    between atoms: C_10  and  C_17
REMARK    5  A    between atoms: C_22  and  C_25
REMARK    6  A    between atoms: N_24  and  C_27
REMARK    7  A    between atoms: C_28  and  N_33
REMARK                            x       y       z     vdW  Elec       q    Type
REMARK                         _______ _______ _______ _____ _____    ______ ____
ROOT
ATOM      1  N   UNL     1      35.034 -21.331 -20.069  0.00  0.00    -0.167 N 
ATOM      2  C   UNL     1      34.632 -20.440 -20.975  0.00  0.00    +0.089 C 
ATOM      3  C   UNL     1      36.330 -21.259 -19.765  0.00  0.00    +0.089 C 
ATOM      4  C   UNL     1      35.757 -19.714 -21.300  0.00  0.00    +0.018 C 
ATOM      5  C   UNL     1      36.831 -20.232 -20.535  0.00  0.00    +0.019 C 
ENDROOT
BRANCH   1   6
ATOM      6  S   UNL     1      33.966 -22.484 -19.349  0.00  0.00    +0.080 S 
ATOM      7  O   UNL     1      34.130 -23.651 -20.196  0.00  0.00    -0.149 OA
ATOM      8  O   UNL     1      32.692 -21.804 -19.198  0.00  0.00    -0.149 OA
BRANCH   6   9
ATOM      9  C   UNL     1      34.612 -22.792 -17.756  0.00  0.00    +0.126 C 
ATOM     10  C   UNL     1      35.644 -23.284 -15.212  0.00  0.00    +0.003 C 
ATOM     11  C   UNL     1      33.827 -23.431 -16.797  0.00  0.00    +0.020 C 
ATOM     12  C   UNL     1      35.913 -22.400 -17.443  0.00  0.00    +0.020 C 
ATOM     13  C   UNL     1      34.342 -23.677 -15.525  0.00  0.00    +0.001 C 
ATOM     14  C   UNL     1      36.429 -22.645 -16.171  0.00  0.00    +0.001 C 
BRANCH  10  17
ATOM     15  N   UNL     1      36.289 -24.069 -11.792  0.00  0.00    -0.208 N 
ATOM     16  N   UNL     1      37.561 -23.775 -12.109  0.00  0.00    -0.176 NA
ATOM     17  C   UNL     1      36.175 -23.537 -13.901  0.00  0.00    +0.037 C 
ATOM     18  C   UNL     1      35.417 -23.943 -12.833  0.00  0.00    +0.086 C 
ATOM     19  C   UNL     1      37.483 -23.450 -13.402  0.00  0.00    +0.119 C 
ATOM     20  C   UNL     1      35.962 -24.476 -10.446  0.00  0.00    +0.140 C 
ENDBRANCH  10  17
ENDBRANCH   6   9
ENDBRANCH   1   6
BRANCH   4  21
ATOM     21  C   UNL     1      35.796 -18.653 -22.230  0.00  0.00    +0.006 C 
ATOM     22  C   UNL     1      35.318 -17.384 -22.086  0.00  0.00    +0.058 C 
BRANCH  22  25
ATOM     23  O   UNL     1      36.345 -16.439 -24.011  0.00  0.00    -0.270 OA
ATOM     24  N   UNL     1      34.437 -15.421 -23.100  0.00  0.00    -0.279 N 
ATOM     25  C   UNL     1      35.444 -16.373 -23.183  0.00  0.00    +0.250 C 
ATOM     26  H   UNL     1      33.794 -15.529 -22.360  0.00  0.00    +0.155 HD
BRANCH  24  27
ATOM     27  C   UNL     1      34.228 -14.313 -23.957  0.00  0.00    +0.064 C 
ATOM     28  C   UNL     1      33.859 -14.510 -25.278  0.00  0.00    +0.055 C 
ATOM     29  C   UNL     1      34.402 -13.040 -23.440  0.00  0.00    +0.016 C 
ATOM     30  C   UNL     1      33.660 -13.404 -26.104  0.00  0.00    +0.015 C 
ATOM     31  C   UNL     1      34.203 -11.934 -24.265  0.00  0.00    +0.001 C 
ATOM     32  C   UNL     1      33.832 -12.115 -25.597  0.00  0.00    +0.001 C 
BRANCH  28  33
ATOM     33  N   UNL     1      33.678 -15.805 -25.812  0.00  0.00    -0.356 N 
ATOM     34  H   UNL     1      34.364 -16.194 -26.403  0.00  0.00    +0.142 HD
ATOM     35  H   UNL     1      32.867 -16.319 -25.595  0.00  0.00    +0.142 HD
ENDBRANCH  28  33
ENDBRANCH  24  27
ENDBRANCH  22  25
ENDBRANCH   4  21
TORSDOF 7
ENDMDL
MODEL 8
REMARK VINA RESULT:      -9.9      6.550      9.777
REMARK  Name = 15985904
REMARK  7 active torsions:
REMARK  status: ('A' for Active; 'I' for Inactive)
REMARK    1  A    between atoms: N_1  and  S_6
REMARK    2  A    between atoms: C_4  and  C_21
REMARK    3  A    between atoms: S_6  and  C_9
REMARK    4  A    between atoms: C_10  and  C_17
REMARK    5  A    between atoms: C_22  and  C_25
REMARK    6  A    between atoms: N_24  and  C_27
REMARK    7  A    between atoms: C_28  and  N_33
REMARK                            x       y       z     vdW  Elec       q    Type
REMARK                         _______ _______ _______ _____ _____    ______ ____
ROOT
ATOM      1  N   UNL     1      31.992 -23.742 -15.126  0.00  0.00    -0.167 N 
ATOM      2  C   UNL     1      32.689 -23.004 -15.991  0.00  0.00    +0.089 C 
ATOM      3  C   UNL     1      30.766 -24.060 -15.542  0.00  0.00    +0.089 C 
ATOM      4  C   UNL     1      31.855 -22.817 -17.071  0.00  0.00    +0.018 C 
ATOM      5  C   UNL     1      30.638 -23.485 -16.787  0.00  0.00    +0.019 C 
ENDROOT
BRANCH   1   6
ATOM      6  S   UNL     1      32.624 -24.243 -13.598  0.00  0.00    +0.080 S 
ATOM      7  O   UNL     1      31.928 -25.494 -13.354  0.00  0.00    -0.149 OA
ATOM      8  O   UNL     1      32.494 -23.096 -12.719  0.00  0.00    -0.149 OA
BRANCH   6   9
ATOM      9  C   UNL     1      34.325 -24.535 -13.865  0.00  0.00    +0.126 C 
ATOM     10  C   UNL     1      37.042 -25.001 -14.294  0.00  0.00    +0.003 C 
ATOM     11  C   UNL     1      35.249 -24.242 -12.863  0.00  0.00    +0.020 C 
ATOM     12  C   UNL     1      34.759 -25.062 -15.082  0.00  0.00    +0.020 C 
ATOM     13  C   UNL     1      36.607 -24.474 -13.078  0.00  0.00    +0.001 C 
ATOM     14  C   UNL     1      36.117 -25.295 -15.296  0.00  0.00    +0.001 C 
BRANCH  10  17
ATOM     15  N   UNL     1      40.425 -26.128 -14.380  0.00  0.00    -0.208 N 
ATOM     16  N   UNL     1      40.592 -25.121 -15.254  0.00  0.00    -0.176 NA
ATOM     17  C   UNL     1      38.440 -25.240 -14.514  0.00  0.00    +0.037 C 
ATOM     18  C   UNL     1      39.151 -26.243 -13.907  0.00  0.00    +0.086 C 
ATOM     19  C   UNL     1      39.373 -24.582 -15.331  0.00  0.00    +0.119 C 
ATOM     20  C   UNL     1      41.547 -26.967 -14.030  0.00  0.00    +0.140 C 
ENDBRANCH  10  17
ENDBRANCH   6   9
ENDBRANCH   1   6
BRANCH   4  21
ATOM     21  C   UNL     1      32.185 -22.087 -18.232  0.00  0.00    +0.006 C 
ATOM     22  C   UNL     1      33.359 -22.087 -18.926  0.00  0.00    +0.058 C 
BRANCH  22  25
ATOM     23  O   UNL     1      32.603 -20.988 -20.895  0.00  0.00    -0.270 OA
ATOM     24  N   UNL     1      34.865 -20.842 -20.284  0.00  0.00    -0.279 N 
ATOM     25  C   UNL     1      33.543 -21.246 -20.151  0.00  0.00    +0.250 C 
ATOM     26  H   UNL     1      35.487 -21.148 -19.584  0.00  0.00    +0.155 HD
BRANCH  24  27
ATOM     27  C   UNL     1      35.419 -20.041 -21.312  0.00  0.00    +0.064 C 
ATOM     28  C   UNL     1      36.659 -19.445 -21.143  0.00  0.00    +0.055 C 
ATOM     29  C   UNL     1      34.692 -19.874 -22.479  0.00  0.00    +0.016 C 
ATOM     30  C   UNL     1      37.185 -18.660 -22.169  0.00  0.00    +0.015 C 
ATOM     31  C   UNL     1      35.218 -19.089 -23.505  0.00  0.00    +0.001 C 
ATOM     32  C   UNL     1      36.464 -18.482 -23.350  0.00  0.00    +0.001 C 
BRANCH  28  33
ATOM     33  N   UNL     1      37.407 -19.613 -19.957  0.00  0.00    -0.356 N 
ATOM     34  H   UNL     1      38.192 -20.207 -19.950  0.00  0.00    +0.142 HD
ATOM     35  H   UNL     1      37.144 -19.135 -19.137  0.00  0.00    +0.142 HD
ENDBRANCH  28  33
ENDBRANCH  24  27
ENDBRANCH  22  25
ENDBRANCH   4  21
TORSDOF 7
ENDMDL
MODEL 9
REMARK VINA RESULT:      -9.9      2.027     11.403
REMARK  Name = 15985904
REMARK  7 active torsions:
REMARK  status: ('A' for Active; 'I' for Inactive)
REMARK    1  A    between atoms: N_1  and  S_6
REMARK    2  A    between atoms: C_4  and  C_21
REMARK    3  A    between atoms: S_6  and  C_9
REMARK    4  A    between atoms: C_10  and  C_17
REMARK    5  A    between atoms: C_22  and  C_25
REMARK    6  A    between atoms: N_24  and  C_27
REMARK    7  A    between atoms: C_28  and  N_33
REMARK                            x       y       z     vdW  Elec       q    Type
REMARK                         _______ _______ _______ _____ _____    ______ ____
ROOT
ATOM      1  N   UNL     1      35.168 -18.575 -23.422  0.00  0.00    -0.167 N 
ATOM      2  C   UNL     1      34.551 -19.591 -22.819  0.00  0.00    +0.089 C 
ATOM      3  C   UNL     1      36.238 -18.119 -22.771  0.00  0.00    +0.089 C 
ATOM      4  C   UNL     1      35.273 -19.829 -21.669  0.00  0.00    +0.018 C 
ATOM      5  C   UNL     1      36.340 -18.897 -21.639  0.00  0.00    +0.019 C 
ENDROOT
BRANCH   1   6
ATOM      6  S   UNL     1      34.627 -17.907 -24.922  0.00  0.00    +0.080 S 
ATOM      7  O   UNL     1      33.365 -18.589 -25.144  0.00  0.00    -0.149 OA
ATOM      8  O   UNL     1      35.747 -18.027 -25.837  0.00  0.00    -0.149 OA
BRANCH   6   9
ATOM      9  C   UNL     1      34.356 -16.211 -24.610  0.00  0.00    +0.126 C 
ATOM     10  C   UNL     1      33.921 -13.501 -24.110  0.00  0.00    +0.003 C 
ATOM     11  C   UNL     1      34.811 -15.639 -23.422  0.00  0.00    +0.020 C 
ATOM     12  C   UNL     1      33.684 -15.427 -25.548  0.00  0.00    +0.020 C 
ATOM     13  C   UNL     1      34.593 -14.285 -23.172  0.00  0.00    +0.001 C 
ATOM     14  C   UNL     1      33.466 -14.073 -25.298  0.00  0.00    +0.001 C 
BRANCH  10  17
ATOM     15  N   UNL     1      32.880 -10.272 -23.008  0.00  0.00    -0.208 N 
ATOM     16  N   UNL     1      33.799  -9.830 -23.883  0.00  0.00    -0.176 NA
ATOM     17  C   UNL     1      33.697 -12.106 -23.853  0.00  0.00    +0.037 C 
ATOM     18  C   UNL     1      32.780 -11.631 -22.951  0.00  0.00    +0.086 C 
ATOM     19  C   UNL     1      34.295 -10.959 -24.396  0.00  0.00    +0.119 C 
ATOM     20  C   UNL     1      32.112  -9.324 -22.236  0.00  0.00    +0.140 C 
ENDBRANCH  10  17
ENDBRANCH   6   9
ENDBRANCH   1   6
BRANCH   4  21
ATOM     21  C   UNL     1      34.975 -20.827 -20.718  0.00  0.00    +0.006 C 
ATOM     22  C   UNL     1      33.816 -21.528 -20.561  0.00  0.00    +0.058 C 
BRANCH  22  25
ATOM     23  O   UNL     1      34.161 -23.679 -19.608  0.00  0.00    -0.270 OA
ATOM     24  N   UNL     1      32.929 -22.071 -18.421  0.00  0.00    -0.279 N 
ATOM     25  C   UNL     1      33.668 -22.563 -19.489  0.00  0.00    +0.250 C 
ATOM     26  H   UNL     1      32.610 -21.142 -18.502  0.00  0.00    +0.155 HD
BRANCH  24  27
ATOM     27  C   UNL     1      32.582 -22.754 -17.230  0.00  0.00    +0.064 C 
ATOM     28  C   UNL     1      33.568 -23.202 -16.366  0.00  0.00    +0.055 C 
ATOM     29  C   UNL     1      31.239 -22.959 -16.958  0.00  0.00    +0.016 C 
ATOM     30  C   UNL     1      33.202 -23.872 -15.199  0.00  0.00    +0.015 C 
ATOM     31  C   UNL     1      30.872 -23.629 -15.791  0.00  0.00    +0.001 C 
ATOM     32  C   UNL     1      31.854 -24.086 -14.912  0.00  0.00    +0.001 C 
BRANCH  28  33
ATOM     33  N   UNL     1      34.939 -22.995 -16.636  0.00  0.00    -0.356 N 
ATOM     34  H   UNL     1      35.604 -23.103 -15.917  0.00  0.00    +0.142 HD
ATOM     35  H   UNL     1      35.231 -22.743 -17.542  0.00  0.00    +0.142 HD
ENDBRANCH  28  33
ENDBRANCH  24  27
ENDBRANCH  22  25
ENDBRANCH   4  21
TORSDOF 7
ENDMDL
