MODEL 1
REMARK VINA RESULT:     -10.9      0.000      0.000
REMARK  Name = 11963557
REMARK  4 active torsions:
REMARK  status: ('A' for Active; 'I' for Inactive)
REMARK    1  A    between atoms: C_11  and  C_19
REMARK    2  A    between atoms: C_13  and  C_30
REMARK    3  A    between atoms: C_16  and  N_22
REMARK    4  A    between atoms: C_30  and  C_32
REMARK                            x       y       z     vdW  Elec       q    Type
REMARK                         _______ _______ _______ _____ _____    ______ ____
ROOT
ATOM      1  O   UNL     1      35.867 -19.394 -24.028  0.00  0.00    -0.270 OA
ATOM      2  O   UNL     1      32.823 -11.858 -21.872  0.00  0.00    -0.274 OA
ATOM      3  N   UNL     1      33.712 -13.136 -23.510  0.00  0.00    -0.233 N 
ATOM      4  N   UNL     1      34.897 -17.600 -22.865  0.00  0.00    -0.264 N 
ATOM      5  N   UNL     1      35.134 -15.583 -25.724  0.00  0.00    -0.273 N 
ATOM      6  N   UNL     1      35.326 -16.800 -25.112  0.00  0.00    -0.157 NA
ATOM      7  C   UNL     1      34.393 -15.266 -23.584  0.00  0.00    +0.067 A 
ATOM      8  C   UNL     1      34.602 -14.727 -24.830  0.00  0.00    +0.093 A 
ATOM      9  C   UNL     1      34.877 -16.598 -23.826  0.00  0.00    +0.157 A 
ATOM     10  C   UNL     1      33.855 -14.335 -22.752  0.00  0.00    +0.076 C 
ATOM     11  C   UNL     1      35.373 -18.912 -22.995  0.00  0.00    +0.251 C 
ATOM     12  C   UNL     1      34.196 -13.450 -24.795  0.00  0.00    +0.091 C 
ATOM     13  C   UNL     1      33.196 -11.930 -23.034  0.00  0.00    +0.238 C 
ATOM     14  H   UNL     1      34.532 -17.360 -21.984  0.00  0.00    +0.157 HD
ATOM     15  H   UNL     1      35.351 -15.372 -26.661  0.00  0.00    +0.189 HD
ENDROOT
BRANCH  11  19
ATOM     16  C   UNL     1      35.128 -21.335 -19.485  0.00  0.00    +0.048 C 
ATOM     17  C   UNL     1      36.372 -20.882 -19.970  0.00  0.00    +0.015 C 
ATOM     18  C   UNL     1      33.967 -20.964 -20.193  0.00  0.00    +0.015 C 
ATOM     19  C   UNL     1      35.289 -19.737 -21.801  0.00  0.00    +0.054 C 
ATOM     20  C   UNL     1      36.451 -20.091 -21.116  0.00  0.00    +0.006 C 
ATOM     21  C   UNL     1      34.048 -20.173 -21.340  0.00  0.00    +0.006 C 
BRANCH  16  22
ATOM     22  N   UNL     1      35.047 -22.128 -18.335  0.00  0.00    -0.312 N 
ATOM     23  N   UNL     1      34.948 -23.950 -16.138  0.00  0.00    +0.388 N 
ATOM     24  C   UNL     1      34.005 -23.161 -18.282  0.00  0.00    +0.068 C 
ATOM     25  C   UNL     1      36.259 -22.408 -17.559  0.00  0.00    +0.068 C 
ATOM     26  C   UNL     1      33.716 -23.557 -16.832  0.00  0.00    -0.056 C 
ATOM     27  C   UNL     1      35.897 -22.830 -16.132  0.00  0.00    -0.056 C 
ATOM     28  C   UNL     1      34.653 -24.378 -14.770  0.00  0.00    -0.101 C 
ATOM     29  H   UNL     1      35.369 -24.736 -16.633  0.00  0.00    -0.080 HD
ENDBRANCH  16  22
ENDBRANCH  11  19
BRANCH  13  30
ATOM     30  C   UNL     1      33.149 -10.810 -24.027  0.00  0.00    +0.119 C 
BRANCH  30  32
ATOM     31  S   UNL     1      34.125  -8.303 -23.410  0.00  0.00    -0.090 S 
ATOM     32  C   UNL     1      32.946  -9.525 -23.282  0.00  0.00    +0.016 C 
ATOM     33  C   UNL     1      31.899  -9.181 -22.475  0.00  0.00    +0.003 C 
ATOM     34  C   UNL     1      32.062  -7.870 -21.940  0.00  0.00    +0.007 C 
ATOM     35  C   UNL     1      33.231  -7.279 -22.369  0.00  0.00    +0.035 C 
ENDBRANCH  30  32
ENDBRANCH  13  30
TORSDOF 4
ENDMDL
MODEL 2
REMARK VINA RESULT:     -10.9      2.018      3.485
REMARK  Name = 11963557
REMARK  4 active torsions:
REMARK  status: ('A' for Active; 'I' for Inactive)
REMARK    1  A    between atoms: C_11  and  C_19
REMARK    2  A    between atoms: C_13  and  C_30
REMARK    3  A    between atoms: C_16  and  N_22
REMARK    4  A    between atoms: C_30  and  C_32
REMARK                            x       y       z     vdW  Elec       q    Type
REMARK                         _______ _______ _______ _____ _____    ______ ____
ROOT
ATOM      1  O   UNL     1      36.142 -22.107 -21.387  0.00  0.00    -0.270 OA
ATOM      2  O   UNL     1      34.513 -13.870 -20.948  0.00  0.00    -0.274 OA
ATOM      3  N   UNL     1      34.930 -15.642 -22.286  0.00  0.00    -0.233 N 
ATOM      4  N   UNL     1      35.629 -19.945 -20.630  0.00  0.00    -0.264 N 
ATOM      5  N   UNL     1      35.616 -18.763 -23.931  0.00  0.00    -0.273 N 
ATOM      6  N   UNL     1      35.756 -19.806 -23.045  0.00  0.00    -0.157 NA
ATOM      7  C   UNL     1      35.309 -17.808 -21.875  0.00  0.00    +0.067 A 
ATOM      8  C   UNL     1      35.363 -17.636 -23.237  0.00  0.00    +0.093 A 
ATOM      9  C   UNL     1      35.569 -19.221 -21.813  0.00  0.00    +0.157 A 
ATOM     10  C   UNL     1      35.049 -16.624 -21.259  0.00  0.00    +0.076 C 
ATOM     11  C   UNL     1      35.903 -21.310 -20.465  0.00  0.00    +0.251 C 
ATOM     12  C   UNL     1      35.136 -16.340 -23.492  0.00  0.00    +0.091 C 
ATOM     13  C   UNL     1      34.664 -14.286 -22.087  0.00  0.00    +0.238 C 
ATOM     14  H   UNL     1      35.458 -19.438 -19.804  0.00  0.00    +0.157 HD
ATOM     15  H   UNL     1      35.690 -18.828 -24.910  0.00  0.00    +0.189 HD
ENDROOT
BRANCH  11  19
ATOM     16  C   UNL     1      35.971 -22.721 -16.433  0.00  0.00    +0.048 C 
ATOM     17  C   UNL     1      34.833 -22.901 -17.246  0.00  0.00    +0.015 C 
ATOM     18  C   UNL     1      37.085 -22.061 -16.990  0.00  0.00    +0.015 C 
ATOM     19  C   UNL     1      35.926 -21.790 -19.093  0.00  0.00    +0.054 C 
ATOM     20  C   UNL     1      34.812 -22.440 -18.563  0.00  0.00    +0.006 C 
ATOM     21  C   UNL     1      37.062 -21.600 -18.306  0.00  0.00    +0.006 C 
BRANCH  16  22
ATOM     22  N   UNL     1      35.993 -23.184 -15.113  0.00  0.00    -0.312 N 
ATOM     23  N   UNL     1      36.105 -24.362 -12.514  0.00  0.00    +0.388 N 
ATOM     24  C   UNL     1      34.998 -24.188 -14.716  0.00  0.00    +0.068 C 
ATOM     25  C   UNL     1      37.262 -23.224 -14.379  0.00  0.00    +0.068 C 
ATOM     26  C   UNL     1      34.817 -24.192 -13.197  0.00  0.00    -0.056 C 
ATOM     27  C   UNL     1      37.008 -23.261 -12.869  0.00  0.00    -0.056 C 
ATOM     28  C   UNL     1      35.913 -24.420 -11.064  0.00  0.00    -0.101 C 
ATOM     29  H   UNL     1      36.523 -25.242 -12.814  0.00  0.00    -0.080 HD
ENDBRANCH  16  22
ENDBRANCH  11  19
BRANCH  13  30
ATOM     30  C   UNL     1      34.587 -13.454 -23.329  0.00  0.00    +0.119 C 
BRANCH  30  32
ATOM     31  S   UNL     1      33.852 -10.854 -23.895  0.00  0.00    -0.090 S 
ATOM     32  C   UNL     1      33.617 -12.336 -23.090  0.00  0.00    +0.016 C 
ATOM     33  C   UNL     1      32.520 -12.339 -22.276  0.00  0.00    +0.003 C 
ATOM     34  C   UNL     1      31.843 -11.085 -22.310  0.00  0.00    +0.007 C 
ATOM     35  C   UNL     1      32.461 -10.187 -23.152  0.00  0.00    +0.035 C 
ENDBRANCH  30  32
ENDBRANCH  13  30
TORSDOF 4
ENDMDL
MODEL 3
REMARK VINA RESULT:     -10.4      1.693      2.144
REMARK  Name = 11963557
REMARK  4 active torsions:
REMARK  status: ('A' for Active; 'I' for Inactive)
REMARK    1  A    between atoms: C_11  and  C_19
REMARK    2  A    between atoms: C_13  and  C_30
REMARK    3  A    between atoms: C_16  and  N_22
REMARK    4  A    between atoms: C_30  and  C_32
REMARK                            x       y       z     vdW  Elec       q    Type
REMARK                         _______ _______ _______ _____ _____    ______ ____
ROOT
ATOM      1  O   UNL     1      37.136 -19.064 -22.693  0.00  0.00    -0.270 OA
ATOM      2  O   UNL     1      32.017 -12.851 -20.266  0.00  0.00    -0.274 OA
ATOM      3  N   UNL     1      33.321 -13.687 -21.911  0.00  0.00    -0.233 N 
ATOM      4  N   UNL     1      35.641 -17.711 -21.491  0.00  0.00    -0.264 N 
ATOM      5  N   UNL     1      35.494 -15.449 -24.167  0.00  0.00    -0.273 N 
ATOM      6  N   UNL     1      35.974 -16.622 -23.630  0.00  0.00    -0.157 NA
ATOM      7  C   UNL     1      34.562 -15.541 -22.080  0.00  0.00    +0.067 A 
ATOM      8  C   UNL     1      34.693 -14.853 -23.262  0.00  0.00    +0.093 A 
ATOM      9  C   UNL     1      35.407 -16.666 -22.375  0.00  0.00    +0.157 A 
ATOM     10  C   UNL     1      33.740 -14.868 -21.231  0.00  0.00    +0.076 C 
ATOM     11  C   UNL     1      36.465 -18.830 -21.674  0.00  0.00    +0.251 C 
ATOM     12  C   UNL     1      33.951 -13.740 -23.170  0.00  0.00    +0.091 C 
ATOM     13  C   UNL     1      32.466 -12.712 -21.394  0.00  0.00    +0.238 C 
ATOM     14  H   UNL     1      35.171 -17.659 -20.628  0.00  0.00    +0.157 HD
ATOM     15  H   UNL     1      35.701 -15.103 -25.065  0.00  0.00    +0.189 HD
ENDROOT
BRANCH  11  19
ATOM     16  C   UNL     1      36.676 -21.543 -18.381  0.00  0.00    +0.048 C 
ATOM     17  C   UNL     1      37.570 -20.458 -18.487  0.00  0.00    +0.015 C 
ATOM     18  C   UNL     1      35.711 -21.706 -19.395  0.00  0.00    +0.015 C 
ATOM     19  C   UNL     1      36.537 -19.753 -20.554  0.00  0.00    +0.054 C 
ATOM     20  C   UNL     1      37.501 -19.572 -19.562  0.00  0.00    +0.006 C 
ATOM     21  C   UNL     1      35.643 -20.820 -20.470  0.00  0.00    +0.006 C 
BRANCH  16  22
ATOM     22  N   UNL     1      36.744 -22.431 -17.303  0.00  0.00    -0.312 N 
ATOM     23  N   UNL     1      36.882 -24.036 -14.944  0.00  0.00    +0.388 N 
ATOM     24  C   UNL     1      37.953 -22.412 -16.468  0.00  0.00    +0.068 C 
ATOM     25  C   UNL     1      35.513 -22.848 -16.625  0.00  0.00    +0.068 C 
ATOM     26  C   UNL     1      38.099 -23.730 -15.706  0.00  0.00    -0.056 C 
ATOM     27  C   UNL     1      35.738 -24.153 -15.856  0.00  0.00    -0.056 C 
ATOM     28  C   UNL     1      37.053 -25.270 -14.176  0.00  0.00    -0.101 C 
ATOM     29  H   UNL     1      36.705 -23.276 -14.288  0.00  0.00    -0.080 HD
ENDBRANCH  16  22
ENDBRANCH  11  19
BRANCH  13  30
ATOM     30  C   UNL     1      32.176 -11.559 -22.305  0.00  0.00    +0.119 C 
BRANCH  30  32
ATOM     31  S   UNL     1      32.736  -8.857 -22.261  0.00  0.00    -0.090 S 
ATOM     32  C   UNL     1      32.234 -10.295 -21.500  0.00  0.00    +0.016 C 
ATOM     33  C   UNL     1      31.927 -10.128 -20.180  0.00  0.00    +0.003 C 
ATOM     34  C   UNL     1      32.106  -8.775 -19.771  0.00  0.00    +0.007 C 
ATOM     35  C   UNL     1      32.543  -7.976 -20.805  0.00  0.00    +0.035 C 
ENDBRANCH  30  32
ENDBRANCH  13  30
TORSDOF 4
ENDMDL
MODEL 4
REMARK VINA RESULT:      -9.9      3.600     11.481
REMARK  Name = 11963557
REMARK  4 active torsions:
REMARK  status: ('A' for Active; 'I' for Inactive)
REMARK    1  A    between atoms: C_11  and  C_19
REMARK    2  A    between atoms: C_13  and  C_30
REMARK    3  A    between atoms: C_16  and  N_22
REMARK    4  A    between atoms: C_30  and  C_32
REMARK                            x       y       z     vdW  Elec       q    Type
REMARK                         _______ _______ _______ _____ _____    ______ ____
ROOT
ATOM      1  O   UNL     1      33.414 -15.072 -26.166  0.00  0.00    -0.270 OA
ATOM      2  O   UNL     1      37.302 -18.757 -19.685  0.00  0.00    -0.274 OA
ATOM      3  N   UNL     1      36.373 -19.023 -21.728  0.00  0.00    -0.233 N 
ATOM      4  N   UNL     1      34.532 -15.485 -24.144  0.00  0.00    -0.264 N 
ATOM      5  N   UNL     1      34.798 -18.886 -24.955  0.00  0.00    -0.273 N 
ATOM      6  N   UNL     1      34.392 -17.615 -25.290  0.00  0.00    -0.157 NA
ATOM      7  C   UNL     1      35.410 -17.603 -23.163  0.00  0.00    +0.067 A 
ATOM      8  C   UNL     1      35.374 -18.851 -23.738  0.00  0.00    +0.093 A 
ATOM      9  C   UNL     1      34.765 -16.853 -24.206  0.00  0.00    +0.157 A 
ATOM     10  C   UNL     1      36.006 -17.663 -21.943  0.00  0.00    +0.076 C 
ATOM     11  C   UNL     1      33.889 -14.674 -25.089  0.00  0.00    +0.251 C 
ATOM     12  C   UNL     1      35.950 -19.709 -22.884  0.00  0.00    +0.091 C 
ATOM     13  C   UNL     1      37.014 -19.523 -20.592  0.00  0.00    +0.238 C 
ATOM     14  H   UNL     1      34.857 -15.028 -23.335  0.00  0.00    +0.157 HD
ATOM     15  H   UNL     1      34.686 -19.690 -25.513  0.00  0.00    +0.189 HD
ENDROOT
BRANCH  11  19
ATOM     16  C   UNL     1      33.522 -10.545 -24.059  0.00  0.00    +0.048 C 
ATOM     17  C   UNL     1      34.106 -10.939 -25.279  0.00  0.00    +0.015 C 
ATOM     18  C   UNL     1      33.063 -11.554 -23.188  0.00  0.00    +0.015 C 
ATOM     19  C   UNL     1      33.765 -13.270 -24.738  0.00  0.00    +0.054 C 
ATOM     20  C   UNL     1      34.226 -12.288 -25.615  0.00  0.00    +0.006 C 
ATOM     21  C   UNL     1      33.184 -12.902 -23.525  0.00  0.00    +0.006 C 
BRANCH  16  22
ATOM     22  N   UNL     1      33.401  -9.193 -23.721  0.00  0.00    -0.312 N 
ATOM     23  N   UNL     1      33.229  -6.498 -22.790  0.00  0.00    +0.388 N 
ATOM     24  C   UNL     1      32.371  -8.815 -22.745  0.00  0.00    +0.068 C 
ATOM     25  C   UNL     1      34.581  -8.324 -23.765  0.00  0.00    +0.068 C 
ATOM     26  C   UNL     1      32.024  -7.331 -22.879  0.00  0.00    -0.056 C 
ATOM     27  C   UNL     1      34.163  -6.854 -23.865  0.00  0.00    -0.056 C 
ATOM     28  C   UNL     1      32.880  -5.079 -22.864  0.00  0.00    -0.101 C 
ATOM     29  H   UNL     1      33.682  -6.667 -21.892  0.00  0.00    -0.080 HD
ENDBRANCH  16  22
ENDBRANCH  11  19
BRANCH  13  30
ATOM     30  C   UNL     1      37.292 -20.995 -20.603  0.00  0.00    +0.119 C 
BRANCH  30  32
ATOM     31  S   UNL     1      36.972 -21.914 -18.020  0.00  0.00    -0.090 S 
ATOM     32  C   UNL     1      36.393 -21.653 -19.600  0.00  0.00    +0.016 C 
ATOM     33  C   UNL     1      35.114 -22.095 -19.786  0.00  0.00    +0.003 C 
ATOM     34  C   UNL     1      34.583 -22.669 -18.594  0.00  0.00    +0.007 C 
ATOM     35  C   UNL     1      35.489 -22.635 -17.557  0.00  0.00    +0.035 C 
ENDBRANCH  30  32
ENDBRANCH  13  30
TORSDOF 4
ENDMDL
MODEL 5
REMARK VINA RESULT:      -9.9      4.105     11.546
REMARK  Name = 11963557
REMARK  4 active torsions:
REMARK  status: ('A' for Active; 'I' for Inactive)
REMARK    1  A    between atoms: C_11  and  C_19
REMARK    2  A    between atoms: C_13  and  C_30
REMARK    3  A    between atoms: C_16  and  N_22
REMARK    4  A    between atoms: C_30  and  C_32
REMARK                            x       y       z     vdW  Elec       q    Type
REMARK                         _______ _______ _______ _____ _____    ______ ____
ROOT
ATOM      1  O   UNL     1      36.957 -18.614 -22.451  0.00  0.00    -0.270 OA
ATOM      2  O   UNL     1      31.138 -22.145 -17.514  0.00  0.00    -0.274 OA
ATOM      3  N   UNL     1      33.125 -22.391 -18.562  0.00  0.00    -0.233 N 
ATOM      4  N   UNL     1      35.067 -19.006 -21.115  0.00  0.00    -0.264 N 
ATOM      5  N   UNL     1      36.205 -22.246 -20.408  0.00  0.00    -0.273 N 
ATOM      6  N   UNL     1      36.392 -21.033 -21.028  0.00  0.00    -0.157 NA
ATOM      7  C   UNL     1      34.350 -21.030 -19.847  0.00  0.00    +0.067 A 
ATOM      8  C   UNL     1      35.034 -22.218 -19.742  0.00  0.00    +0.093 A 
ATOM      9  C   UNL     1      35.271 -20.310 -20.684  0.00  0.00    +0.157 A 
ATOM     10  C   UNL     1      33.187 -21.092 -19.147  0.00  0.00    +0.076 C 
ATOM     11  C   UNL     1      35.885 -18.234 -21.951  0.00  0.00    +0.251 C 
ATOM     12  C   UNL     1      34.306 -23.040 -18.973  0.00  0.00    +0.091 C 
ATOM     13  C   UNL     1      32.089 -22.872 -17.759  0.00  0.00    +0.238 C 
ATOM     14  H   UNL     1      34.245 -18.569 -20.794  0.00  0.00    +0.157 HD
ATOM     15  H   UNL     1      36.825 -23.010 -20.444  0.00  0.00    +0.189 HD
ENDROOT
BRANCH  11  19
ATOM     16  C   UNL     1      34.452 -14.310 -22.848  0.00  0.00    +0.048 C 
ATOM     17  C   UNL     1      34.884 -15.177 -23.872  0.00  0.00    +0.015 C 
ATOM     18  C   UNL     1      34.508 -14.776 -21.519  0.00  0.00    +0.015 C 
ATOM     19  C   UNL     1      35.398 -16.899 -22.256  0.00  0.00    +0.054 C 
ATOM     20  C   UNL     1      35.352 -16.458 -23.578  0.00  0.00    +0.006 C 
ATOM     21  C   UNL     1      34.976 -16.057 -21.226  0.00  0.00    +0.006 C 
BRANCH  16  22
ATOM     22  N   UNL     1      33.983 -13.026 -23.141  0.00  0.00    -0.312 N 
ATOM     23  N   UNL     1      32.884 -10.510 -23.932  0.00  0.00    +0.388 N 
ATOM     24  C   UNL     1      34.354 -12.433 -24.432  0.00  0.00    +0.068 C 
ATOM     25  C   UNL     1      32.707 -12.572 -22.579  0.00  0.00    +0.068 C 
ATOM     26  C   UNL     1      34.224 -10.909 -24.381  0.00  0.00    -0.056 C 
ATOM     27  C   UNL     1      32.629 -11.043 -22.588  0.00  0.00    -0.056 C 
ATOM     28  C   UNL     1      32.753  -9.053 -23.939  0.00  0.00    -0.101 C 
ATOM     29  H   UNL     1      32.193 -10.894 -24.576  0.00  0.00    -0.080 HD
ENDBRANCH  16  22
ENDBRANCH  11  19
BRANCH  13  30
ATOM     30  C   UNL     1      32.255 -24.276 -17.263  0.00  0.00    +0.119 C 
BRANCH  30  32
ATOM     31  S   UNL     1      30.582 -25.091 -15.225  0.00  0.00    -0.090 S 
ATOM     32  C   UNL     1      31.976 -24.293 -15.790  0.00  0.00    +0.016 C 
ATOM     33  C   UNL     1      32.717 -23.730 -14.791  0.00  0.00    +0.003 C 
ATOM     34  C   UNL     1      32.128 -23.958 -13.513  0.00  0.00    +0.007 C 
ATOM     35  C   UNL     1      30.962 -24.687 -13.605  0.00  0.00    +0.035 C 
ENDBRANCH  30  32
ENDBRANCH  13  30
TORSDOF 4
ENDMDL
MODEL 6
REMARK VINA RESULT:      -9.8      5.578      9.704
REMARK  Name = 11963557
REMARK  4 active torsions:
REMARK  status: ('A' for Active; 'I' for Inactive)
REMARK    1  A    between atoms: C_11  and  C_19
REMARK    2  A    between atoms: C_13  and  C_30
REMARK    3  A    between atoms: C_16  and  N_22
REMARK    4  A    between atoms: C_30  and  C_32
REMARK                            x       y       z     vdW  Elec       q    Type
REMARK                         _______ _______ _______ _____ _____    ______ ____
ROOT
ATOM      1  O   UNL     1      31.795  -9.309 -21.506  0.00  0.00    -0.270 OA
ATOM      2  O   UNL     1      34.038  -4.400 -27.953  0.00  0.00    -0.274 OA
ATOM      3  N   UNL     1      33.053  -4.516 -25.923  0.00  0.00    -0.233 N 
ATOM      4  N   UNL     1      32.691  -8.493 -23.516  0.00  0.00    -0.264 N 
ATOM      5  N   UNL     1      31.613  -5.254 -22.714  0.00  0.00    -0.273 N 
ATOM      6  N   UNL     1      31.725  -6.584 -22.379  0.00  0.00    -0.157 NA
ATOM      7  C   UNL     1      32.695  -6.199 -24.495  0.00  0.00    +0.067 A 
ATOM      8  C   UNL     1      32.173  -5.063 -23.925  0.00  0.00    +0.093 A 
ATOM      9  C   UNL     1      32.377  -7.142 -23.457  0.00  0.00    +0.157 A 
ATOM     10  C   UNL     1      33.238  -5.912 -25.707  0.00  0.00    +0.076 C 
ATOM     11  C   UNL     1      32.401  -9.490 -22.575  0.00  0.00    +0.251 C 
ATOM     12  C   UNL     1      32.383  -4.048 -24.775  0.00  0.00    +0.091 C 
ATOM     13  C   UNL     1      33.464  -3.806 -27.053  0.00  0.00    +0.238 C 
ATOM     14  H   UNL     1      33.179  -8.788 -24.319  0.00  0.00    +0.157 HD
ATOM     15  H   UNL     1      31.192  -4.557 -22.161  0.00  0.00    +0.189 HD
ENDROOT
BRANCH  11  19
ATOM     16  C   UNL     1      33.674 -13.439 -23.594  0.00  0.00    +0.048 C 
ATOM     17  C   UNL     1      34.158 -12.316 -24.296  0.00  0.00    +0.015 C 
ATOM     18  C   UNL     1      32.756 -13.220 -22.547  0.00  0.00    +0.015 C 
ATOM     19  C   UNL     1      32.833 -10.834 -22.922  0.00  0.00    +0.054 C 
ATOM     20  C   UNL     1      33.742 -11.027 -23.963  0.00  0.00    +0.006 C 
ATOM     21  C   UNL     1      32.341 -11.930 -22.215  0.00  0.00    +0.006 C 
BRANCH  16  22
ATOM     22  N   UNL     1      34.090 -14.732 -23.927  0.00  0.00    -0.312 N 
ATOM     23  N   UNL     1      35.128 -17.262 -24.753  0.00  0.00    +0.388 N 
ATOM     24  C   UNL     1      33.962 -15.160 -25.327  0.00  0.00    +0.068 C 
ATOM     25  C   UNL     1      35.173 -15.365 -23.168  0.00  0.00    +0.068 C 
ATOM     26  C   UNL     1      33.954 -16.687 -25.422  0.00  0.00    -0.056 C 
ATOM     27  C   UNL     1      35.128 -16.886 -23.334  0.00  0.00    -0.056 C 
ATOM     28  C   UNL     1      35.139 -18.718 -24.898  0.00  0.00    -0.101 C 
ATOM     29  H   UNL     1      35.971 -16.893 -25.192  0.00  0.00    -0.080 HD
ENDBRANCH  16  22
ENDBRANCH  11  19
BRANCH  13  30
ATOM     30  C   UNL     1      33.153  -2.341 -27.045  0.00  0.00    +0.119 C 
BRANCH  30  32
ATOM     31  S   UNL     1      31.995  -2.021 -29.530  0.00  0.00    -0.090 S 
ATOM     32  C   UNL     1      31.896  -2.121 -27.833  0.00  0.00    +0.016 C 
ATOM     33  C   UNL     1      30.624  -1.981 -27.358  0.00  0.00    +0.003 C 
ATOM     34  C   UNL     1      29.691  -1.786 -28.418  0.00  0.00    +0.007 C 
ATOM     35  C   UNL     1      30.303  -1.786 -29.652  0.00  0.00    +0.035 C 
ENDBRANCH  30  32
ENDBRANCH  13  30
TORSDOF 4
ENDMDL
MODEL 7
REMARK VINA RESULT:      -9.3      1.755      2.756
REMARK  Name = 11963557
REMARK  4 active torsions:
REMARK  status: ('A' for Active; 'I' for Inactive)
REMARK    1  A    between atoms: C_11  and  C_19
REMARK    2  A    between atoms: C_13  and  C_30
REMARK    3  A    between atoms: C_16  and  N_22
REMARK    4  A    between atoms: C_30  and  C_32
REMARK                            x       y       z     vdW  Elec       q    Type
REMARK                         _______ _______ _______ _____ _____    ______ ____
ROOT
ATOM      1  O   UNL     1      35.001 -17.168 -25.927  0.00  0.00    -0.270 OA
ATOM      2  O   UNL     1      33.141  -9.768 -22.393  0.00  0.00    -0.274 OA
ATOM      3  N   UNL     1      33.483 -10.910 -24.313  0.00  0.00    -0.233 N 
ATOM      4  N   UNL     1      34.492 -15.462 -24.397  0.00  0.00    -0.264 N 
ATOM      5  N   UNL     1      34.109 -13.178 -27.030  0.00  0.00    -0.273 N 
ATOM      6  N   UNL     1      34.372 -14.457 -26.599  0.00  0.00    -0.157 NA
ATOM      7  C   UNL     1      33.976 -13.048 -24.750  0.00  0.00    +0.067 A 
ATOM      8  C   UNL     1      33.888 -12.395 -25.956  0.00  0.00    +0.093 A 
ATOM      9  C   UNL     1      34.289 -14.367 -25.227  0.00  0.00    +0.157 A 
ATOM     10  C   UNL     1      33.738 -12.184 -23.727  0.00  0.00    +0.076 C 
ATOM     11  C   UNL     1      34.827 -16.773 -24.762  0.00  0.00    +0.251 C 
ATOM     12  C   UNL     1      33.592 -11.112 -25.703  0.00  0.00    +0.091 C 
ATOM     13  C   UNL     1      33.192  -9.737 -23.614  0.00  0.00    +0.238 C 
ATOM     14  H   UNL     1      34.387 -15.297 -23.432  0.00  0.00    +0.157 HD
ATOM     15  H   UNL     1      34.087 -12.882 -27.968  0.00  0.00    +0.189 HD
ENDROOT
BRANCH  11  19
ATOM     16  C   UNL     1      35.344 -19.527 -21.537  0.00  0.00    +0.048 C 
ATOM     17  C   UNL     1      35.708 -18.172 -21.400  0.00  0.00    +0.015 C 
ATOM     18  C   UNL     1      34.804 -19.946 -22.770  0.00  0.00    +0.015 C 
ATOM     19  C   UNL     1      35.003 -17.710 -23.665  0.00  0.00    +0.054 C 
ATOM     20  C   UNL     1      35.539 -17.273 -22.454  0.00  0.00    +0.006 C 
ATOM     21  C   UNL     1      34.636 -19.046 -23.823  0.00  0.00    +0.006 C 
BRANCH  16  22
ATOM     22  N   UNL     1      35.512 -20.429 -20.482  0.00  0.00    -0.312 N 
ATOM     23  N   UNL     1      35.884 -22.458 -18.506  0.00  0.00    +0.388 N 
ATOM     24  C   UNL     1      34.494 -21.471 -20.295  0.00  0.00    +0.068 C 
ATOM     25  C   UNL     1      36.863 -20.775 -20.029  0.00  0.00    +0.068 C 
ATOM     26  C   UNL     1      34.533 -22.009 -18.863  0.00  0.00    -0.056 C 
ATOM     27  C   UNL     1      36.825 -21.336 -18.605  0.00  0.00    -0.056 C 
ATOM     28  C   UNL     1      35.897 -23.020 -17.155  0.00  0.00    -0.101 C 
ATOM     29  H   UNL     1      36.171 -23.189 -19.157  0.00  0.00    -0.080 HD
ENDBRANCH  16  22
ENDBRANCH  11  19
BRANCH  13  30
ATOM     30  C   UNL     1      32.963  -8.522 -24.458  0.00  0.00    +0.119 C 
BRANCH  30  32
ATOM     31  S   UNL     1      30.930  -6.976 -23.411  0.00  0.00    -0.090 S 
ATOM     32  C   UNL     1      32.576  -7.387 -23.558  0.00  0.00    +0.016 C 
ATOM     33  C   UNL     1      33.398  -6.598 -22.804  0.00  0.00    +0.003 C 
ATOM     34  C   UNL     1      32.658  -5.620 -22.077  0.00  0.00    +0.007 C 
ATOM     35  C   UNL     1      31.305  -5.714 -22.315  0.00  0.00    +0.035 C 
ENDBRANCH  30  32
ENDBRANCH  13  30
TORSDOF 4
ENDMDL
MODEL 8
REMARK VINA RESULT:      -8.9      2.724      4.064
REMARK  Name = 11963557
REMARK  4 active torsions:
REMARK  status: ('A' for Active; 'I' for Inactive)
REMARK    1  A    between atoms: C_11  and  C_19
REMARK    2  A    between atoms: C_13  and  C_30
REMARK    3  A    between atoms: C_16  and  N_22
REMARK    4  A    between atoms: C_30  and  C_32
REMARK                            x       y       z     vdW  Elec       q    Type
REMARK                         _______ _______ _______ _____ _____    ______ ____
ROOT
ATOM      1  O   UNL     1      36.593 -21.611 -21.076  0.00  0.00    -0.270 OA
ATOM      2  O   UNL     1      33.279 -13.906 -21.661  0.00  0.00    -0.274 OA
ATOM      3  N   UNL     1      34.787 -15.378 -22.476  0.00  0.00    -0.233 N 
ATOM      4  N   UNL     1      35.274 -19.693 -20.776  0.00  0.00    -0.264 N 
ATOM      5  N   UNL     1      36.981 -18.078 -23.378  0.00  0.00    -0.273 N 
ATOM      6  N   UNL     1      36.786 -19.197 -22.603  0.00  0.00    -0.157 NA
ATOM      7  C   UNL     1      35.306 -17.486 -21.937  0.00  0.00    +0.067 A 
ATOM      8  C   UNL     1      36.125 -17.118 -22.977  0.00  0.00    +0.093 A 
ATOM      9  C   UNL     1      35.777 -18.830 -21.740  0.00  0.00    +0.157 A 
ATOM     10  C   UNL     1      34.479 -16.461 -21.601  0.00  0.00    +0.076 C 
ATOM     11  C   UNL     1      35.683 -21.002 -20.489  0.00  0.00    +0.251 C 
ATOM     12  C   UNL     1      35.820 -15.855 -23.307  0.00  0.00    +0.091 C 
ATOM     13  C   UNL     1      34.167 -14.127 -22.471  0.00  0.00    +0.238 C 
ATOM     14  H   UNL     1      34.537 -19.342 -20.225  0.00  0.00    +0.157 HD
ATOM     15  H   UNL     1      37.638 -17.992 -24.106  0.00  0.00    +0.189 HD
ENDROOT
BRANCH  11  19
ATOM     16  C   UNL     1      33.631 -22.934 -17.279  0.00  0.00    +0.048 C 
ATOM     17  C   UNL     1      32.929 -22.440 -18.397  0.00  0.00    +0.015 C 
ATOM     18  C   UNL     1      35.031 -22.772 -17.252  0.00  0.00    +0.015 C 
ATOM     19  C   UNL     1      34.985 -21.659 -19.396  0.00  0.00    +0.054 C 
ATOM     20  C   UNL     1      33.599 -21.809 -19.445  0.00  0.00    +0.006 C 
ATOM     21  C   UNL     1      35.700 -22.140 -18.300  0.00  0.00    +0.006 C 
BRANCH  16  22
ATOM     22  N   UNL     1      32.959 -23.568 -16.228  0.00  0.00    -0.312 N 
ATOM     23  N   UNL     1      31.588 -25.077 -14.228  0.00  0.00    +0.388 N 
ATOM     24  C   UNL     1      31.582 -24.022 -16.463  0.00  0.00    +0.068 C 
ATOM     25  C   UNL     1      33.720 -24.335 -15.237  0.00  0.00    +0.068 C 
ATOM     26  C   UNL     1      30.842 -24.197 -15.136  0.00  0.00    -0.056 C 
ATOM     27  C   UNL     1      32.909 -24.501 -13.948  0.00  0.00    -0.056 C 
ATOM     28  C   UNL     1      30.844 -25.281 -12.984  0.00  0.00    -0.101 C 
ATOM     29  H   UNL     1      31.712 -25.984 -14.676  0.00  0.00    -0.080 HD
ENDBRANCH  16  22
ENDBRANCH  11  19
BRANCH  13  30
ATOM     30  C   UNL     1      34.669 -13.153 -23.492  0.00  0.00    +0.119 C 
BRANCH  30  32
ATOM     31  S   UNL     1      34.102 -12.377 -26.079  0.00  0.00    -0.090 S 
ATOM     32  C   UNL     1      34.099 -13.530 -24.826  0.00  0.00    +0.016 C 
ATOM     33  C   UNL     1      33.550 -14.725 -25.194  0.00  0.00    +0.003 C 
ATOM     34  C   UNL     1      33.115 -14.702 -26.551  0.00  0.00    +0.007 C 
ATOM     35  C   UNL     1      33.356 -13.485 -27.150  0.00  0.00    +0.035 C 
ENDBRANCH  30  32
ENDBRANCH  13  30
TORSDOF 4
ENDMDL
MODEL 9
REMARK VINA RESULT:      -8.7      4.587     11.577
REMARK  Name = 11963557
REMARK  4 active torsions:
REMARK  status: ('A' for Active; 'I' for Inactive)
REMARK    1  A    between atoms: C_11  and  C_19
REMARK    2  A    between atoms: C_13  and  C_30
REMARK    3  A    between atoms: C_16  and  N_22
REMARK    4  A    between atoms: C_30  and  C_32
REMARK                            x       y       z     vdW  Elec       q    Type
REMARK                         _______ _______ _______ _____ _____    ______ ____
ROOT
ATOM      1  O   UNL     1      37.795 -19.254 -21.352  0.00  0.00    -0.270 OA
ATOM      2  O   UNL     1      31.235 -23.058 -17.720  0.00  0.00    -0.274 OA
ATOM      3  N   UNL     1      33.485 -22.929 -17.891  0.00  0.00    -0.233 N 
ATOM      4  N   UNL     1      35.633 -19.865 -20.673  0.00  0.00    -0.264 N 
ATOM      5  N   UNL     1      36.965 -22.303 -18.533  0.00  0.00    -0.273 N 
ATOM      6  N   UNL     1      37.159 -21.289 -19.442  0.00  0.00    -0.157 NA
ATOM      7  C   UNL     1      34.852 -21.624 -19.087  0.00  0.00    +0.067 A 
ATOM      8  C   UNL     1      35.641 -22.474 -18.350  0.00  0.00    +0.093 A 
ATOM      9  C   UNL     1      35.882 -20.889 -19.769  0.00  0.00    +0.157 A 
ATOM     10  C   UNL     1      33.537 -21.867 -18.840  0.00  0.00    +0.076 C 
ATOM     11  C   UNL     1      36.562 -19.113 -21.405  0.00  0.00    +0.251 C 
ATOM     12  C   UNL     1      34.829 -23.260 -17.629  0.00  0.00    +0.091 C 
ATOM     13  C   UNL     1      32.321 -23.491 -17.362  0.00  0.00    +0.238 C 
ATOM     14  H   UNL     1      34.686 -19.640 -20.820  0.00  0.00    +0.157 HD
ATOM     15  H   UNL     1      37.675 -22.820 -18.090  0.00  0.00    +0.189 HD
ENDROOT
BRANCH  11  19
ATOM     16  C   UNL     1      34.921 -16.187 -24.049  0.00  0.00    +0.048 C 
ATOM     17  C   UNL     1      35.116 -15.902 -22.682  0.00  0.00    +0.015 C 
ATOM     18  C   UNL     1      35.283 -17.466 -24.517  0.00  0.00    +0.015 C 
ATOM     19  C   UNL     1      36.003 -18.118 -22.304  0.00  0.00    +0.054 C 
ATOM     20  C   UNL     1      35.652 -16.858 -21.819  0.00  0.00    +0.006 C 
ATOM     21  C   UNL     1      35.819 -18.421 -23.653  0.00  0.00    +0.006 C 
BRANCH  16  22
ATOM     22  N   UNL     1      34.384 -15.229 -24.915  0.00  0.00    -0.312 N 
ATOM     23  N   UNL     1      33.052 -13.375 -26.633  0.00  0.00    +0.388 N 
ATOM     24  C   UNL     1      33.750 -15.697 -26.155  0.00  0.00    +0.068 C 
ATOM     25  C   UNL     1      33.863 -13.969 -24.374  0.00  0.00    +0.068 C 
ATOM     26  C   UNL     1      33.698 -14.570 -27.189  0.00  0.00    -0.056 C 
ATOM     27  C   UNL     1      33.805 -12.898 -25.466  0.00  0.00    -0.056 C 
ATOM     28  C   UNL     1      32.959 -12.323 -27.646  0.00  0.00    -0.101 C 
ATOM     29  H   UNL     1      32.107 -13.617 -26.338  0.00  0.00    -0.080 HD
ENDBRANCH  16  22
ENDBRANCH  11  19
BRANCH  13  30
ATOM     30  C   UNL     1      32.528 -24.600 -16.378  0.00  0.00    +0.119 C 
BRANCH  30  32
ATOM     31  S   UNL     1      30.705 -25.190 -14.391  0.00  0.00    -0.090 S 
ATOM     32  C   UNL     1      31.908 -24.197 -15.074  0.00  0.00    +0.016 C 
ATOM     33  C   UNL     1      32.187 -23.092 -14.321  0.00  0.00    +0.003 C 
ATOM     34  C   UNL     1      31.389 -23.052 -13.141  0.00  0.00    +0.007 C 
ATOM     35  C   UNL     1      30.540 -24.133 -13.054  0.00  0.00    +0.035 C 
ENDBRANCH  30  32
ENDBRANCH  13  30
TORSDOF 4
ENDMDL
