MODEL 1
REMARK VINA RESULT:     -11.4      0.000      0.000
REMARK  Name = 444581
REMARK  5 active torsions:
REMARK  status: ('A' for Active; 'I' for Inactive)
REMARK    1  A    between atoms: N_2  and  C_7
REMARK    2  A    between atoms: N_3  and  C_20
REMARK    3  A    between atoms: C_8  and  O_13
REMARK    4  A    between atoms: O_13  and  C_14
REMARK    5  A    between atoms: C_21  and  C_28
REMARK                            x       y       z     vdW  Elec       q    Type
REMARK                         _______ _______ _______ _____ _____    ______ ____
ROOT
ATOM      1  O   UNL     1      35.786 -22.333 -19.247  0.00  0.00    -0.252 OA
ATOM      2  N   UNL     1      36.942 -20.307 -19.412  0.00  0.00    -0.268 N 
ATOM      3  N   UNL     1      37.160 -21.589 -17.502  0.00  0.00    -0.268 N 
ATOM      4  C   UNL     1      36.547 -21.495 -18.775  0.00  0.00    +0.308 C 
ATOM      5  H   UNL     1      37.561 -19.733 -18.906  0.00  0.00    +0.156 HD
ATOM      6  H   UNL     1      37.749 -20.840 -17.256  0.00  0.00    +0.156 HD
ENDROOT
BRANCH   2   7
ATOM      7  C   UNL     1      36.560 -19.836 -20.690  0.00  0.00    +0.052 C 
ATOM      8  C   UNL     1      35.811 -18.910 -23.191  0.00  0.00    +0.145 C 
ATOM      9  C   UNL     1      37.466 -19.108 -21.443  0.00  0.00    +0.018 C 
ATOM     10  C   UNL     1      35.288 -20.111 -21.161  0.00  0.00    +0.018 C 
ATOM     11  C   UNL     1      37.089 -18.641 -22.702  0.00  0.00    +0.039 C 
ATOM     12  C   UNL     1      34.910 -19.645 -22.420  0.00  0.00    +0.039 C 
BRANCH   8  13
ATOM     13  O   UNL     1      35.443 -18.457 -24.421  0.00  0.00    -0.453 OA
BRANCH  13  14
ATOM     14  C   UNL     1      34.999 -17.149 -24.518  0.00  0.00    +0.145 C 
ATOM     15  C   UNL     1      35.253 -16.272 -23.480  0.00  0.00    +0.037 C 
ATOM     16  C   UNL     1      34.312 -16.754 -25.652  0.00  0.00    +0.037 C 
ATOM     17  C   UNL     1      34.805 -14.955 -23.577  0.00  0.00    +0.003 C 
ATOM     18  C   UNL     1      33.865 -15.437 -25.750  0.00  0.00    +0.003 C 
ATOM     19  C   UNL     1      34.111 -14.536 -24.712  0.00  0.00    +0.000 C 
ENDBRANCH  13  14
ENDBRANCH   8  13
ENDBRANCH   2   7
BRANCH   3  20
ATOM     20  C   UNL     1      37.039 -22.601 -16.550  0.00  0.00    +0.052 C 
ATOM     21  C   UNL     1      36.799 -24.624 -14.644  0.00  0.00    +0.031 C 
ATOM     22  C   UNL     1      38.175 -23.268 -16.093  0.00  0.00    +0.015 C 
ATOM     23  C   UNL     1      35.782 -22.946 -16.053  0.00  0.00    +0.015 C 
ATOM     24  C   UNL     1      38.056 -24.280 -15.140  0.00  0.00    +0.004 C 
ATOM     25  C   UNL     1      35.661 -23.957 -15.101  0.00  0.00    +0.004 C 
BRANCH  21  28
ATOM     26  N   UNL     1      37.202 -26.949 -13.870  0.00  0.00    -0.343 N 
ATOM     27  N   UNL     1      36.042 -25.441 -12.515  0.00  0.00    -0.285 NA
ATOM     28  C   UNL     1      36.673 -25.679 -13.650  0.00  0.00    +0.117 C 
ATOM     29  H   UNL     1      37.106 -27.647 -13.183  0.00  0.00    +0.144 HD
ATOM     30  H   UNL     1      37.673 -27.147 -14.711  0.00  0.00    +0.144 HD
ATOM     31  H   UNL     1      35.955 -26.152 -11.840  0.00  0.00    +0.188 HD
ENDBRANCH  21  28
ENDBRANCH   3  20
TORSDOF 5
ENDMDL
MODEL 2
REMARK VINA RESULT:     -10.9      2.948     10.938
REMARK  Name = 444581
REMARK  5 active torsions:
REMARK  status: ('A' for Active; 'I' for Inactive)
REMARK    1  A    between atoms: N_2  and  C_7
REMARK    2  A    between atoms: N_3  and  C_20
REMARK    3  A    between atoms: C_8  and  O_13
REMARK    4  A    between atoms: O_13  and  C_14
REMARK    5  A    between atoms: C_21  and  C_28
REMARK                            x       y       z     vdW  Elec       q    Type
REMARK                         _______ _______ _______ _____ _____    ______ ____
ROOT
ATOM      1  O   UNL     1      34.040 -19.925 -20.352  0.00  0.00    -0.252 OA
ATOM      2  N   UNL     1      35.920 -21.276 -20.017  0.00  0.00    -0.268 N 
ATOM      3  N   UNL     1      35.886 -19.794 -21.788  0.00  0.00    -0.268 N 
ATOM      4  C   UNL     1      35.162 -20.296 -20.680  0.00  0.00    +0.308 C 
ATOM      5  H   UNL     1      36.806 -21.467 -20.400  0.00  0.00    +0.156 HD
ATOM      6  H   UNL     1      36.777 -20.186 -21.931  0.00  0.00    +0.156 HD
ENDROOT
BRANCH   2   7
ATOM      7  C   UNL     1      35.565 -22.021 -18.868  0.00  0.00    +0.052 C 
ATOM      8  C   UNL     1      34.870 -23.483 -16.620  0.00  0.00    +0.145 C 
ATOM      9  C   UNL     1      36.442 -22.077 -17.798  0.00  0.00    +0.018 C 
ATOM     10  C   UNL     1      34.348 -22.682 -18.838  0.00  0.00    +0.018 C 
ATOM     11  C   UNL     1      36.093 -22.812 -16.666  0.00  0.00    +0.039 C 
ATOM     12  C   UNL     1      33.997 -23.417 -17.706  0.00  0.00    +0.039 C 
BRANCH   8  13
ATOM     13  O   UNL     1      34.529 -24.200 -15.514  0.00  0.00    -0.453 OA
BRANCH  13  14
ATOM     14  C   UNL     1      35.518 -24.952 -14.904  0.00  0.00    +0.145 C 
ATOM     15  C   UNL     1      36.104 -25.990 -15.605  0.00  0.00    +0.037 C 
ATOM     16  C   UNL     1      35.894 -24.646 -13.609  0.00  0.00    +0.037 C 
ATOM     17  C   UNL     1      37.100 -26.748 -14.990  0.00  0.00    +0.003 C 
ATOM     18  C   UNL     1      36.890 -25.404 -12.994  0.00  0.00    +0.003 C 
ATOM     19  C   UNL     1      37.494 -26.456 -13.685  0.00  0.00    +0.000 C 
ENDBRANCH  13  14
ENDBRANCH   8  13
ENDBRANCH   2   7
BRANCH   3  20
ATOM     20  C   UNL     1      35.502 -18.816 -22.708  0.00  0.00    +0.052 C 
ATOM     21  C   UNL     1      34.733 -16.863 -24.544  0.00  0.00    +0.031 C 
ATOM     22  C   UNL     1      34.922 -19.188 -23.920  0.00  0.00    +0.015 C 
ATOM     23  C   UNL     1      35.697 -17.467 -22.413  0.00  0.00    +0.015 C 
ATOM     24  C   UNL     1      34.538 -18.212 -24.839  0.00  0.00    +0.004 C 
ATOM     25  C   UNL     1      35.313 -16.490 -23.331  0.00  0.00    +0.004 C 
BRANCH  21  28
ATOM     26  N   UNL     1      34.462 -14.486 -25.211  0.00  0.00    -0.343 N 
ATOM     27  N   UNL     1      33.829 -16.198 -26.669  0.00  0.00    -0.285 NA
ATOM     28  C   UNL     1      34.332 -15.843 -25.501  0.00  0.00    +0.117 C 
ATOM     29  H   UNL     1      34.185 -13.813 -25.874  0.00  0.00    +0.144 HD
ATOM     30  H   UNL     1      34.832 -14.202 -24.345  0.00  0.00    +0.144 HD
ATOM     31  H   UNL     1      33.557 -15.511 -27.319  0.00  0.00    +0.188 HD
ENDBRANCH  21  28
ENDBRANCH   3  20
TORSDOF 5
ENDMDL
MODEL 3
REMARK VINA RESULT:     -10.9      2.078      3.302
REMARK  Name = 444581
REMARK  5 active torsions:
REMARK  status: ('A' for Active; 'I' for Inactive)
REMARK    1  A    between atoms: N_2  and  C_7
REMARK    2  A    between atoms: N_3  and  C_20
REMARK    3  A    between atoms: C_8  and  O_13
REMARK    4  A    between atoms: O_13  and  C_14
REMARK    5  A    between atoms: C_21  and  C_28
REMARK                            x       y       z     vdW  Elec       q    Type
REMARK                         _______ _______ _______ _____ _____    ______ ____
ROOT
ATOM      1  O   UNL     1      34.022 -19.830 -21.044  0.00  0.00    -0.252 OA
ATOM      2  N   UNL     1      35.844 -19.595 -22.492  0.00  0.00    -0.268 N 
ATOM      3  N   UNL     1      36.052 -20.916 -20.607  0.00  0.00    -0.268 N 
ATOM      4  C   UNL     1      35.182 -20.083 -21.353  0.00  0.00    +0.308 C 
ATOM      5  H   UNL     1      36.777 -19.887 -22.605  0.00  0.00    +0.156 HD
ATOM      6  H   UNL     1      36.956 -21.028 -20.977  0.00  0.00    +0.156 HD
ENDROOT
BRANCH   2   7
ATOM      7  C   UNL     1      35.335 -18.737 -23.494  0.00  0.00    +0.052 C 
ATOM      8  C   UNL     1      34.336 -17.055 -25.455  0.00  0.00    +0.145 C 
ATOM      9  C   UNL     1      35.716 -17.405 -23.503  0.00  0.00    +0.018 C 
ATOM     10  C   UNL     1      34.466 -19.245 -24.444  0.00  0.00    +0.018 C 
ATOM     11  C   UNL     1      35.213 -16.558 -24.490  0.00  0.00    +0.039 C 
ATOM     12  C   UNL     1      33.963 -18.399 -25.432  0.00  0.00    +0.039 C 
BRANCH   8  13
ATOM     13  O   UNL     1      33.846 -16.228 -26.419  0.00  0.00    -0.453 OA
BRANCH  13  14
ATOM     14  C   UNL     1      33.848 -14.868 -26.162  0.00  0.00    +0.145 C 
ATOM     15  C   UNL     1      33.861 -14.430 -24.851  0.00  0.00    +0.037 C 
ATOM     16  C   UNL     1      33.835 -13.983 -27.225  0.00  0.00    +0.037 C 
ATOM     17  C   UNL     1      33.862 -13.059 -24.593  0.00  0.00    +0.003 C 
ATOM     18  C   UNL     1      33.836 -12.612 -26.966  0.00  0.00    +0.003 C 
ATOM     19  C   UNL     1      33.849 -12.150 -25.650  0.00  0.00    +0.000 C 
ENDBRANCH  13  14
ENDBRANCH   8  13
ENDBRANCH   2   7
BRANCH   3  20
ATOM     20  C   UNL     1      35.796 -21.597 -19.417  0.00  0.00    +0.052 C 
ATOM     21  C   UNL     1      35.285 -22.958 -17.035  0.00  0.00    +0.031 C 
ATOM     22  C   UNL     1      36.770 -21.649 -18.420  0.00  0.00    +0.015 C 
ATOM     23  C   UNL     1      34.566 -22.225 -19.222  0.00  0.00    +0.015 C 
ATOM     24  C   UNL     1      36.516 -22.330 -17.230  0.00  0.00    +0.004 C 
ATOM     25  C   UNL     1      34.310 -22.905 -18.032  0.00  0.00    +0.004 C 
BRANCH  21  28
ATOM     26  N   UNL     1      34.232 -23.101 -14.791  0.00  0.00    -0.343 N 
ATOM     27  N   UNL     1      35.529 -24.869 -15.599  0.00  0.00    -0.285 NA
ATOM     28  C   UNL     1      35.018 -23.667 -15.794  0.00  0.00    +0.117 C 
ATOM     29  H   UNL     1      34.063 -23.599 -13.959  0.00  0.00    +0.144 HD
ATOM     30  H   UNL     1      33.845 -22.205 -14.916  0.00  0.00    +0.144 HD
ATOM     31  H   UNL     1      35.349 -25.351 -14.760  0.00  0.00    +0.188 HD
ENDBRANCH  21  28
ENDBRANCH   3  20
TORSDOF 5
ENDMDL
MODEL 4
REMARK VINA RESULT:     -10.9      3.558     10.597
REMARK  Name = 444581
REMARK  5 active torsions:
REMARK  status: ('A' for Active; 'I' for Inactive)
REMARK    1  A    between atoms: N_2  and  C_7
REMARK    2  A    between atoms: N_3  and  C_20
REMARK    3  A    between atoms: C_8  and  O_13
REMARK    4  A    between atoms: O_13  and  C_14
REMARK    5  A    between atoms: C_21  and  C_28
REMARK                            x       y       z     vdW  Elec       q    Type
REMARK                         _______ _______ _______ _____ _____    ______ ____
ROOT
ATOM      1  O   UNL     1      33.954 -19.443 -21.115  0.00  0.00    -0.252 OA
ATOM      2  N   UNL     1      35.978 -20.545 -20.716  0.00  0.00    -0.268 N 
ATOM      3  N   UNL     1      35.863 -18.943 -22.377  0.00  0.00    -0.268 N 
ATOM      4  C   UNL     1      35.139 -19.628 -21.372  0.00  0.00    +0.308 C 
ATOM      5  H   UNL     1      36.909 -20.580 -21.035  0.00  0.00    +0.156 HD
ATOM      6  H   UNL     1      36.809 -19.196 -22.470  0.00  0.00    +0.156 HD
ENDROOT
BRANCH   2   7
ATOM      7  C   UNL     1      35.650 -21.422 -19.657  0.00  0.00    +0.052 C 
ATOM      8  C   UNL     1      35.006 -23.139 -17.581  0.00  0.00    +0.145 C 
ATOM      9  C   UNL     1      34.471 -22.147 -19.717  0.00  0.00    +0.018 C 
ATOM     10  C   UNL     1      36.513 -21.538 -18.580  0.00  0.00    +0.018 C 
ATOM     11  C   UNL     1      34.146 -23.012 -18.672  0.00  0.00    +0.039 C 
ATOM     12  C   UNL     1      36.190 -22.403 -17.535  0.00  0.00    +0.039 C 
BRANCH   8  13
ATOM     13  O   UNL     1      34.690 -23.984 -16.561  0.00  0.00    -0.453 OA
BRANCH  13  14
ATOM     14  C   UNL     1      33.519 -23.742 -15.864  0.00  0.00    +0.145 C 
ATOM     15  C   UNL     1      33.502 -23.918 -14.493  0.00  0.00    +0.037 C 
ATOM     16  C   UNL     1      32.395 -23.330 -16.558  0.00  0.00    +0.037 C 
ATOM     17  C   UNL     1      32.322 -23.674 -13.790  0.00  0.00    +0.003 C 
ATOM     18  C   UNL     1      31.215 -23.086 -15.856  0.00  0.00    +0.003 C 
ATOM     19  C   UNL     1      31.178 -23.258 -14.471  0.00  0.00    +0.000 C 
ENDBRANCH  13  14
ENDBRANCH   8  13
ENDBRANCH   2   7
BRANCH   3  20
ATOM     20  C   UNL     1      35.412 -17.956 -23.255  0.00  0.00    +0.052 C 
ATOM     21  C   UNL     1      34.514 -15.983 -25.010  0.00  0.00    +0.031 C 
ATOM     22  C   UNL     1      35.465 -16.614 -22.881  0.00  0.00    +0.015 C 
ATOM     23  C   UNL     1      34.911 -18.312 -24.507  0.00  0.00    +0.015 C 
ATOM     24  C   UNL     1      35.016 -15.627 -23.759  0.00  0.00    +0.004 C 
ATOM     25  C   UNL     1      34.462 -17.326 -25.385  0.00  0.00    +0.004 C 
BRANCH  21  28
ATOM     26  N   UNL     1      33.844 -13.642 -25.501  0.00  0.00    -0.343 N 
ATOM     27  N   UNL     1      33.801 -15.259 -27.188  0.00  0.00    -0.285 NA
ATOM     28  C   UNL     1      34.046 -14.954 -25.926  0.00  0.00    +0.117 C 
ATOM     29  H   UNL     1      33.528 -12.962 -26.137  0.00  0.00    +0.144 HD
ATOM     30  H   UNL     1      34.019 -13.397 -24.564  0.00  0.00    +0.144 HD
ATOM     31  H   UNL     1      33.484 -14.565 -27.810  0.00  0.00    +0.188 HD
ENDBRANCH  21  28
ENDBRANCH   3  20
TORSDOF 5
ENDMDL
MODEL 5
REMARK VINA RESULT:     -10.9      7.398     13.580
REMARK  Name = 444581
REMARK  5 active torsions:
REMARK  status: ('A' for Active; 'I' for Inactive)
REMARK    1  A    between atoms: N_2  and  C_7
REMARK    2  A    between atoms: N_3  and  C_20
REMARK    3  A    between atoms: C_8  and  O_13
REMARK    4  A    between atoms: O_13  and  C_14
REMARK    5  A    between atoms: C_21  and  C_28
REMARK                            x       y       z     vdW  Elec       q    Type
REMARK                         _______ _______ _______ _____ _____    ______ ____
ROOT
ATOM      1  O   UNL     1      33.870 -10.714 -23.897  0.00  0.00    -0.252 OA
ATOM      2  N   UNL     1      32.799 -12.393 -22.671  0.00  0.00    -0.268 N 
ATOM      3  N   UNL     1      32.062 -10.211 -22.495  0.00  0.00    -0.268 N 
ATOM      4  C   UNL     1      33.005 -11.073 -23.106  0.00  0.00    +0.308 C 
ATOM      5  H   UNL     1      32.063 -12.526 -22.031  0.00  0.00    +0.156 HD
ATOM      6  H   UNL     1      31.426 -10.640 -21.880  0.00  0.00    +0.156 HD
ENDROOT
BRANCH   2   7
ATOM      7  C   UNL     1      33.521 -13.553 -23.038  0.00  0.00    +0.052 C 
ATOM      8  C   UNL     1      34.935 -15.823 -23.759  0.00  0.00    +0.145 C 
ATOM      9  C   UNL     1      34.245 -14.235 -22.075  0.00  0.00    +0.018 C 
ATOM     10  C   UNL     1      33.489 -13.982 -24.355  0.00  0.00    +0.018 C 
ATOM     11  C   UNL     1      34.957 -15.378 -22.437  0.00  0.00    +0.039 C 
ATOM     12  C   UNL     1      34.201 -15.126 -24.718  0.00  0.00    +0.039 C 
BRANCH   8  13
ATOM     13  O   UNL     1      35.629 -16.940 -24.113  0.00  0.00    -0.453 OA
BRANCH  13  14
ATOM     14  C   UNL     1      35.716 -17.964 -23.185  0.00  0.00    +0.145 C 
ATOM     15  C   UNL     1      34.696 -18.894 -23.111  0.00  0.00    +0.037 C 
ATOM     16  C   UNL     1      36.822 -18.028 -22.356  0.00  0.00    +0.037 C 
ATOM     17  C   UNL     1      34.784 -19.926 -22.175  0.00  0.00    +0.003 C 
ATOM     18  C   UNL     1      36.909 -19.060 -21.421  0.00  0.00    +0.003 C 
ATOM     19  C   UNL     1      35.890 -20.009 -21.330  0.00  0.00    +0.000 C 
ENDBRANCH  13  14
ENDBRANCH   8  13
ENDBRANCH   2   7
BRANCH   3  20
ATOM     20  C   UNL     1      31.916  -8.832 -22.650  0.00  0.00    +0.052 C 
ATOM     21  C   UNL     1      31.621  -6.075 -22.959  0.00  0.00    +0.031 C 
ATOM     22  C   UNL     1      31.321  -8.319 -23.802  0.00  0.00    +0.015 C 
ATOM     23  C   UNL     1      32.362  -7.967 -21.652  0.00  0.00    +0.015 C 
ATOM     24  C   UNL     1      31.174  -6.940 -23.958  0.00  0.00    +0.004 C 
ATOM     25  C   UNL     1      32.215  -6.588 -21.806  0.00  0.00    +0.004 C 
BRANCH  21  28
ATOM     26  N   UNL     1      30.529  -3.922 -22.376  0.00  0.00    -0.343 N 
ATOM     27  N   UNL     1      32.221  -3.987 -23.987  0.00  0.00    -0.285 NA
ATOM     28  C   UNL     1      31.467  -4.638 -23.120  0.00  0.00    +0.117 C 
ATOM     29  H   UNL     1      30.443  -2.950 -22.500  0.00  0.00    +0.144 HD
ATOM     30  H   UNL     1      29.956  -4.389 -21.727  0.00  0.00    +0.144 HD
ATOM     31  H   UNL     1      32.119  -3.015 -24.097  0.00  0.00    +0.188 HD
ENDBRANCH  21  28
ENDBRANCH   3  20
TORSDOF 5
ENDMDL
MODEL 6
REMARK VINA RESULT:     -10.9      2.755      3.493
REMARK  Name = 444581
REMARK  5 active torsions:
REMARK  status: ('A' for Active; 'I' for Inactive)
REMARK    1  A    between atoms: N_2  and  C_7
REMARK    2  A    between atoms: N_3  and  C_20
REMARK    3  A    between atoms: C_8  and  O_13
REMARK    4  A    between atoms: O_13  and  C_14
REMARK    5  A    between atoms: C_21  and  C_28
REMARK                            x       y       z     vdW  Elec       q    Type
REMARK                         _______ _______ _______ _____ _____    ______ ____
ROOT
ATOM      1  O   UNL     1      33.053 -21.311 -19.341  0.00  0.00    -0.252 OA
ATOM      2  N   UNL     1      35.368 -21.360 -19.665  0.00  0.00    -0.268 N 
ATOM      3  N   UNL     1      34.434 -22.593 -17.950  0.00  0.00    -0.268 N 
ATOM      4  C   UNL     1      34.168 -21.709 -19.023  0.00  0.00    +0.308 C 
ATOM      5  H   UNL     1      36.187 -21.761 -19.294  0.00  0.00    +0.156 HD
ATOM      6  H   UNL     1      35.379 -22.826 -17.812  0.00  0.00    +0.156 HD
ENDROOT
BRANCH   2   7
ATOM      7  C   UNL     1      35.543 -20.504 -20.778  0.00  0.00    +0.052 C 
ATOM      8  C   UNL     1      35.888 -18.829 -22.957  0.00  0.00    +0.145 C 
ATOM      9  C   UNL     1      34.510 -20.356 -21.688  0.00  0.00    +0.018 C 
ATOM     10  C   UNL     1      36.744 -19.833 -20.934  0.00  0.00    +0.018 C 
ATOM     11  C   UNL     1      34.683 -19.513 -22.786  0.00  0.00    +0.039 C 
ATOM     12  C   UNL     1      36.918 -18.989 -22.031  0.00  0.00    +0.039 C 
BRANCH   8  13
ATOM     13  O   UNL     1      36.056 -18.005 -24.027  0.00  0.00    -0.453 OA
BRANCH  13  14
ATOM     14  C   UNL     1      35.340 -16.820 -24.046  0.00  0.00    +0.145 C 
ATOM     15  C   UNL     1      34.690 -16.444 -25.207  0.00  0.00    +0.037 C 
ATOM     16  C   UNL     1      35.294 -16.044 -22.902  0.00  0.00    +0.037 C 
ATOM     17  C   UNL     1      33.969 -15.250 -25.226  0.00  0.00    +0.003 C 
ATOM     18  C   UNL     1      34.572 -14.850 -22.921  0.00  0.00    +0.003 C 
ATOM     19  C   UNL     1      33.910 -14.453 -24.083  0.00  0.00    +0.000 C 
ENDBRANCH  13  14
ENDBRANCH   8  13
ENDBRANCH   2   7
BRANCH   3  20
ATOM     20  C   UNL     1      33.531 -23.177 -17.059  0.00  0.00    +0.052 C 
ATOM     21  C   UNL     1      31.729 -24.343 -15.278  0.00  0.00    +0.031 C 
ATOM     22  C   UNL     1      34.001 -23.850 -15.932  0.00  0.00    +0.015 C 
ATOM     23  C   UNL     1      32.160 -23.086 -17.296  0.00  0.00    +0.015 C 
ATOM     24  C   UNL     1      33.100 -24.434 -15.041  0.00  0.00    +0.004 C 
ATOM     25  C   UNL     1      31.258 -23.669 -16.406  0.00  0.00    +0.004 C 
BRANCH  21  28
ATOM     26  N   UNL     1      29.601 -25.529 -14.796  0.00  0.00    -0.343 N 
ATOM     27  N   UNL     1      31.052 -24.957 -13.055  0.00  0.00    -0.285 NA
ATOM     28  C   UNL     1      30.788 -24.951 -14.349  0.00  0.00    +0.117 C 
ATOM     29  H   UNL     1      28.979 -25.935 -14.150  0.00  0.00    +0.144 HD
ATOM     30  H   UNL     1      29.386 -25.531 -15.756  0.00  0.00    +0.144 HD
ATOM     31  H   UNL     1      30.417 -25.367 -12.425  0.00  0.00    +0.188 HD
ENDBRANCH  21  28
ENDBRANCH   3  20
TORSDOF 5
ENDMDL
MODEL 7
REMARK VINA RESULT:     -10.8      5.790     11.907
REMARK  Name = 444581
REMARK  5 active torsions:
REMARK  status: ('A' for Active; 'I' for Inactive)
REMARK    1  A    between atoms: N_2  and  C_7
REMARK    2  A    between atoms: N_3  and  C_20
REMARK    3  A    between atoms: C_8  and  O_13
REMARK    4  A    between atoms: O_13  and  C_14
REMARK    5  A    between atoms: C_21  and  C_28
REMARK                            x       y       z     vdW  Elec       q    Type
REMARK                         _______ _______ _______ _____ _____    ______ ____
ROOT
ATOM      1  O   UNL     1      34.007 -13.664 -21.698  0.00  0.00    -0.252 OA
ATOM      2  N   UNL     1      34.665 -14.737 -23.669  0.00  0.00    -0.268 N 
ATOM      3  N   UNL     1      33.873 -12.569 -23.764  0.00  0.00    -0.268 N 
ATOM      4  C   UNL     1      34.166 -13.662 -22.914  0.00  0.00    +0.308 C 
ATOM      5  H   UNL     1      34.737 -14.585 -24.639  0.00  0.00    +0.156 HD
ATOM      6  H   UNL     1      34.052 -12.711 -24.720  0.00  0.00    +0.156 HD
ENDROOT
BRANCH   2   7
ATOM      7  C   UNL     1      35.077 -16.008 -23.207  0.00  0.00    +0.052 C 
ATOM      8  C   UNL     1      35.885 -18.499 -22.303  0.00  0.00    +0.145 C 
ATOM      9  C   UNL     1      35.272 -16.207 -21.850  0.00  0.00    +0.018 C 
ATOM     10  C   UNL     1      35.277 -17.030 -24.121  0.00  0.00    +0.018 C 
ATOM     11  C   UNL     1      35.679 -17.460 -21.394  0.00  0.00    +0.039 C 
ATOM     12  C   UNL     1      35.683 -18.284 -23.666  0.00  0.00    +0.039 C 
BRANCH   8  13
ATOM     13  O   UNL     1      36.280 -19.724 -21.858  0.00  0.00    -0.453 OA
BRANCH  13  14
ATOM     14  C   UNL     1      35.409 -20.424 -21.041  0.00  0.00    +0.145 C 
ATOM     15  C   UNL     1      35.916 -21.361 -20.161  0.00  0.00    +0.037 C 
ATOM     16  C   UNL     1      34.052 -20.167 -21.128  0.00  0.00    +0.037 C 
ATOM     17  C   UNL     1      35.038 -22.067 -19.338  0.00  0.00    +0.003 C 
ATOM     18  C   UNL     1      33.174 -20.873 -20.305  0.00  0.00    +0.003 C 
ATOM     19  C   UNL     1      33.667 -21.823 -19.410  0.00  0.00    +0.000 C 
ENDBRANCH  13  14
ENDBRANCH   8  13
ENDBRANCH   2   7
BRANCH   3  20
ATOM     20  C   UNL     1      33.362 -11.315 -23.424  0.00  0.00    +0.052 C 
ATOM     21  C   UNL     1      32.341  -8.808 -22.750  0.00  0.00    +0.031 C 
ATOM     22  C   UNL     1      33.959 -10.160 -23.929  0.00  0.00    +0.015 C 
ATOM     23  C   UNL     1      32.255 -11.217 -22.583  0.00  0.00    +0.015 C 
ATOM     24  C   UNL     1      33.449  -8.906 -23.591  0.00  0.00    +0.004 C 
ATOM     25  C   UNL     1      31.744  -9.964 -22.245  0.00  0.00    +0.004 C 
BRANCH  21  28
ATOM     26  N   UNL     1      32.100  -6.906 -21.171  0.00  0.00    -0.343 N 
ATOM     27  N   UNL     1      31.027  -6.859 -23.246  0.00  0.00    -0.285 NA
ATOM     28  C   UNL     1      31.808  -7.501 -22.397  0.00  0.00    +0.117 C 
ATOM     29  H   UNL     1      31.729  -6.021 -20.954  0.00  0.00    +0.144 HD
ATOM     30  H   UNL     1      32.678  -7.371 -20.524  0.00  0.00    +0.144 HD
ATOM     31  H   UNL     1      30.664  -5.975 -23.011  0.00  0.00    +0.188 HD
ENDBRANCH  21  28
ENDBRANCH   3  20
TORSDOF 5
ENDMDL
MODEL 8
REMARK VINA RESULT:     -10.7      1.438      1.850
REMARK  Name = 444581
REMARK  5 active torsions:
REMARK  status: ('A' for Active; 'I' for Inactive)
REMARK    1  A    between atoms: N_2  and  C_7
REMARK    2  A    between atoms: N_3  and  C_20
REMARK    3  A    between atoms: C_8  and  O_13
REMARK    4  A    between atoms: O_13  and  C_14
REMARK    5  A    between atoms: C_21  and  C_28
REMARK                            x       y       z     vdW  Elec       q    Type
REMARK                         _______ _______ _______ _____ _____    ______ ____
ROOT
ATOM      1  O   UNL     1      36.883 -21.141 -17.430  0.00  0.00    -0.252 OA
ATOM      2  N   UNL     1      35.481 -21.886 -19.147  0.00  0.00    -0.268 N 
ATOM      3  N   UNL     1      35.632 -23.107 -17.191  0.00  0.00    -0.268 N 
ATOM      4  C   UNL     1      36.084 -21.955 -17.880  0.00  0.00    +0.308 C 
ATOM      5  H   UNL     1      34.858 -22.616 -19.368  0.00  0.00    +0.156 HD
ATOM      6  H   UNL     1      34.989 -23.671 -17.678  0.00  0.00    +0.156 HD
ENDROOT
BRANCH   2   7
ATOM      7  C   UNL     1      35.659 -20.898 -20.143  0.00  0.00    +0.052 C 
ATOM      8  C   UNL     1      36.008 -18.962 -22.093  0.00  0.00    +0.145 C 
ATOM      9  C   UNL     1      36.914 -20.342 -20.329  0.00  0.00    +0.018 C 
ATOM     10  C   UNL     1      34.576 -20.507 -20.912  0.00  0.00    +0.018 C 
ATOM     11  C   UNL     1      37.090 -19.367 -21.311  0.00  0.00    +0.039 C 
ATOM     12  C   UNL     1      34.751 -19.532 -21.894  0.00  0.00    +0.039 C 
BRANCH   8  13
ATOM     13  O   UNL     1      36.180 -18.012 -23.053  0.00  0.00    -0.453 OA
BRANCH  13  14
ATOM     14  C   UNL     1      35.571 -16.784 -22.859  0.00  0.00    +0.145 C 
ATOM     15  C   UNL     1      35.298 -16.363 -21.570  0.00  0.00    +0.037 C 
ATOM     16  C   UNL     1      35.251 -16.010 -23.960  0.00  0.00    +0.037 C 
ATOM     17  C   UNL     1      34.683 -15.126 -21.375  0.00  0.00    +0.003 C 
ATOM     18  C   UNL     1      34.636 -14.773 -23.764  0.00  0.00    +0.003 C 
ATOM     19  C   UNL     1      34.352 -14.331 -22.471  0.00  0.00    +0.000 C 
ENDBRANCH  13  14
ENDBRANCH   8  13
ENDBRANCH   2   7
BRANCH   3  20
ATOM     20  C   UNL     1      35.979 -23.550 -15.914  0.00  0.00    +0.052 C 
ATOM     21  C   UNL     1      36.674 -24.432 -13.361  0.00  0.00    +0.031 C 
ATOM     22  C   UNL     1      37.306 -23.859 -15.620  0.00  0.00    +0.015 C 
ATOM     23  C   UNL     1      34.998 -23.680 -14.931  0.00  0.00    +0.015 C 
ATOM     24  C   UNL     1      37.654 -24.301 -14.344  0.00  0.00    +0.004 C 
ATOM     25  C   UNL     1      35.345 -24.122 -13.654  0.00  0.00    +0.004 C 
BRANCH  21  28
ATOM     26  N   UNL     1      37.276 -23.992 -10.992  0.00  0.00    -0.343 N 
ATOM     27  N   UNL     1      37.144 -26.185 -11.786  0.00  0.00    -0.285 NA
ATOM     28  C   UNL     1      37.035 -24.892 -12.029  0.00  0.00    +0.117 C 
ATOM     29  H   UNL     1      37.518 -24.325 -10.099  0.00  0.00    +0.144 HD
ATOM     30  H   UNL     1      37.203 -23.024 -11.154  0.00  0.00    +0.144 HD
ATOM     31  H   UNL     1      37.388 -26.499 -10.886  0.00  0.00    +0.188 HD
ENDBRANCH  21  28
ENDBRANCH   3  20
TORSDOF 5
ENDMDL
MODEL 9
REMARK VINA RESULT:     -10.6      6.887     12.685
REMARK  Name = 444581
REMARK  5 active torsions:
REMARK  status: ('A' for Active; 'I' for Inactive)
REMARK    1  A    between atoms: N_2  and  C_7
REMARK    2  A    between atoms: N_3  and  C_20
REMARK    3  A    between atoms: C_8  and  O_13
REMARK    4  A    between atoms: O_13  and  C_14
REMARK    5  A    between atoms: C_21  and  C_28
REMARK                            x       y       z     vdW  Elec       q    Type
REMARK                         _______ _______ _______ _____ _____    ______ ____
ROOT
ATOM      1  O   UNL     1      33.427 -12.444 -22.674  0.00  0.00    -0.252 OA
ATOM      2  N   UNL     1      34.289 -13.025 -24.769  0.00  0.00    -0.268 N 
ATOM      3  N   UNL     1      33.753 -10.821 -24.330  0.00  0.00    -0.268 N 
ATOM      4  C   UNL     1      33.785 -12.135 -23.805  0.00  0.00    +0.308 C 
ATOM      5  H   UNL     1      34.536 -12.627 -25.634  0.00  0.00    +0.156 HD
ATOM      6  H   UNL     1      34.073 -10.722 -25.256  0.00  0.00    +0.156 HD
ENDROOT
BRANCH   2   7
ATOM      7  C   UNL     1      34.484 -14.420 -24.648  0.00  0.00    +0.052 C 
ATOM      8  C   UNL     1      34.866 -17.154 -24.412  0.00  0.00    +0.145 C 
ATOM      9  C   UNL     1      35.035 -14.930 -23.484  0.00  0.00    +0.018 C 
ATOM     10  C   UNL     1      34.119 -15.249 -25.695  0.00  0.00    +0.018 C 
ATOM     11  C   UNL     1      35.228 -16.306 -23.365  0.00  0.00    +0.039 C 
ATOM     12  C   UNL     1      34.311 -16.625 -25.577  0.00  0.00    +0.039 C 
BRANCH   8  13
ATOM     13  O   UNL     1      35.053 -18.497 -24.295  0.00  0.00    -0.453 OA
BRANCH  13  14
ATOM     14  C   UNL     1      35.564 -18.974 -23.100  0.00  0.00    +0.145 C 
ATOM     15  C   UNL     1      36.870 -18.675 -22.758  0.00  0.00    +0.037 C 
ATOM     16  C   UNL     1      34.754 -19.738 -22.279  0.00  0.00    +0.037 C 
ATOM     17  C   UNL     1      37.384 -19.156 -21.554  0.00  0.00    +0.003 C 
ATOM     18  C   UNL     1      35.268 -20.219 -21.075  0.00  0.00    +0.003 C 
ATOM     19  C   UNL     1      36.584 -19.928 -20.712  0.00  0.00    +0.000 C 
ENDBRANCH  13  14
ENDBRANCH   8  13
ENDBRANCH   2   7
BRANCH   3  20
ATOM     20  C   UNL     1      33.326  -9.646 -23.710  0.00  0.00    +0.052 C 
ATOM     21  C   UNL     1      32.472  -7.298 -22.469  0.00  0.00    +0.031 C 
ATOM     22  C   UNL     1      32.046  -9.572 -23.162  0.00  0.00    +0.015 C 
ATOM     23  C   UNL     1      34.180  -8.545 -23.638  0.00  0.00    +0.015 C 
ATOM     24  C   UNL     1      31.618  -8.398 -22.541  0.00  0.00    +0.004 C 
ATOM     25  C   UNL     1      33.753  -7.371 -23.017  0.00  0.00    +0.004 C 
BRANCH  21  28
ATOM     26  N   UNL     1      30.848  -5.439 -22.203  0.00  0.00    -0.343 N 
ATOM     27  N   UNL     1      32.752  -5.541 -20.853  0.00  0.00    -0.285 NA
ATOM     28  C   UNL     1      32.028  -6.073 -21.821  0.00  0.00    +0.117 C 
ATOM     29  H   UNL     1      30.565  -4.612 -21.751  0.00  0.00    +0.144 HD
ATOM     30  H   UNL     1      30.296  -5.819 -22.924  0.00  0.00    +0.144 HD
ATOM     31  H   UNL     1      32.454  -4.713 -20.413  0.00  0.00    +0.188 HD
ENDBRANCH  21  28
ENDBRANCH   3  20
TORSDOF 5
ENDMDL
