MODEL 1
REMARK VINA RESULT:     -12.3      0.000      0.000
REMARK  Name = 24779676
REMARK  4 active torsions:
REMARK  status: ('A' for Active; 'I' for Inactive)
REMARK    1  A    between atoms: N_2  and  C_22
REMARK    2  A    between atoms: N_3  and  C_14
REMARK    3  A    between atoms: C_10  and  C_21
REMARK    4  A    between atoms: C_22  and  C_24
REMARK                            x       y       z     vdW  Elec       q    Type
REMARK                         _______ _______ _______ _____ _____    ______ ____
ROOT
ATOM      1  N   UNL     1      32.966 -24.051 -14.511  0.00  0.00    -0.123 N 
ATOM      2  N   UNL     1      34.416 -22.945 -18.075  0.00  0.00    -0.254 N 
ATOM      3  N   UNL     1      35.056 -24.900 -13.815  0.00  0.00    -0.274 N 
ATOM      4  N   UNL     1      34.742 -23.922 -15.950  0.00  0.00    -0.295 NA
ATOM      5  N   UNL     1      32.612 -23.074 -16.621  0.00  0.00    -0.314 NA
ATOM      6  N   UNL     1      32.374 -24.379 -13.350  0.00  0.00    -0.170 NA
ATOM      7  C   UNL     1      34.303 -24.293 -14.783  0.00  0.00    +0.279 C 
ATOM      8  C   UNL     1      32.136 -23.452 -15.415  0.00  0.00    +0.219 C 
ATOM      9  C   UNL     1      33.882 -23.312 -16.862  0.00  0.00    +0.203 C 
ATOM     10  C   UNL     1      30.908 -23.385 -14.796  0.00  0.00    +0.203 C 
ATOM     11  C   UNL     1      31.114 -23.969 -13.530  0.00  0.00    +0.116 C 
ATOM     12  H   UNL     1      35.368 -23.125 -18.252  0.00  0.00    +0.161 HD
ATOM     13  H   UNL     1      34.594 -25.128 -12.976  0.00  0.00    +0.156 HD
ENDROOT
BRANCH   3  14
ATOM     14  C   UNL     1      36.410 -25.233 -13.890  0.00  0.00    +0.051 C 
ATOM     15  C   UNL     1      36.850 -26.158 -14.837  0.00  0.00    +0.015 C 
ATOM     16  C   UNL     1      37.323 -24.640 -13.018  0.00  0.00    +0.015 C 
ATOM     17  C   UNL     1      38.203 -26.489 -14.912  0.00  0.00    +0.001 C 
ATOM     18  C   UNL     1      38.676 -24.970 -13.093  0.00  0.00    +0.001 C 
ATOM     19  C   UNL     1      39.116 -25.895 -14.040  0.00  0.00    +0.000 C 
ENDBRANCH   3  14
BRANCH  10  21
ATOM     20  N   UNL     1      28.736 -22.396 -15.779  0.00  0.00    -0.195 NA
ATOM     21  C   UNL     1      29.713 -22.841 -15.337  0.00  0.00    +0.087 C 
ENDBRANCH  10  21
BRANCH   2  22
ATOM     22  C   UNL     1      33.633 -22.312 -19.089  0.00  0.00    +0.125 C 
BRANCH  22  24
ATOM     23 CL   UNL     1      37.033 -18.564 -22.340  0.00  0.00    -0.082 Cl
ATOM     24  C   UNL     1      34.483 -21.375 -19.902  0.00  0.00    -0.002 C 
ATOM     25  C   UNL     1      33.883 -20.468 -20.776  0.00  0.00    -0.002 C 
ATOM     26  C   UNL     1      35.873 -21.412 -19.782  0.00  0.00    -0.002 C 
ATOM     27  C   UNL     1      34.672 -19.599 -21.529  0.00  0.00    +0.011 C 
ATOM     28  C   UNL     1      36.661 -20.543 -20.536  0.00  0.00    +0.011 C 
ATOM     29  C   UNL     1      36.060 -19.637 -21.409  0.00  0.00    +0.058 C 
ENDBRANCH  22  24
ENDBRANCH   2  22
TORSDOF 4
ENDMDL
MODEL 2
REMARK VINA RESULT:     -11.3      1.472      5.403
REMARK  Name = 24779676
REMARK  4 active torsions:
REMARK  status: ('A' for Active; 'I' for Inactive)
REMARK    1  A    between atoms: N_2  and  C_22
REMARK    2  A    between atoms: N_3  and  C_14
REMARK    3  A    between atoms: C_10  and  C_21
REMARK    4  A    between atoms: C_22  and  C_24
REMARK                            x       y       z     vdW  Elec       q    Type
REMARK                         _______ _______ _______ _____ _____    ______ ____
ROOT
ATOM      1  N   UNL     1      34.014 -24.012 -14.590  0.00  0.00    -0.123 N 
ATOM      2  N   UNL     1      34.557 -22.543 -18.274  0.00  0.00    -0.254 N 
ATOM      3  N   UNL     1      31.664 -23.969 -14.814  0.00  0.00    -0.274 N 
ATOM      4  N   UNL     1      33.108 -23.253 -16.550  0.00  0.00    -0.295 NA
ATOM      5  N   UNL     1      35.482 -23.309 -16.288  0.00  0.00    -0.314 NA
ATOM      6  N   UNL     1      33.951 -24.508 -13.342  0.00  0.00    -0.170 NA
ATOM      7  C   UNL     1      32.896 -23.730 -15.358  0.00  0.00    +0.279 C 
ATOM      8  C   UNL     1      35.284 -23.805 -15.047  0.00  0.00    +0.219 C 
ATOM      9  C   UNL     1      34.410 -23.047 -17.003  0.00  0.00    +0.203 C 
ATOM     10  C   UNL     1      36.112 -24.194 -14.019  0.00  0.00    +0.203 C 
ATOM     11  C   UNL     1      35.237 -24.617 -12.998  0.00  0.00    +0.116 C 
ATOM     12  H   UNL     1      33.752 -22.348 -18.806  0.00  0.00    +0.161 HD
ATOM     13  H   UNL     1      31.650 -24.333 -13.898  0.00  0.00    +0.156 HD
ENDROOT
BRANCH   3  14
ATOM     14  C   UNL     1      30.423 -23.753 -15.416  0.00  0.00    +0.051 C 
ATOM     15  C   UNL     1      29.842 -24.754 -16.195  0.00  0.00    +0.015 C 
ATOM     16  C   UNL     1      29.766 -22.535 -15.240  0.00  0.00    +0.015 C 
ATOM     17  C   UNL     1      28.602 -24.537 -16.796  0.00  0.00    +0.001 C 
ATOM     18  C   UNL     1      28.525 -22.319 -15.841  0.00  0.00    +0.001 C 
ATOM     19  C   UNL     1      27.944 -23.320 -16.619  0.00  0.00    +0.000 C 
ENDBRANCH   3  14
BRANCH  10  21
ATOM     20  N   UNL     1      38.693 -24.144 -14.010  0.00  0.00    -0.195 NA
ATOM     21  C   UNL     1      37.532 -24.167 -14.014  0.00  0.00    +0.087 C 
ENDBRANCH  10  21
BRANCH   2  22
ATOM     22  C   UNL     1      35.842 -22.291 -18.847  0.00  0.00    +0.125 C 
BRANCH  22  24
ATOM     23 CL   UNL     1      35.496 -17.908 -22.951  0.00  0.00    -0.082 Cl
ATOM     24  C   UNL     1      35.755 -21.196 -19.873  0.00  0.00    -0.002 C 
ATOM     25  C   UNL     1      34.526 -20.876 -20.451  0.00  0.00    -0.002 C 
ATOM     26  C   UNL     1      36.904 -20.498 -20.247  0.00  0.00    -0.002 C 
ATOM     27  C   UNL     1      34.447 -19.859 -21.403  0.00  0.00    +0.011 C 
ATOM     28  C   UNL     1      36.824 -19.482 -21.199  0.00  0.00    +0.011 C 
ATOM     29  C   UNL     1      35.595 -19.162 -21.776  0.00  0.00    +0.058 C 
ENDBRANCH  22  24
ENDBRANCH   2  22
TORSDOF 4
ENDMDL
MODEL 3
REMARK VINA RESULT:     -11.3      1.471      5.532
REMARK  Name = 24779676
REMARK  4 active torsions:
REMARK  status: ('A' for Active; 'I' for Inactive)
REMARK    1  A    between atoms: N_2  and  C_22
REMARK    2  A    between atoms: N_3  and  C_14
REMARK    3  A    between atoms: C_10  and  C_21
REMARK    4  A    between atoms: C_22  and  C_24
REMARK                            x       y       z     vdW  Elec       q    Type
REMARK                         _______ _______ _______ _____ _____    ______ ____
ROOT
ATOM      1  N   UNL     1      34.009 -24.014 -14.572  0.00  0.00    -0.123 N 
ATOM      2  N   UNL     1      34.554 -22.544 -18.255  0.00  0.00    -0.254 N 
ATOM      3  N   UNL     1      31.659 -23.976 -14.798  0.00  0.00    -0.274 N 
ATOM      4  N   UNL     1      33.104 -23.257 -16.533  0.00  0.00    -0.295 NA
ATOM      5  N   UNL     1      35.478 -23.309 -16.268  0.00  0.00    -0.314 NA
ATOM      6  N   UNL     1      33.944 -24.511 -13.323  0.00  0.00    -0.170 NA
ATOM      7  C   UNL     1      32.891 -23.735 -15.341  0.00  0.00    +0.279 C 
ATOM      8  C   UNL     1      35.279 -23.805 -15.027  0.00  0.00    +0.219 C 
ATOM      9  C   UNL     1      34.406 -23.049 -16.984  0.00  0.00    +0.203 C 
ATOM     10  C   UNL     1      36.106 -24.193 -13.998  0.00  0.00    +0.203 C 
ATOM     11  C   UNL     1      35.231 -24.618 -12.977  0.00  0.00    +0.116 C 
ATOM     12  H   UNL     1      33.749 -22.351 -18.788  0.00  0.00    +0.161 HD
ATOM     13  H   UNL     1      31.644 -24.340 -13.883  0.00  0.00    +0.156 HD
ENDROOT
BRANCH   3  14
ATOM     14  C   UNL     1      30.419 -23.762 -15.403  0.00  0.00    +0.051 C 
ATOM     15  C   UNL     1      29.756 -22.548 -15.224  0.00  0.00    +0.015 C 
ATOM     16  C   UNL     1      29.842 -24.764 -16.184  0.00  0.00    +0.015 C 
ATOM     17  C   UNL     1      28.517 -22.335 -15.829  0.00  0.00    +0.001 C 
ATOM     18  C   UNL     1      28.603 -24.550 -16.789  0.00  0.00    +0.001 C 
ATOM     19  C   UNL     1      27.941 -23.335 -16.611  0.00  0.00    +0.000 C 
ENDBRANCH   3  14
BRANCH  10  21
ATOM     20  N   UNL     1      38.687 -24.138 -13.985  0.00  0.00    -0.195 NA
ATOM     21  C   UNL     1      37.526 -24.163 -13.991  0.00  0.00    +0.087 C 
ENDBRANCH  10  21
BRANCH   2  22
ATOM     22  C   UNL     1      35.839 -22.290 -18.825  0.00  0.00    +0.125 C 
BRANCH  22  24
ATOM     23 CL   UNL     1      35.480 -17.945 -22.969  0.00  0.00    -0.082 Cl
ATOM     24  C   UNL     1      35.750 -21.203 -19.860  0.00  0.00    -0.002 C 
ATOM     25  C   UNL     1      36.894 -20.499 -20.235  0.00  0.00    -0.002 C 
ATOM     26  C   UNL     1      34.521 -20.900 -20.449  0.00  0.00    -0.002 C 
ATOM     27  C   UNL     1      36.810 -19.492 -21.196  0.00  0.00    +0.011 C 
ATOM     28  C   UNL     1      34.438 -19.893 -21.410  0.00  0.00    +0.011 C 
ATOM     29  C   UNL     1      35.583 -19.189 -21.783  0.00  0.00    +0.058 C 
ENDBRANCH  22  24
ENDBRANCH   2  22
TORSDOF 4
ENDMDL
MODEL 4
REMARK VINA RESULT:     -10.3      2.690      6.844
REMARK  Name = 24779676
REMARK  4 active torsions:
REMARK  status: ('A' for Active; 'I' for Inactive)
REMARK    1  A    between atoms: N_2  and  C_22
REMARK    2  A    between atoms: N_3  and  C_14
REMARK    3  A    between atoms: C_10  and  C_21
REMARK    4  A    between atoms: C_22  and  C_24
REMARK                            x       y       z     vdW  Elec       q    Type
REMARK                         _______ _______ _______ _____ _____    ______ ____
ROOT
ATOM      1  N   UNL     1      32.120 -23.115 -16.790  0.00  0.00    -0.123 N 
ATOM      2  N   UNL     1      35.823 -23.118 -15.270  0.00  0.00    -0.254 N 
ATOM      3  N   UNL     1      32.834 -22.071 -18.784  0.00  0.00    -0.274 N 
ATOM      4  N   UNL     1      34.336 -22.593 -17.027  0.00  0.00    -0.295 NA
ATOM      5  N   UNL     1      33.577 -23.648 -15.022  0.00  0.00    -0.314 NA
ATOM      6  N   UNL     1      30.840 -23.167 -17.199  0.00  0.00    -0.170 NA
ATOM      7  C   UNL     1      33.145 -22.577 -17.551  0.00  0.00    +0.279 C 
ATOM      8  C   UNL     1      32.333 -23.641 -15.548  0.00  0.00    +0.219 C 
ATOM      9  C   UNL     1      34.538 -23.133 -15.758  0.00  0.00    +0.203 C 
ATOM     10  C   UNL     1      31.098 -24.068 -15.114  0.00  0.00    +0.203 C 
ATOM     11  C   UNL     1      30.220 -23.751 -16.170  0.00  0.00    +0.116 C 
ATOM     12  H   UNL     1      36.540 -22.732 -15.823  0.00  0.00    +0.161 HD
ATOM     13  H   UNL     1      31.889 -22.124 -19.056  0.00  0.00    +0.156 HD
ENDROOT
BRANCH   3  14
ATOM     14  C   UNL     1      33.713 -21.488 -19.698  0.00  0.00    +0.051 C 
ATOM     15  C   UNL     1      33.240 -20.561 -20.627  0.00  0.00    +0.015 C 
ATOM     16  C   UNL     1      35.065 -21.832 -19.682  0.00  0.00    +0.015 C 
ATOM     17  C   UNL     1      34.119 -19.978 -21.540  0.00  0.00    +0.001 C 
ATOM     18  C   UNL     1      35.944 -21.248 -20.595  0.00  0.00    +0.001 C 
ATOM     19  C   UNL     1      35.471 -20.322 -21.524  0.00  0.00    +0.000 C 
ENDBRANCH   3  14
BRANCH  10  21
ATOM     20  N   UNL     1      30.560 -25.196 -12.855  0.00  0.00    -0.195 NA
ATOM     21  C   UNL     1      30.802 -24.689 -13.871  0.00  0.00    +0.087 C 
ENDBRANCH  10  21
BRANCH   2  22
ATOM     22  C   UNL     1      36.152 -23.644 -13.983  0.00  0.00    +0.125 C 
BRANCH  22  24
ATOM     23 CL   UNL     1      41.306 -26.735 -14.227  0.00  0.00    -0.082 Cl
ATOM     24  C   UNL     1      37.441 -24.416 -14.043  0.00  0.00    -0.002 C 
ATOM     25  C   UNL     1      37.832 -25.208 -12.963  0.00  0.00    -0.002 C 
ATOM     26  C   UNL     1      38.246 -24.342 -15.181  0.00  0.00    -0.002 C 
ATOM     27  C   UNL     1      39.027 -25.925 -13.020  0.00  0.00    +0.011 C 
ATOM     28  C   UNL     1      39.441 -25.059 -15.237  0.00  0.00    +0.011 C 
ATOM     29  C   UNL     1      39.831 -25.850 -14.157  0.00  0.00    +0.058 C 
ENDBRANCH  22  24
ENDBRANCH   2  22
TORSDOF 4
ENDMDL
MODEL 5
REMARK VINA RESULT:     -10.2      1.645      5.885
REMARK  Name = 24779676
REMARK  4 active torsions:
REMARK  status: ('A' for Active; 'I' for Inactive)
REMARK    1  A    between atoms: N_2  and  C_22
REMARK    2  A    between atoms: N_3  and  C_14
REMARK    3  A    between atoms: C_10  and  C_21
REMARK    4  A    between atoms: C_22  and  C_24
REMARK                            x       y       z     vdW  Elec       q    Type
REMARK                         _______ _______ _______ _____ _____    ______ ____
ROOT
ATOM      1  N   UNL     1      32.244 -23.817 -14.952  0.00  0.00    -0.123 N 
ATOM      2  N   UNL     1      33.151 -22.751 -18.702  0.00  0.00    -0.254 N 
ATOM      3  N   UNL     1      29.951 -23.354 -15.271  0.00  0.00    -0.274 N 
ATOM      4  N   UNL     1      31.549 -23.049 -16.993  0.00  0.00    -0.295 NA
ATOM      5  N   UNL     1      33.862 -23.528 -16.635  0.00  0.00    -0.314 NA
ATOM      6  N   UNL     1      32.056 -24.200 -13.677  0.00  0.00    -0.170 NA
ATOM      7  C   UNL     1      31.220 -23.390 -15.781  0.00  0.00    +0.279 C 
ATOM      8  C   UNL     1      33.542 -23.885 -15.371  0.00  0.00    +0.219 C 
ATOM      9  C   UNL     1      32.878 -23.124 -17.407  0.00  0.00    +0.203 C 
ATOM     10  C   UNL     1      34.254 -24.345 -14.288  0.00  0.00    +0.203 C 
ATOM     11  C   UNL     1      33.289 -24.521 -13.275  0.00  0.00    +0.116 C 
ATOM     12  H   UNL     1      32.412 -22.449 -19.278  0.00  0.00    +0.161 HD
ATOM     13  H   UNL     1      29.845 -23.640 -14.334  0.00  0.00    +0.156 HD
ENDROOT
BRANCH   3  14
ATOM     14  C   UNL     1      28.790 -22.955 -15.935  0.00  0.00    +0.051 C 
ATOM     15  C   UNL     1      28.692 -23.103 -17.319  0.00  0.00    +0.015 C 
ATOM     16  C   UNL     1      27.728 -22.408 -15.215  0.00  0.00    +0.015 C 
ATOM     17  C   UNL     1      27.531 -22.704 -17.982  0.00  0.00    +0.001 C 
ATOM     18  C   UNL     1      26.567 -22.011 -15.878  0.00  0.00    +0.001 C 
ATOM     19  C   UNL     1      26.469 -22.158 -17.261  0.00  0.00    +0.000 C 
ENDBRANCH   3  14
BRANCH  10  21
ATOM     20  N   UNL     1      36.797 -24.776 -14.180  0.00  0.00    -0.195 NA
ATOM     21  C   UNL     1      35.654 -24.583 -14.228  0.00  0.00    +0.087 C 
ENDBRANCH  10  21
BRANCH   2  22
ATOM     22  C   UNL     1      34.475 -22.785 -19.239  0.00  0.00    +0.125 C 
BRANCH  22  24
ATOM     23 CL   UNL     1      35.594 -17.798 -22.409  0.00  0.00    -0.082 Cl
ATOM     24  C   UNL     1      34.754 -21.539 -20.032  0.00  0.00    -0.002 C 
ATOM     25  C   UNL     1      33.699 -20.802 -20.571  0.00  0.00    -0.002 C 
ATOM     26  C   UNL     1      36.070 -21.117 -20.228  0.00  0.00    -0.002 C 
ATOM     27  C   UNL     1      33.959 -19.646 -21.306  0.00  0.00    +0.011 C 
ATOM     28  C   UNL     1      36.329 -19.961 -20.963  0.00  0.00    +0.011 C 
ATOM     29  C   UNL     1      35.274 -19.225 -21.502  0.00  0.00    +0.058 C 
ENDBRANCH  22  24
ENDBRANCH   2  22
TORSDOF 4
ENDMDL
MODEL 6
REMARK VINA RESULT:      -9.8      3.049      7.477
REMARK  Name = 24779676
REMARK  4 active torsions:
REMARK  status: ('A' for Active; 'I' for Inactive)
REMARK    1  A    between atoms: N_2  and  C_22
REMARK    2  A    between atoms: N_3  and  C_14
REMARK    3  A    between atoms: C_10  and  C_21
REMARK    4  A    between atoms: C_22  and  C_24
REMARK                            x       y       z     vdW  Elec       q    Type
REMARK                         _______ _______ _______ _____ _____    ______ ____
ROOT
ATOM      1  N   UNL     1      36.588 -22.832 -16.840  0.00  0.00    -0.123 N 
ATOM      2  N   UNL     1      32.628 -23.340 -17.125  0.00  0.00    -0.254 N 
ATOM      3  N   UNL     1      36.654 -21.489 -18.781  0.00  0.00    -0.274 N 
ATOM      4  N   UNL     1      34.634 -22.414 -17.957  0.00  0.00    -0.295 NA
ATOM      5  N   UNL     1      34.606 -23.770 -15.990  0.00  0.00    -0.314 NA
ATOM      6  N   UNL     1      37.915 -22.729 -16.646  0.00  0.00    -0.170 NA
ATOM      7  C   UNL     1      35.921 -22.227 -17.893  0.00  0.00    +0.279 C 
ATOM      8  C   UNL     1      35.942 -23.590 -15.906  0.00  0.00    +0.219 C 
ATOM      9  C   UNL     1      33.988 -23.189 -16.995  0.00  0.00    +0.203 C 
ATOM     10  C   UNL     1      36.921 -24.014 -15.037  0.00  0.00    +0.203 C 
ATOM     11  C   UNL     1      38.113 -23.455 -15.541  0.00  0.00    +0.116 C 
ATOM     12  H   UNL     1      32.169 -22.904 -17.879  0.00  0.00    +0.161 HD
ATOM     13  H   UNL     1      37.623 -21.432 -18.612  0.00  0.00    +0.156 HD
ENDROOT
BRANCH   3  14
ATOM     14  C   UNL     1      36.177 -20.807 -19.902  0.00  0.00    +0.051 C 
ATOM     15  C   UNL     1      34.854 -20.975 -20.309  0.00  0.00    +0.015 C 
ATOM     16  C   UNL     1      37.024 -19.958 -20.614  0.00  0.00    +0.015 C 
ATOM     17  C   UNL     1      34.377 -20.293 -21.429  0.00  0.00    +0.001 C 
ATOM     18  C   UNL     1      36.547 -19.275 -21.733  0.00  0.00    +0.001 C 
ATOM     19  C   UNL     1      35.224 -19.443 -22.141  0.00  0.00    +0.000 C 
ENDBRANCH   3  14
BRANCH  10  21
ATOM     20  N   UNL     1      36.598 -25.504 -12.954  0.00  0.00    -0.195 NA
ATOM     21  C   UNL     1      36.743 -24.834 -13.890  0.00  0.00    +0.087 C 
ENDBRANCH  10  21
BRANCH   2  22
ATOM     22  C   UNL     1      31.858 -24.111 -16.201  0.00  0.00    +0.125 C 
BRANCH  22  24
ATOM     23 CL   UNL     1      26.193 -22.101 -15.991  0.00  0.00    -0.082 Cl
ATOM     24  C   UNL     1      30.442 -23.609 -16.148  0.00  0.00    -0.002 C 
ATOM     25  C   UNL     1      30.043 -22.752 -15.122  0.00  0.00    -0.002 C 
ATOM     26  C   UNL     1      29.526 -24.000 -17.126  0.00  0.00    -0.002 C 
ATOM     27  C   UNL     1      28.729 -22.286 -15.074  0.00  0.00    +0.011 C 
ATOM     28  C   UNL     1      28.213 -23.534 -17.077  0.00  0.00    +0.011 C 
ATOM     29  C   UNL     1      27.815 -22.677 -16.051  0.00  0.00    +0.058 C 
ENDBRANCH  22  24
ENDBRANCH   2  22
TORSDOF 4
ENDMDL
MODEL 7
REMARK VINA RESULT:      -9.5      3.019      7.289
REMARK  Name = 24779676
REMARK  4 active torsions:
REMARK  status: ('A' for Active; 'I' for Inactive)
REMARK    1  A    between atoms: N_2  and  C_22
REMARK    2  A    between atoms: N_3  and  C_14
REMARK    3  A    between atoms: C_10  and  C_21
REMARK    4  A    between atoms: C_22  and  C_24
REMARK                            x       y       z     vdW  Elec       q    Type
REMARK                         _______ _______ _______ _____ _____    ______ ____
ROOT
ATOM      1  N   UNL     1      36.799 -23.215 -16.107  0.00  0.00    -0.123 N 
ATOM      2  N   UNL     1      32.840 -23.578 -16.574  0.00  0.00    -0.254 N 
ATOM      3  N   UNL     1      37.006 -21.893 -18.052  0.00  0.00    -0.274 N 
ATOM      4  N   UNL     1      34.917 -22.734 -17.317  0.00  0.00    -0.295 NA
ATOM      5  N   UNL     1      34.745 -24.070 -15.344  0.00  0.00    -0.314 NA
ATOM      6  N   UNL     1      38.118 -23.159 -15.851  0.00  0.00    -0.170 NA
ATOM      7  C   UNL     1      36.205 -22.595 -17.194  0.00  0.00    +0.279 C 
ATOM      8  C   UNL     1      36.082 -23.939 -15.198  0.00  0.00    +0.219 C 
ATOM      9  C   UNL     1      34.198 -23.477 -16.381  0.00  0.00    +0.203 C 
ATOM     10  C   UNL     1      37.003 -24.392 -14.281  0.00  0.00    +0.203 C 
ATOM     11  C   UNL     1      38.237 -23.881 -14.733  0.00  0.00    +0.116 C 
ATOM     12  H   UNL     1      32.434 -23.132 -17.352  0.00  0.00    +0.161 HD
ATOM     13  H   UNL     1      37.967 -21.870 -17.838  0.00  0.00    +0.156 HD
ENDROOT
BRANCH   3  14
ATOM     14  C   UNL     1      36.607 -21.204 -19.199  0.00  0.00    +0.051 C 
ATOM     15  C   UNL     1      37.421 -20.203 -19.730  0.00  0.00    +0.015 C 
ATOM     16  C   UNL     1      35.394 -21.516 -19.813  0.00  0.00    +0.015 C 
ATOM     17  C   UNL     1      37.022 -19.515 -20.876  0.00  0.00    +0.001 C 
ATOM     18  C   UNL     1      34.996 -20.829 -20.960  0.00  0.00    +0.001 C 
ATOM     19  C   UNL     1      35.810 -19.828 -21.491  0.00  0.00    +0.000 C 
ENDBRANCH   3  14
BRANCH  10  21
ATOM     20  N   UNL     1      36.528 -25.850 -12.205  0.00  0.00    -0.195 NA
ATOM     21  C   UNL     1      36.741 -25.194 -13.138  0.00  0.00    +0.087 C 
ENDBRANCH  10  21
BRANCH   2  22
ATOM     22  C   UNL     1      32.000 -24.312 -15.681  0.00  0.00    +0.125 C 
BRANCH  22  24
ATOM     23 CL   UNL     1      26.348 -22.274 -15.960  0.00  0.00    -0.082 Cl
ATOM     24  C   UNL     1      30.587 -23.803 -15.750  0.00  0.00    -0.002 C 
ATOM     25  C   UNL     1      30.222 -22.657 -15.042  0.00  0.00    -0.002 C 
ATOM     26  C   UNL     1      29.640 -24.475 -16.524  0.00  0.00    -0.002 C 
ATOM     27  C   UNL     1      28.911 -22.185 -15.107  0.00  0.00    +0.011 C 
ATOM     28  C   UNL     1      28.329 -24.002 -16.588  0.00  0.00    +0.011 C 
ATOM     29  C   UNL     1      27.965 -22.857 -15.880  0.00  0.00    +0.058 C 
ENDBRANCH  22  24
ENDBRANCH   2  22
TORSDOF 4
ENDMDL
