MODEL 1
REMARK VINA RESULT:     -11.3      0.000      0.000
REMARK  Name = 11992146
REMARK  2 active torsions:
REMARK  status: ('A' for Active; 'I' for Inactive)
REMARK    1  A    between atoms: C_2  and  C_14
REMARK    2  A    between atoms: C_5  and  C_20
REMARK                            x       y       z     vdW  Elec       q    Type
REMARK                         _______ _______ _______ _____ _____    ______ ____
ROOT
ATOM      1  N   UNL     1      32.523 -22.557 -18.318  0.00  0.00    -0.244 NA
ATOM      2  C   UNL     1      34.285 -23.491 -16.361  0.00  0.00    +0.016 C 
ATOM      3  C   UNL     1      34.765 -22.745 -17.432  0.00  0.00    +0.020 C 
ATOM      4  C   UNL     1      32.927 -23.770 -16.267  0.00  0.00    +0.022 C 
ATOM      5  C   UNL     1      33.850 -22.306 -18.376  0.00  0.00    +0.084 C 
ATOM      6  C   UNL     1      32.095 -23.285 -17.263  0.00  0.00    +0.099 C 
ENDROOT
BRANCH   2  14
ATOM      7  O   UNL     1      37.594 -27.282 -13.883  0.00  0.00    -0.270 OA
ATOM      8  N   UNL     1      35.531 -23.217 -14.255  0.00  0.00    -0.316 N 
ATOM      9  N   UNL     1      38.214 -25.658 -12.361  0.00  0.00    -0.300 N 
ATOM     10  C   UNL     1      36.397 -23.928 -13.475  0.00  0.00    +0.031 C 
ATOM     11  C   UNL     1      36.980 -23.485 -12.187  0.00  0.00    +0.063 C 
ATOM     12  C   UNL     1      36.628 -25.150 -14.073  0.00  0.00    +0.064 C 
ATOM     13  C   UNL     1      38.298 -24.242 -11.984  0.00  0.00    +0.096 C 
ATOM     14  C   UNL     1      35.194 -23.974 -15.350  0.00  0.00    +0.048 C 
ATOM     15  C   UNL     1      35.857 -25.182 -15.260  0.00  0.00    +0.020 C 
ATOM     16  C   UNL     1      37.506 -26.131 -13.465  0.00  0.00    +0.247 C 
ATOM     17  H   UNL     1      35.201 -22.309 -14.062  0.00  0.00    +0.152 HD
ATOM     18  H   UNL     1      38.687 -26.315 -11.799  0.00  0.00    +0.150 HD
ENDBRANCH   2  14
BRANCH   5  20
ATOM     19  F   UNL     1      36.551 -22.094 -19.124  0.00  0.00    -0.204 F 
ATOM     20  C   UNL     1      34.274 -21.526 -19.515  0.00  0.00    +0.045 C 
ATOM     21  C   UNL     1      35.627 -21.447 -19.850  0.00  0.00    +0.142 C 
ATOM     22  C   UNL     1      33.328 -20.847 -20.284  0.00  0.00    +0.004 C 
ATOM     23  C   UNL     1      36.032 -20.690 -20.950  0.00  0.00    +0.030 C 
ATOM     24  C   UNL     1      33.732 -20.090 -21.383  0.00  0.00    +0.000 C 
ATOM     25  C   UNL     1      35.085 -20.011 -21.716  0.00  0.00    +0.002 C 
ENDBRANCH   5  20
TORSDOF 2
ENDMDL
MODEL 2
REMARK VINA RESULT:     -11.2      1.110      1.338
REMARK  Name = 11992146
REMARK  2 active torsions:
REMARK  status: ('A' for Active; 'I' for Inactive)
REMARK    1  A    between atoms: C_2  and  C_14
REMARK    2  A    between atoms: C_5  and  C_20
REMARK                            x       y       z     vdW  Elec       q    Type
REMARK                         _______ _______ _______ _____ _____    ______ ____
ROOT
ATOM      1  N   UNL     1      32.639 -22.587 -18.283  0.00  0.00    -0.244 NA
ATOM      2  C   UNL     1      34.496 -23.591 -16.452  0.00  0.00    +0.016 C 
ATOM      3  C   UNL     1      34.923 -22.811 -17.521  0.00  0.00    +0.020 C 
ATOM      4  C   UNL     1      33.144 -23.869 -16.296  0.00  0.00    +0.022 C 
ATOM      5  C   UNL     1      33.963 -22.338 -18.401  0.00  0.00    +0.084 C 
ATOM      6  C   UNL     1      32.263 -23.348 -17.232  0.00  0.00    +0.099 C 
ENDROOT
BRANCH   2  14
ATOM      7  O   UNL     1      36.173 -25.613 -11.496  0.00  0.00    -0.270 OA
ATOM      8  N   UNL     1      36.793 -24.194 -15.800  0.00  0.00    -0.316 N 
ATOM      9  N   UNL     1      38.273 -25.935 -12.405  0.00  0.00    -0.300 N 
ATOM     10  C   UNL     1      37.450 -24.715 -14.723  0.00  0.00    +0.031 C 
ATOM     11  C   UNL     1      38.910 -24.944 -14.616  0.00  0.00    +0.063 C 
ATOM     12  C   UNL     1      36.531 -24.978 -13.729  0.00  0.00    +0.064 C 
ATOM     13  C   UNL     1      39.136 -26.057 -13.586  0.00  0.00    +0.096 C 
ATOM     14  C   UNL     1      35.454 -24.110 -15.506  0.00  0.00    +0.048 C 
ATOM     15  C   UNL     1      35.263 -24.585 -14.223  0.00  0.00    +0.020 C 
ATOM     16  C   UNL     1      36.939 -25.531 -12.452  0.00  0.00    +0.247 C 
ATOM     17  H   UNL     1      37.211 -23.922 -16.649  0.00  0.00    +0.152 HD
ATOM     18  H   UNL     1      38.660 -26.151 -11.526  0.00  0.00    +0.150 HD
ENDBRANCH   2  14
BRANCH   5  20
ATOM     19  F   UNL     1      36.637 -21.991 -19.191  0.00  0.00    -0.204 F 
ATOM     20  C   UNL     1      34.331 -21.522 -19.534  0.00  0.00    +0.045 C 
ATOM     21  C   UNL     1      35.673 -21.376 -19.890  0.00  0.00    +0.142 C 
ATOM     22  C   UNL     1      33.341 -20.874 -20.276  0.00  0.00    +0.004 C 
ATOM     23  C   UNL     1      36.023 -20.583 -20.985  0.00  0.00    +0.030 C 
ATOM     24  C   UNL     1      33.691 -20.082 -21.369  0.00  0.00    +0.000 C 
ATOM     25  C   UNL     1      35.032 -19.936 -21.723  0.00  0.00    +0.002 C 
ENDBRANCH   5  20
TORSDOF 2
ENDMDL
MODEL 3
REMARK VINA RESULT:     -11.0     11.093     14.547
REMARK  Name = 11992146
REMARK  2 active torsions:
REMARK  status: ('A' for Active; 'I' for Inactive)
REMARK    1  A    between atoms: C_2  and  C_14
REMARK    2  A    between atoms: C_5  and  C_20
REMARK                            x       y       z     vdW  Elec       q    Type
REMARK                         _______ _______ _______ _____ _____    ______ ____
ROOT
ATOM      1  N   UNL     1      31.961  -9.330 -21.780  0.00  0.00    -0.244 NA
ATOM      2  C   UNL     1      32.918 -11.728 -22.846  0.00  0.00    +0.016 C 
ATOM      3  C   UNL     1      33.211 -10.522 -23.472  0.00  0.00    +0.020 C 
ATOM      4  C   UNL     1      32.148 -11.738 -21.690  0.00  0.00    +0.022 C 
ATOM      5  C   UNL     1      32.713  -9.360 -22.903  0.00  0.00    +0.084 C 
ATOM      6  C   UNL     1      31.697 -10.522 -21.201  0.00  0.00    +0.099 C 
ENDROOT
BRANCH   2  14
ATOM      7  O   UNL     1      33.677 -15.570 -26.861  0.00  0.00    -0.270 OA
ATOM      8  N   UNL     1      34.068 -13.894 -22.624  0.00  0.00    -0.316 N 
ATOM      9  N   UNL     1      35.019 -16.750 -25.396  0.00  0.00    -0.300 N 
ATOM     10  C   UNL     1      34.411 -14.959 -23.407  0.00  0.00    +0.031 C 
ATOM     11  C   UNL     1      35.108 -16.186 -22.957  0.00  0.00    +0.063 C 
ATOM     12  C   UNL     1      33.981 -14.717 -24.695  0.00  0.00    +0.064 C 
ATOM     13  C   UNL     1      35.825 -16.790 -24.170  0.00  0.00    +0.096 C 
ATOM     14  C   UNL     1      33.412 -12.968 -23.396  0.00  0.00    +0.048 C 
ATOM     15  C   UNL     1      33.338 -13.455 -24.686  0.00  0.00    +0.020 C 
ATOM     16  C   UNL     1      34.196 -15.682 -25.755  0.00  0.00    +0.247 C 
ATOM     17  H   UNL     1      34.260 -13.806 -21.662  0.00  0.00    +0.152 HD
ATOM     18  H   UNL     1      35.062 -17.525 -26.003  0.00  0.00    +0.150 HD
ENDBRANCH   2  14
BRANCH   5  20
ATOM     19  F   UNL     1      30.667  -7.756 -23.969  0.00  0.00    -0.204 F 
ATOM     20  C   UNL     1      32.976  -8.070 -23.496  0.00  0.00    +0.045 C 
ATOM     21  C   UNL     1      31.929  -7.307 -24.015  0.00  0.00    +0.142 C 
ATOM     22  C   UNL     1      34.284  -7.584 -23.551  0.00  0.00    +0.004 C 
ATOM     23  C   UNL     1      32.189  -6.062 -24.590  0.00  0.00    +0.030 C 
ATOM     24  C   UNL     1      34.544  -6.340 -24.126  0.00  0.00    +0.000 C 
ATOM     25  C   UNL     1      33.497  -5.579 -24.646  0.00  0.00    +0.002 C 
ENDBRANCH   5  20
TORSDOF 2
ENDMDL
MODEL 4
REMARK VINA RESULT:     -10.9     10.809     13.839
REMARK  Name = 11992146
REMARK  2 active torsions:
REMARK  status: ('A' for Active; 'I' for Inactive)
REMARK    1  A    between atoms: C_2  and  C_14
REMARK    2  A    between atoms: C_5  and  C_20
REMARK                            x       y       z     vdW  Elec       q    Type
REMARK                         _______ _______ _______ _____ _____    ______ ____
ROOT
ATOM      1  N   UNL     1      31.418 -10.267 -20.598  0.00  0.00    -0.244 NA
ATOM      2  C   UNL     1      32.664 -12.334 -22.004  0.00  0.00    +0.016 C 
ATOM      3  C   UNL     1      32.674 -11.041 -22.513  0.00  0.00    +0.020 C 
ATOM      4  C   UNL     1      32.033 -12.596 -20.795  0.00  0.00    +0.022 C 
ATOM      5  C   UNL     1      32.042 -10.051 -21.777  0.00  0.00    +0.084 C 
ATOM      6  C   UNL     1      31.429 -11.537 -20.136  0.00  0.00    +0.099 C 
ENDROOT
BRANCH   2  14
ATOM      7  O   UNL     1      36.010 -16.799 -22.586  0.00  0.00    -0.270 OA
ATOM      8  N   UNL     1      33.171 -13.543 -24.089  0.00  0.00    -0.316 N 
ATOM      9  N   UNL     1      35.316 -16.957 -24.785  0.00  0.00    -0.300 N 
ATOM     10  C   UNL     1      33.889 -14.630 -24.496  0.00  0.00    +0.031 C 
ATOM     11  C   UNL     1      34.030 -15.113 -25.889  0.00  0.00    +0.063 C 
ATOM     12  C   UNL     1      34.489 -15.202 -23.393  0.00  0.00    +0.064 C 
ATOM     13  C   UNL     1      34.353 -16.611 -25.836  0.00  0.00    +0.096 C 
ATOM     14  C   UNL     1      33.308 -13.403 -22.730  0.00  0.00    +0.048 C 
ATOM     15  C   UNL     1      34.126 -14.417 -22.272  0.00  0.00    +0.020 C 
ATOM     16  C   UNL     1      35.331 -16.375 -23.517  0.00  0.00    +0.247 C 
ATOM     17  H   UNL     1      32.641 -12.955 -24.676  0.00  0.00    +0.152 HD
ATOM     18  H   UNL     1      35.994 -17.643 -24.986  0.00  0.00    +0.150 HD
ENDBRANCH   2  14
BRANCH   5  20
ATOM     19  F   UNL     1      33.436  -7.992 -20.468  0.00  0.00    -0.204 F 
ATOM     20  C   UNL     1      32.011  -8.684 -22.242  0.00  0.00    +0.045 C 
ATOM     21  C   UNL     1      32.718  -7.692 -21.559  0.00  0.00    +0.142 C 
ATOM     22  C   UNL     1      31.270  -8.352 -23.378  0.00  0.00    +0.004 C 
ATOM     23  C   UNL     1      32.682  -6.372 -22.011  0.00  0.00    +0.030 C 
ATOM     24  C   UNL     1      31.234  -7.033 -23.828  0.00  0.00    +0.000 C 
ATOM     25  C   UNL     1      31.940  -6.042 -23.145  0.00  0.00    +0.002 C 
ENDBRANCH   5  20
TORSDOF 2
ENDMDL
MODEL 5
REMARK VINA RESULT:     -10.6      6.008     10.739
REMARK  Name = 11992146
REMARK  2 active torsions:
REMARK  status: ('A' for Active; 'I' for Inactive)
REMARK    1  A    between atoms: C_2  and  C_14
REMARK    2  A    between atoms: C_5  and  C_20
REMARK                            x       y       z     vdW  Elec       q    Type
REMARK                         _______ _______ _______ _____ _____    ______ ____
ROOT
ATOM      1  N   UNL     1      37.050 -20.150 -20.983  0.00  0.00    -0.244 NA
ATOM      2  C   UNL     1      35.966 -18.072 -22.505  0.00  0.00    +0.016 C 
ATOM      3  C   UNL     1      35.132 -18.902 -21.765  0.00  0.00    +0.020 C 
ATOM      4  C   UNL     1      37.340 -18.278 -22.485  0.00  0.00    +0.022 C 
ATOM      5  C   UNL     1      35.718 -19.918 -21.027  0.00  0.00    +0.084 C 
ATOM      6  C   UNL     1      37.828 -19.323 -21.715  0.00  0.00    +0.099 C 
ENDROOT
BRANCH   2  14
ATOM      7  O   UNL     1      33.769 -15.748 -27.113  0.00  0.00    -0.270 OA
ATOM      8  N   UNL     1      35.321 -15.715 -22.811  0.00  0.00    -0.316 N 
ATOM      9  N   UNL     1      33.458 -13.800 -25.910  0.00  0.00    -0.300 N 
ATOM     10  C   UNL     1      34.759 -14.921 -23.768  0.00  0.00    +0.031 C 
ATOM     11  C   UNL     1      34.514 -13.464 -23.663  0.00  0.00    +0.063 C 
ATOM     12  C   UNL     1      34.473 -15.697 -24.873  0.00  0.00    +0.064 C 
ATOM     13  C   UNL     1      33.366 -13.112 -24.617  0.00  0.00    +0.096 C 
ATOM     14  C   UNL     1      35.408 -16.999 -23.291  0.00  0.00    +0.048 C 
ATOM     15  C   UNL     1      34.893 -17.015 -24.573  0.00  0.00    +0.020 C 
ATOM     16  C   UNL     1      33.875 -15.122 -26.062  0.00  0.00    +0.247 C 
ATOM     17  H   UNL     1      35.617 -15.416 -21.920  0.00  0.00    +0.152 HD
ATOM     18  H   UNL     1      33.210 -13.297 -26.719  0.00  0.00    +0.150 HD
ENDBRANCH   2  14
BRANCH   5  20
ATOM     19  F   UNL     1      36.863 -21.881 -19.373  0.00  0.00    -0.204 F 
ATOM     20  C   UNL     1      34.916 -20.819 -20.234  0.00  0.00    +0.045 C 
ATOM     21  C   UNL     1      35.527 -21.782 -19.427  0.00  0.00    +0.142 C 
ATOM     22  C   UNL     1      33.524 -20.731 -20.275  0.00  0.00    +0.004 C 
ATOM     23  C   UNL     1      34.747 -22.653 -18.665  0.00  0.00    +0.030 C 
ATOM     24  C   UNL     1      32.744 -21.601 -19.513  0.00  0.00    +0.000 C 
ATOM     25  C   UNL     1      33.356 -22.562 -18.709  0.00  0.00    +0.002 C 
ENDBRANCH   5  20
TORSDOF 2
ENDMDL
MODEL 6
REMARK VINA RESULT:     -10.5      7.964     12.271
REMARK  Name = 11992146
REMARK  2 active torsions:
REMARK  status: ('A' for Active; 'I' for Inactive)
REMARK    1  A    between atoms: C_2  and  C_14
REMARK    2  A    between atoms: C_5  and  C_20
REMARK                            x       y       z     vdW  Elec       q    Type
REMARK                         _______ _______ _______ _____ _____    ______ ____
ROOT
ATOM      1  N   UNL     1      35.373 -18.085 -24.559  0.00  0.00    -0.244 NA
ATOM      2  C   UNL     1      34.486 -15.512 -23.929  0.00  0.00    +0.016 C 
ATOM      3  C   UNL     1      34.899 -16.373 -22.919  0.00  0.00    +0.020 C 
ATOM      4  C   UNL     1      34.516 -15.934 -25.253  0.00  0.00    +0.022 C 
ATOM      5  C   UNL     1      35.330 -17.639 -23.283  0.00  0.00    +0.084 C 
ATOM      6  C   UNL     1      34.964 -17.220 -25.512  0.00  0.00    +0.099 C 
ENDROOT
BRANCH   2  14
ATOM      7  O   UNL     1      34.392  -9.919 -24.343  0.00  0.00    -0.270 OA
ATOM      8  N   UNL     1      33.110 -13.953 -22.611  0.00  0.00    -0.316 N 
ATOM      9  N   UNL     1      32.614  -9.899 -22.868  0.00  0.00    -0.300 N 
ATOM     10  C   UNL     1      32.872 -12.611 -22.529  0.00  0.00    +0.031 C 
ATOM     11  C   UNL     1      31.967 -11.940 -21.567  0.00  0.00    +0.063 C 
ATOM     12  C   UNL     1      33.636 -11.968 -23.481  0.00  0.00    +0.064 C 
ATOM     13  C   UNL     1      31.524 -10.610 -22.189  0.00  0.00    +0.096 C 
ATOM     14  C   UNL     1      34.028 -14.182 -23.605  0.00  0.00    +0.048 C 
ATOM     15  C   UNL     1      34.377 -12.966 -24.160  0.00  0.00    +0.020 C 
ATOM     16  C   UNL     1      33.601 -10.526 -23.627  0.00  0.00    +0.247 C 
ATOM     17  H   UNL     1      32.690 -14.643 -22.047  0.00  0.00    +0.152 HD
ATOM     18  H   UNL     1      32.649  -8.918 -22.782  0.00  0.00    +0.150 HD
ENDBRANCH   2  14
BRANCH   5  20
ATOM     19  F   UNL     1      33.726 -19.789 -22.445  0.00  0.00    -0.204 F 
ATOM     20  C   UNL     1      35.773 -18.587 -22.290  0.00  0.00    +0.045 C 
ATOM     21  C   UNL     1      34.942 -19.640 -21.901  0.00  0.00    +0.142 C 
ATOM     22  C   UNL     1      37.037 -18.452 -21.713  0.00  0.00    +0.004 C 
ATOM     23  C   UNL     1      35.375 -20.553 -20.938  0.00  0.00    +0.030 C 
ATOM     24  C   UNL     1      37.469 -19.363 -20.750  0.00  0.00    +0.000 C 
ATOM     25  C   UNL     1      36.638 -20.414 -20.362  0.00  0.00    +0.002 C 
ENDBRANCH   5  20
TORSDOF 2
ENDMDL
MODEL 7
REMARK VINA RESULT:     -10.5      3.036      7.533
REMARK  Name = 11992146
REMARK  2 active torsions:
REMARK  status: ('A' for Active; 'I' for Inactive)
REMARK    1  A    between atoms: C_2  and  C_14
REMARK    2  A    between atoms: C_5  and  C_20
REMARK                            x       y       z     vdW  Elec       q    Type
REMARK                         _______ _______ _______ _____ _____    ______ ____
ROOT
ATOM      1  N   UNL     1      33.829 -24.739 -14.366  0.00  0.00    -0.244 NA
ATOM      2  C   UNL     1      34.137 -23.278 -16.728  0.00  0.00    +0.016 C 
ATOM      3  C   UNL     1      35.254 -23.653 -15.991  0.00  0.00    +0.020 C 
ATOM      4  C   UNL     1      32.867 -23.631 -16.287  0.00  0.00    +0.022 C 
ATOM      5  C   UNL     1      35.048 -24.376 -14.827  0.00  0.00    +0.084 C 
ATOM      6  C   UNL     1      32.768 -24.355 -15.109  0.00  0.00    +0.099 C 
ENDROOT
BRANCH   2  14
ATOM      7  O   UNL     1      32.355 -20.622 -21.336  0.00  0.00    -0.270 OA
ATOM      8  N   UNL     1      35.532 -22.217 -18.458  0.00  0.00    -0.316 N 
ATOM      9  N   UNL     1      34.540 -19.989 -21.744  0.00  0.00    -0.300 N 
ATOM     10  C   UNL     1      35.371 -21.506 -19.612  0.00  0.00    +0.031 C 
ATOM     11  C   UNL     1      36.455 -21.007 -20.490  0.00  0.00    +0.063 C 
ATOM     12  C   UNL     1      34.021 -21.344 -19.847  0.00  0.00    +0.064 C 
ATOM     13  C   UNL     1      35.913 -19.798 -21.263  0.00  0.00    +0.096 C 
ATOM     14  C   UNL     1      34.294 -22.523 -17.948  0.00  0.00    +0.048 C 
ATOM     15  C   UNL     1      33.337 -21.998 -18.794  0.00  0.00    +0.020 C 
ATOM     16  C   UNL     1      33.540 -20.633 -21.015  0.00  0.00    +0.247 C 
ATOM     17  H   UNL     1      36.396 -22.470 -18.057  0.00  0.00    +0.152 HD
ATOM     18  H   UNL     1      34.311 -19.641 -22.636  0.00  0.00    +0.150 HD
ENDBRANCH   2  14
BRANCH   5  20
ATOM     19  F   UNL     1      36.454 -26.756 -15.332  0.00  0.00    -0.204 F 
ATOM     20  C   UNL     1      36.159 -24.802 -14.009  0.00  0.00    +0.045 C 
ATOM     21  C   UNL     1      36.829 -25.993 -14.295  0.00  0.00    +0.142 C 
ATOM     22  C   UNL     1      36.566 -24.020 -12.926  0.00  0.00    +0.004 C 
ATOM     23  C   UNL     1      37.901 -26.401 -13.500  0.00  0.00    +0.030 C 
ATOM     24  C   UNL     1      37.636 -24.428 -12.132  0.00  0.00    +0.000 C 
ATOM     25  C   UNL     1      38.304 -25.619 -12.418  0.00  0.00    +0.002 C 
ENDBRANCH   5  20
TORSDOF 2
ENDMDL
MODEL 8
REMARK VINA RESULT:     -10.4     10.027     13.813
REMARK  Name = 11992146
REMARK  2 active torsions:
REMARK  status: ('A' for Active; 'I' for Inactive)
REMARK    1  A    between atoms: C_2  and  C_14
REMARK    2  A    between atoms: C_5  and  C_20
REMARK                            x       y       z     vdW  Elec       q    Type
REMARK                         _______ _______ _______ _____ _____    ______ ____
ROOT
ATOM      1  N   UNL     1      34.266 -15.953 -26.241  0.00  0.00    -0.244 NA
ATOM      2  C   UNL     1      33.879 -13.494 -24.972  0.00  0.00    +0.016 C 
ATOM      3  C   UNL     1      34.319 -14.593 -24.243  0.00  0.00    +0.020 C 
ATOM      4  C   UNL     1      33.632 -13.622 -26.334  0.00  0.00    +0.022 C 
ATOM      5  C   UNL     1      34.495 -15.790 -24.919  0.00  0.00    +0.084 C 
ATOM      6  C   UNL     1      33.839 -14.863 -26.916  0.00  0.00    +0.099 C 
ENDROOT
BRANCH   2  14
ATOM      7  O   UNL     1      34.815  -8.041 -24.047  0.00  0.00    -0.270 OA
ATOM      8  N   UNL     1      32.832 -12.084 -23.246  0.00  0.00    -0.316 N 
ATOM      9  N   UNL     1      33.090  -8.067 -22.509  0.00  0.00    -0.300 N 
ATOM     10  C   UNL     1      32.847 -10.782 -22.836  0.00  0.00    +0.031 C 
ATOM     11  C   UNL     1      32.095 -10.216 -21.693  0.00  0.00    +0.063 C 
ATOM     12  C   UNL     1      33.704 -10.073 -23.652  0.00  0.00    +0.064 C 
ATOM     13  C   UNL     1      31.897  -8.719 -21.957  0.00  0.00    +0.096 C 
ATOM     14  C   UNL     1      33.679 -12.224 -24.318  0.00  0.00    +0.048 C 
ATOM     15  C   UNL     1      34.239 -10.990 -24.588  0.00  0.00    +0.020 C 
ATOM     16  C   UNL     1      33.935  -8.655 -23.451  0.00  0.00    +0.247 C 
ATOM     17  H   UNL     1      32.299 -12.806 -22.839  0.00  0.00    +0.152 HD
ATOM     18  H   UNL     1      33.307  -7.159 -22.197  0.00  0.00    +0.150 HD
ENDBRANCH   2  14
BRANCH   5  20
ATOM     19  F   UNL     1      33.777 -18.376 -25.749  0.00  0.00    -0.204 F 
ATOM     20  C   UNL     1      34.950 -16.973 -24.228  0.00  0.00    +0.045 C 
ATOM     21  C   UNL     1      34.567 -18.240 -24.674  0.00  0.00    +0.142 C 
ATOM     22  C   UNL     1      35.775 -16.852 -23.109  0.00  0.00    +0.004 C 
ATOM     23  C   UNL     1      35.007 -19.381 -24.001  0.00  0.00    +0.030 C 
ATOM     24  C   UNL     1      36.214 -17.992 -22.436  0.00  0.00    +0.000 C 
ATOM     25  C   UNL     1      35.830 -19.256 -22.882  0.00  0.00    +0.002 C 
ENDBRANCH   5  20
TORSDOF 2
ENDMDL
MODEL 9
REMARK VINA RESULT:     -10.4     11.713     15.581
REMARK  Name = 11992146
REMARK  2 active torsions:
REMARK  status: ('A' for Active; 'I' for Inactive)
REMARK    1  A    between atoms: C_2  and  C_14
REMARK    2  A    between atoms: C_5  and  C_20
REMARK                            x       y       z     vdW  Elec       q    Type
REMARK                         _______ _______ _______ _____ _____    ______ ____
ROOT
ATOM      1  N   UNL     1      32.508 -13.607 -21.756  0.00  0.00    -0.244 NA
ATOM      2  C   UNL     1      32.561 -10.891 -22.407  0.00  0.00    +0.016 C 
ATOM      3  C   UNL     1      33.182 -11.818 -23.236  0.00  0.00    +0.020 C 
ATOM      4  C   UNL     1      31.915 -11.318 -21.254  0.00  0.00    +0.022 C 
ATOM      5  C   UNL     1      33.127 -13.153 -22.869  0.00  0.00    +0.084 C 
ATOM      6  C   UNL     1      31.917 -12.676 -20.975  0.00  0.00    +0.099 C 
ENDROOT
BRANCH   2  14
ATOM      7  O   UNL     1      34.655  -6.267 -24.795  0.00  0.00    -0.270 OA
ATOM      8  N   UNL     1      31.665  -8.603 -22.241  0.00  0.00    -0.316 N 
ATOM      9  N   UNL     1      32.786  -5.118 -24.070  0.00  0.00    -0.300 N 
ATOM     10  C   UNL     1      31.940  -7.356 -22.723  0.00  0.00    +0.031 C 
ATOM     11  C   UNL     1      31.201  -6.112 -22.404  0.00  0.00    +0.063 C 
ATOM     12  C   UNL     1      33.044  -7.434 -23.547  0.00  0.00    +0.064 C 
ATOM     13  C   UNL     1      31.408  -5.133 -23.566  0.00  0.00    +0.096 C 
ATOM     14  C   UNL     1      32.589  -9.487 -22.742  0.00  0.00    +0.048 C 
ATOM     15  C   UNL     1      33.461  -8.787 -23.552  0.00  0.00    +0.020 C 
ATOM     16  C   UNL     1      33.581  -6.256 -24.200  0.00  0.00    +0.247 C 
ATOM     17  H   UNL     1      30.924  -8.831 -21.633  0.00  0.00    +0.152 HD
ATOM     18  H   UNL     1      33.173  -4.251 -24.333  0.00  0.00    +0.150 HD
ENDBRANCH   2  14
BRANCH   5  20
ATOM     19  F   UNL     1      35.083 -14.893 -21.849  0.00  0.00    -0.204 F 
ATOM     20  C   UNL     1      33.748 -14.173 -23.680  0.00  0.00    +0.045 C 
ATOM     21  C   UNL     1      34.717 -15.016 -23.133  0.00  0.00    +0.142 C 
ATOM     22  C   UNL     1      33.379 -14.318 -25.019  0.00  0.00    +0.004 C 
ATOM     23  C   UNL     1      35.317 -15.998 -23.922  0.00  0.00    +0.030 C 
ATOM     24  C   UNL     1      33.978 -15.299 -25.808  0.00  0.00    +0.000 C 
ATOM     25  C   UNL     1      34.947 -16.140 -25.260  0.00  0.00    +0.002 C 
ENDBRANCH   5  20
TORSDOF 2
ENDMDL
