MODEL 1
REMARK VINA RESULT:     -10.9      0.000      0.000
REMARK  Name = 2754
REMARK  7 active torsions:
REMARK  status: ('A' for Active; 'I' for Inactive)
REMARK    1  A    between atoms: C_1  and  C_2
REMARK    2  A    between atoms: C_1  and  C_15
REMARK    3  A    between atoms: C_2  and  C_3
REMARK    4  A    between atoms: C_3  and  C_8
REMARK    5  A    between atoms: N_4  and  C_9
REMARK    6  A    between atoms: C_15  and  O_16
REMARK    7  A    between atoms: O_16  and  C_23
REMARK                            x       y       z     vdW  Elec       q    Type
REMARK                         _______ _______ _______ _____ _____    ______ ____
ROOT
ATOM      1  C   UNL     1      34.264 -14.264 -21.398  0.00  0.00    +0.048 C 
ENDROOT
BRANCH   1   2
ATOM      2  C   UNL     1      34.095 -14.607 -22.877  0.00  0.00    +0.012 C 
BRANCH   2   3
ATOM      3  C   UNL     1      35.334 -15.317 -23.428  0.00  0.00    +0.068 C 
BRANCH   3   8
ATOM      4  N   UNL     1      35.009 -17.740 -23.926  0.00  0.00    -0.219 N 
ATOM      5  N   UNL     1      34.618 -18.524 -24.941  0.00  0.00    -0.043 NA
ATOM      6  N   UNL     1      34.556 -16.382 -25.555  0.00  0.00    -0.113 NA
ATOM      7  N   UNL     1      34.341 -17.688 -25.934  0.00  0.00    -0.023 NA
ATOM      8  C   UNL     1      34.958 -16.465 -24.331  0.00  0.00    +0.161 A 
BRANCH   4   9
ATOM      9  C   UNL     1      35.402 -18.315 -22.634  0.00  0.00    +0.108 C 
ATOM     10  C   UNL     1      36.923 -18.513 -22.521  0.00  0.00    +0.024 C 
ATOM     11  C   UNL     1      34.637 -19.611 -22.315  0.00  0.00    +0.024 C 
ATOM     12  C   UNL     1      37.310 -19.082 -21.157  0.00  0.00    +0.002 C 
ATOM     13  C   UNL     1      35.039 -20.172 -20.953  0.00  0.00    +0.002 C 
ATOM     14  C   UNL     1      36.550 -20.369 -20.847  0.00  0.00    +0.000 C 
ENDBRANCH   4   9
ENDBRANCH   3   8
ENDBRANCH   2   3
ENDBRANCH   1   2
BRANCH   1  15
ATOM     15  C   UNL     1      32.967 -14.452 -20.626  0.00  0.00    +0.205 C 
BRANCH  15  16
ATOM     16  O   UNL     1      31.960 -13.626 -21.207  0.00  0.00    -0.475 OA
BRANCH  16  23
ATOM     17  O   UNL     1      32.335  -5.995 -21.085  0.00  0.00    -0.275 OA
ATOM     18  N   UNL     1      32.297  -8.154 -20.306  0.00  0.00    -0.284 N 
ATOM     19  C   UNL     1      32.173 -10.025 -21.854  0.00  0.00    -0.005 C 
ATOM     20  C   UNL     1      32.320  -9.065 -22.999  0.00  0.00    +0.037 C 
ATOM     21  C   UNL     1      32.206  -9.539 -20.541  0.00  0.00    +0.046 C 
ATOM     22  C   UNL     1      31.728  -7.708 -22.648  0.00  0.00    +0.090 C 
ATOM     23  C   UNL     1      32.057 -12.285 -20.989  0.00  0.00    +0.138 C 
ATOM     24  C   UNL     1      32.105 -11.405 -22.071  0.00  0.00    +0.034 C 
ATOM     25  C   UNL     1      32.180  -7.197 -21.295  0.00  0.00    +0.226 C 
ATOM     26  C   UNL     1      32.179 -10.419 -19.457  0.00  0.00    +0.017 C 
ATOM     27  C   UNL     1      32.096 -11.793 -19.685  0.00  0.00    +0.038 C 
ATOM     28  H   UNL     1      32.455  -7.851 -19.383  0.00  0.00    +0.155 HD
ENDBRANCH  16  23
ENDBRANCH  15  16
ENDBRANCH   1  15
TORSDOF 7
ENDMDL
MODEL 2
REMARK VINA RESULT:     -10.8      6.738     11.865
REMARK  Name = 2754
REMARK  7 active torsions:
REMARK  status: ('A' for Active; 'I' for Inactive)
REMARK    1  A    between atoms: C_1  and  C_2
REMARK    2  A    between atoms: C_1  and  C_15
REMARK    3  A    between atoms: C_2  and  C_3
REMARK    4  A    between atoms: C_3  and  C_8
REMARK    5  A    between atoms: N_4  and  C_9
REMARK    6  A    between atoms: C_15  and  O_16
REMARK    7  A    between atoms: O_16  and  C_23
REMARK                            x       y       z     vdW  Elec       q    Type
REMARK                         _______ _______ _______ _____ _____    ______ ____
ROOT
ATOM      1  C   UNL     1      33.823 -22.496 -19.529  0.00  0.00    +0.048 C 
ENDROOT
BRANCH   1   2
ATOM      2  C   UNL     1      33.469 -21.036 -19.807  0.00  0.00    +0.012 C 
BRANCH   2   3
ATOM      3  C   UNL     1      34.024 -20.577 -21.158  0.00  0.00    +0.068 C 
BRANCH   3   8
ATOM      4  N   UNL     1      35.819 -18.957 -21.774  0.00  0.00    -0.219 N 
ATOM      5  N   UNL     1      37.073 -18.647 -21.414  0.00  0.00    -0.043 NA
ATOM      6  N   UNL     1      36.318 -20.345 -20.183  0.00  0.00    -0.113 NA
ATOM      7  N   UNL     1      37.373 -19.498 -20.441  0.00  0.00    -0.023 NA
ATOM      8  C   UNL     1      35.401 -19.977 -21.015  0.00  0.00    +0.161 A 
BRANCH   4   9
ATOM      9  C   UNL     1      35.132 -18.218 -22.840  0.00  0.00    +0.108 C 
ATOM     10  C   UNL     1      35.080 -19.010 -24.158  0.00  0.00    +0.024 C 
ATOM     11  C   UNL     1      35.720 -16.812 -23.048  0.00  0.00    +0.024 C 
ATOM     12  C   UNL     1      34.333 -18.235 -25.243  0.00  0.00    +0.002 C 
ATOM     13  C   UNL     1      34.969 -16.052 -24.139  0.00  0.00    +0.002 C 
ATOM     14  C   UNL     1      34.922 -16.841 -25.445  0.00  0.00    +0.000 C 
ENDBRANCH   4   9
ENDBRANCH   3   8
ENDBRANCH   2   3
ENDBRANCH   1   2
BRANCH   1  15
ATOM     15  C   UNL     1      33.686 -22.836 -18.052  0.00  0.00    +0.205 C 
BRANCH  15  16
ATOM     16  O   UNL     1      34.980 -23.110 -17.520  0.00  0.00    -0.475 OA
BRANCH  16  23
ATOM     17  O   UNL     1      36.332 -24.462 -10.122  0.00  0.00    -0.275 OA
ATOM     18  N   UNL     1      35.228 -24.455 -12.136  0.00  0.00    -0.284 N 
ATOM     19  C   UNL     1      36.276 -23.511 -14.116  0.00  0.00    -0.005 C 
ATOM     20  C   UNL     1      37.546 -23.328 -13.336  0.00  0.00    +0.037 C 
ATOM     21  C   UNL     1      35.170 -24.106 -13.497  0.00  0.00    +0.046 C 
ATOM     22  C   UNL     1      37.248 -23.092 -11.863  0.00  0.00    +0.090 C 
ATOM     23  C   UNL     1      35.048 -23.452 -16.204  0.00  0.00    +0.138 C 
ATOM     24  C   UNL     1      36.211 -23.191 -15.476  0.00  0.00    +0.034 C 
ATOM     25  C   UNL     1      36.259 -24.089 -11.292  0.00  0.00    +0.226 C 
ATOM     26  C   UNL     1      34.013 -24.386 -14.229  0.00  0.00    +0.017 C 
ATOM     27  C   UNL     1      33.953 -24.050 -15.582  0.00  0.00    +0.038 C 
ATOM     28  H   UNL     1      34.492 -24.992 -11.763  0.00  0.00    +0.155 HD
ENDBRANCH  16  23
ENDBRANCH  15  16
ENDBRANCH   1  15
TORSDOF 7
ENDMDL
MODEL 3
REMARK VINA RESULT:     -10.7      7.200     11.309
REMARK  Name = 2754
REMARK  7 active torsions:
REMARK  status: ('A' for Active; 'I' for Inactive)
REMARK    1  A    between atoms: C_1  and  C_2
REMARK    2  A    between atoms: C_1  and  C_15
REMARK    3  A    between atoms: C_2  and  C_3
REMARK    4  A    between atoms: C_3  and  C_8
REMARK    5  A    between atoms: N_4  and  C_9
REMARK    6  A    between atoms: C_15  and  O_16
REMARK    7  A    between atoms: O_16  and  C_23
REMARK                            x       y       z     vdW  Elec       q    Type
REMARK                         _______ _______ _______ _____ _____    ______ ____
ROOT
ATOM      1  C   UNL     1      36.579 -22.540 -16.021  0.00  0.00    +0.048 C 
ENDROOT
BRANCH   1   2
ATOM      2  C   UNL     1      37.252 -23.872 -15.693  0.00  0.00    +0.012 C 
BRANCH   2   3
ATOM      3  C   UNL     1      36.223 -24.924 -15.270  0.00  0.00    +0.068 C 
BRANCH   3   8
ATOM      4  N   UNL     1      34.320 -24.446 -13.728  0.00  0.00    -0.219 N 
ATOM      5  N   UNL     1      34.107 -24.180 -12.432  0.00  0.00    -0.043 NA
ATOM      6  N   UNL     1      36.285 -24.463 -12.811  0.00  0.00    -0.113 NA
ATOM      7  N   UNL     1      35.311 -24.193 -11.875  0.00  0.00    -0.023 NA
ATOM      8  C   UNL     1      35.636 -24.609 -13.917  0.00  0.00    +0.161 A 
BRANCH   4   9
ATOM      9  C   UNL     1      33.205 -24.519 -14.680  0.00  0.00    +0.108 C 
ATOM     10  C   UNL     1      32.990 -23.192 -15.429  0.00  0.00    +0.024 C 
ATOM     11  C   UNL     1      31.906 -25.013 -14.021  0.00  0.00    +0.024 C 
ATOM     12  C   UNL     1      31.846 -23.301 -16.436  0.00  0.00    +0.002 C 
ATOM     13  C   UNL     1      30.770 -25.110 -15.037  0.00  0.00    +0.002 C 
ATOM     14  C   UNL     1      30.559 -23.790 -15.776  0.00  0.00    +0.000 C 
ENDBRANCH   4   9
ENDBRANCH   3   8
ENDBRANCH   2   3
ENDBRANCH   1   2
BRANCH   1  15
ATOM     15  C   UNL     1      36.911 -22.076 -17.431  0.00  0.00    +0.205 C 
BRANCH  15  16
ATOM     16  O   UNL     1      35.851 -22.460 -18.305  0.00  0.00    -0.475 OA
BRANCH  16  23
ATOM     17  O   UNL     1      35.267 -17.534 -24.116  0.00  0.00    -0.275 OA
ATOM     18  N   UNL     1      34.623 -19.035 -22.502  0.00  0.00    -0.284 N 
ATOM     19  C   UNL     1      36.256 -19.970 -20.962  0.00  0.00    -0.005 C 
ATOM     20  C   UNL     1      37.294 -19.046 -21.529  0.00  0.00    +0.037 C 
ATOM     21  C   UNL     1      34.942 -19.905 -21.443  0.00  0.00    +0.046 C 
ATOM     22  C   UNL     1      37.007 -18.739 -22.991  0.00  0.00    +0.090 C 
ATOM     23  C   UNL     1      35.550 -21.609 -19.324  0.00  0.00    +0.138 C 
ATOM     24  C   UNL     1      36.552 -20.823 -19.894  0.00  0.00    +0.034 C 
ATOM     25  C   UNL     1      35.565 -18.346 -23.241  0.00  0.00    +0.226 C 
ATOM     26  C   UNL     1      33.934 -20.676 -20.861  0.00  0.00    +0.017 C 
ATOM     27  C   UNL     1      34.243 -21.534 -19.805  0.00  0.00    +0.038 C 
ATOM     28  H   UNL     1      33.673 -18.909 -22.728  0.00  0.00    +0.155 HD
ENDBRANCH  16  23
ENDBRANCH  15  16
ENDBRANCH   1  15
TORSDOF 7
ENDMDL
MODEL 4
REMARK VINA RESULT:     -10.6      7.547     11.624
REMARK  Name = 2754
REMARK  7 active torsions:
REMARK  status: ('A' for Active; 'I' for Inactive)
REMARK    1  A    between atoms: C_1  and  C_2
REMARK    2  A    between atoms: C_1  and  C_15
REMARK    3  A    between atoms: C_2  and  C_3
REMARK    4  A    between atoms: C_3  and  C_8
REMARK    5  A    between atoms: N_4  and  C_9
REMARK    6  A    between atoms: C_15  and  O_16
REMARK    7  A    between atoms: O_16  and  C_23
REMARK                            x       y       z     vdW  Elec       q    Type
REMARK                         _______ _______ _______ _____ _____    ______ ____
ROOT
ATOM      1  C   UNL     1      32.214 -23.382 -16.412  0.00  0.00    +0.048 C 
ENDROOT
BRANCH   1   2
ATOM      2  C   UNL     1      32.858 -23.402 -15.027  0.00  0.00    +0.012 C 
BRANCH   2   3
ATOM      3  C   UNL     1      34.297 -23.923 -15.092  0.00  0.00    +0.068 C 
BRANCH   3   8
ATOM      4  N   UNL     1      36.008 -24.879 -13.548  0.00  0.00    -0.219 N 
ATOM      5  N   UNL     1      36.135 -25.213 -12.256  0.00  0.00    -0.043 NA
ATOM      6  N   UNL     1      34.095 -24.402 -12.644  0.00  0.00    -0.113 NA
ATOM      7  N   UNL     1      34.963 -24.919 -11.708  0.00  0.00    -0.023 NA
ATOM      8  C   UNL     1      34.774 -24.397 -13.742  0.00  0.00    +0.161 A 
BRANCH   4   9
ATOM      9  C   UNL     1      37.119 -25.061 -14.490  0.00  0.00    +0.108 C 
ATOM     10  C   UNL     1      38.151 -26.084 -13.986  0.00  0.00    +0.024 C 
ATOM     11  C   UNL     1      37.785 -23.727 -14.872  0.00  0.00    +0.024 C 
ATOM     12  C   UNL     1      39.280 -26.279 -14.996  0.00  0.00    +0.002 C 
ATOM     13  C   UNL     1      38.915 -23.938 -15.876  0.00  0.00    +0.002 C 
ATOM     14  C   UNL     1      39.938 -24.953 -15.369  0.00  0.00    +0.000 C 
ENDBRANCH   4   9
ENDBRANCH   3   8
ENDBRANCH   2   3
ENDBRANCH   1   2
BRANCH   1  15
ATOM     15  C   UNL     1      33.234 -23.646 -17.510  0.00  0.00    +0.205 C 
BRANCH  15  16
ATOM     16  O   UNL     1      32.958 -22.785 -18.613  0.00  0.00    -0.475 OA
BRANCH  16  23
ATOM     17  O   UNL     1      38.096 -18.416 -22.205  0.00  0.00    -0.275 OA
ATOM     18  N   UNL     1      37.249 -19.977 -20.749  0.00  0.00    -0.284 N 
ATOM     19  C   UNL     1      34.877 -20.512 -20.752  0.00  0.00    -0.005 C 
ATOM     20  C   UNL     1      34.701 -19.641 -21.963  0.00  0.00    +0.037 C 
ATOM     21  C   UNL     1      36.157 -20.681 -20.209  0.00  0.00    +0.046 C 
ATOM     22  C   UNL     1      35.712 -18.505 -21.967  0.00  0.00    +0.090 C 
ATOM     23  C   UNL     1      34.011 -22.107 -19.148  0.00  0.00    +0.138 C 
ATOM     24  C   UNL     1      33.806 -21.236 -20.219  0.00  0.00    +0.034 C 
ATOM     25  C   UNL     1      37.127 -18.972 -21.689  0.00  0.00    +0.226 C 
ATOM     26  C   UNL     1      36.367 -21.567 -19.150  0.00  0.00    +0.017 C 
ATOM     27  C   UNL     1      35.289 -22.274 -18.616  0.00  0.00    +0.038 C 
ATOM     28  H   UNL     1      38.153 -20.216 -20.439  0.00  0.00    +0.155 HD
ENDBRANCH  16  23
ENDBRANCH  15  16
ENDBRANCH   1  15
TORSDOF 7
ENDMDL
MODEL 5
REMARK VINA RESULT:     -10.6      3.780      9.136
REMARK  Name = 2754
REMARK  7 active torsions:
REMARK  status: ('A' for Active; 'I' for Inactive)
REMARK    1  A    between atoms: C_1  and  C_2
REMARK    2  A    between atoms: C_1  and  C_15
REMARK    3  A    between atoms: C_2  and  C_3
REMARK    4  A    between atoms: C_3  and  C_8
REMARK    5  A    between atoms: N_4  and  C_9
REMARK    6  A    between atoms: C_15  and  O_16
REMARK    7  A    between atoms: O_16  and  C_23
REMARK                            x       y       z     vdW  Elec       q    Type
REMARK                         _______ _______ _______ _____ _____    ______ ____
ROOT
ATOM      1  C   UNL     1      34.213 -17.071 -25.778  0.00  0.00    +0.048 C 
ENDROOT
BRANCH   1   2
ATOM      2  C   UNL     1      34.671 -15.721 -25.227  0.00  0.00    +0.012 C 
BRANCH   2   3
ATOM      3  C   UNL     1      33.478 -14.859 -24.808  0.00  0.00    +0.068 C 
BRANCH   3   8
ATOM      4  N   UNL     1      33.450 -12.567 -23.821  0.00  0.00    -0.219 N 
ATOM      5  N   UNL     1      33.910 -11.339 -24.095  0.00  0.00    -0.043 NA
ATOM      6  N   UNL     1      34.512 -12.763 -25.702  0.00  0.00    -0.113 NA
ATOM      7  N   UNL     1      34.560 -11.464 -25.246  0.00  0.00    -0.023 NA
ATOM      8  C   UNL     1      33.830 -13.392 -24.804  0.00  0.00    +0.161 A 
BRANCH   4   9
ATOM      9  C   UNL     1      32.670 -12.830 -22.605  0.00  0.00    +0.108 C 
ATOM     10  C   UNL     1      32.087 -11.543 -21.996  0.00  0.00    +0.024 C 
ATOM     11  C   UNL     1      33.465 -13.638 -21.565  0.00  0.00    +0.024 C 
ATOM     12  C   UNL     1      31.255 -11.844 -20.751  0.00  0.00    +0.002 C 
ATOM     13  C   UNL     1      32.623 -13.926 -20.324  0.00  0.00    +0.002 C 
ATOM     14  C   UNL     1      32.049 -12.645 -19.723  0.00  0.00    +0.000 C 
ENDBRANCH   4   9
ENDBRANCH   3   8
ENDBRANCH   2   3
ENDBRANCH   1   2
BRANCH   1  15
ATOM     15  C   UNL     1      34.591 -18.214 -24.848  0.00  0.00    +0.205 C 
BRANCH  15  16
ATOM     16  O   UNL     1      35.509 -17.729 -23.869  0.00  0.00    -0.475 OA
BRANCH  16  23
ATOM     17  O   UNL     1      35.773 -22.574 -17.967  0.00  0.00    -0.275 OA
ATOM     18  N   UNL     1      36.484 -21.023 -19.504  0.00  0.00    -0.284 N 
ATOM     19  C   UNL     1      34.936 -20.102 -21.137  0.00  0.00    -0.005 C 
ATOM     20  C   UNL     1      33.812 -20.825 -20.453  0.00  0.00    +0.037 C 
ATOM     21  C   UNL     1      36.232 -20.196 -20.613  0.00  0.00    +0.046 C 
ATOM     22  C   UNL     1      34.307 -22.109 -19.805  0.00  0.00    +0.090 C 
ATOM     23  C   UNL     1      35.743 -18.526 -22.790  0.00  0.00    +0.138 C 
ATOM     24  C   UNL     1      34.696 -19.257 -22.225  0.00  0.00    +0.034 C 
ATOM     25  C   UNL     1      35.563 -21.911 -18.981  0.00  0.00    +0.226 C 
ATOM     26  C   UNL     1      37.275 -19.450 -21.165  0.00  0.00    +0.017 C 
ATOM     27  C   UNL     1      37.028 -18.620 -22.260  0.00  0.00    +0.038 C 
ATOM     28  H   UNL     1      37.369 -20.966 -19.075  0.00  0.00    +0.155 HD
ENDBRANCH  16  23
ENDBRANCH  15  16
ENDBRANCH   1  15
TORSDOF 7
ENDMDL
MODEL 6
REMARK VINA RESULT:     -10.6      4.017     10.037
REMARK  Name = 2754
REMARK  7 active torsions:
REMARK  status: ('A' for Active; 'I' for Inactive)
REMARK    1  A    between atoms: C_1  and  C_2
REMARK    2  A    between atoms: C_1  and  C_15
REMARK    3  A    between atoms: C_2  and  C_3
REMARK    4  A    between atoms: C_3  and  C_8
REMARK    5  A    between atoms: N_4  and  C_9
REMARK    6  A    between atoms: C_15  and  O_16
REMARK    7  A    between atoms: O_16  and  C_23
REMARK                            x       y       z     vdW  Elec       q    Type
REMARK                         _______ _______ _______ _____ _____    ______ ____
ROOT
ATOM      1  C   UNL     1      36.522 -18.442 -23.140  0.00  0.00    +0.048 C 
ENDROOT
BRANCH   1   2
ATOM      2  C   UNL     1      35.204 -17.858 -23.645  0.00  0.00    +0.012 C 
BRANCH   2   3
ATOM      3  C   UNL     1      35.298 -16.340 -23.815  0.00  0.00    +0.068 C 
BRANCH   3   8
ATOM      4  N   UNL     1      34.061 -14.659 -25.183  0.00  0.00    -0.219 N 
ATOM      5  N   UNL     1      33.517 -14.546 -26.402  0.00  0.00    -0.043 NA
ATOM      6  N   UNL     1      34.431 -16.564 -26.152  0.00  0.00    -0.113 NA
ATOM      7  N   UNL     1      33.746 -15.713 -26.991  0.00  0.00    -0.023 NA
ATOM      8  C   UNL     1      34.598 -15.880 -25.070  0.00  0.00    +0.161 A 
BRANCH   4   9
ATOM      9  C   UNL     1      34.008 -13.549 -24.224  0.00  0.00    +0.108 C 
ATOM     10  C   UNL     1      32.785 -13.639 -23.294  0.00  0.00    +0.024 C 
ATOM     11  C   UNL     1      34.093 -12.177 -24.914  0.00  0.00    +0.024 C 
ATOM     12  C   UNL     1      32.768 -12.492 -22.286  0.00  0.00    +0.002 C 
ATOM     13  C   UNL     1      34.068 -11.040 -23.895  0.00  0.00    +0.002 C 
ATOM     14  C   UNL     1      32.852 -11.133 -22.976  0.00  0.00    +0.000 C 
ENDBRANCH   4   9
ENDBRANCH   3   8
ENDBRANCH   2   3
ENDBRANCH   1   2
BRANCH   1  15
ATOM     15  C   UNL     1      36.375 -19.040 -21.748  0.00  0.00    +0.205 C 
BRANCH  15  16
ATOM     16  O   UNL     1      35.267 -19.938 -21.746  0.00  0.00    -0.475 OA
BRANCH  16  23
ATOM     17  O   UNL     1      35.418 -24.038 -15.300  0.00  0.00    -0.275 OA
ATOM     18  N   UNL     1      34.593 -23.090 -17.222  0.00  0.00    -0.284 N 
ATOM     19  C   UNL     1      36.035 -21.770 -18.667  0.00  0.00    -0.005 C 
ATOM     20  C   UNL     1      37.210 -22.152 -17.814  0.00  0.00    +0.037 C 
ATOM     21  C   UNL     1      34.769 -22.286 -18.363  0.00  0.00    +0.046 C 
ATOM     22  C   UNL     1      36.782 -22.384 -16.373  0.00  0.00    +0.090 C 
ATOM     23  C   UNL     1      35.107 -20.722 -20.645  0.00  0.00    +0.138 C 
ATOM     24  C   UNL     1      36.199 -20.992 -19.818  0.00  0.00    +0.034 C 
ATOM     25  C   UNL     1      35.561 -23.275 -16.254  0.00  0.00    +0.226 C 
ATOM     26  C   UNL     1      33.680 -22.034 -19.200  0.00  0.00    +0.017 C 
ATOM     27  C   UNL     1      33.851 -21.244 -20.338  0.00  0.00    +0.038 C 
ATOM     28  H   UNL     1      33.728 -23.548 -17.107  0.00  0.00    +0.155 HD
ENDBRANCH  16  23
ENDBRANCH  15  16
ENDBRANCH   1  15
TORSDOF 7
ENDMDL
MODEL 7
REMARK VINA RESULT:     -10.5      5.902      9.386
REMARK  Name = 2754
REMARK  7 active torsions:
REMARK  status: ('A' for Active; 'I' for Inactive)
REMARK    1  A    between atoms: C_1  and  C_2
REMARK    2  A    between atoms: C_1  and  C_15
REMARK    3  A    between atoms: C_2  and  C_3
REMARK    4  A    between atoms: C_3  and  C_8
REMARK    5  A    between atoms: N_4  and  C_9
REMARK    6  A    between atoms: C_15  and  O_16
REMARK    7  A    between atoms: O_16  and  C_23
REMARK                            x       y       z     vdW  Elec       q    Type
REMARK                         _______ _______ _______ _____ _____    ______ ____
ROOT
ATOM      1  C   UNL     1      34.669 -21.113 -19.877  0.00  0.00    +0.048 C 
ENDROOT
BRANCH   1   2
ATOM      2  C   UNL     1      34.326 -22.586 -19.659  0.00  0.00    +0.012 C 
BRANCH   2   3
ATOM      3  C   UNL     1      33.626 -22.799 -18.314  0.00  0.00    +0.068 C 
BRANCH   3   8
ATOM      4  N   UNL     1      34.262 -23.519 -16.011  0.00  0.00    -0.219 N 
ATOM      5  N   UNL     1      35.356 -23.607 -15.242  0.00  0.00    -0.043 NA
ATOM      6  N   UNL     1      35.889 -22.789 -17.246  0.00  0.00    -0.113 NA
ATOM      7  N   UNL     1      36.348 -23.159 -16.001  0.00  0.00    -0.023 NA
ATOM      8  C   UNL     1      34.621 -23.026 -17.203  0.00  0.00    +0.161 A 
BRANCH   4   9
ATOM      9  C   UNL     1      32.947 -23.931 -15.507  0.00  0.00    +0.108 C 
ATOM     10  C   UNL     1      32.008 -22.734 -15.278  0.00  0.00    +0.024 C 
ATOM     11  C   UNL     1      33.053 -24.815 -14.253  0.00  0.00    +0.024 C 
ATOM     12  C   UNL     1      30.636 -23.190 -14.784  0.00  0.00    +0.002 C 
ATOM     13  C   UNL     1      31.675 -25.257 -13.766  0.00  0.00    +0.002 C 
ATOM     14  C   UNL     1      30.748 -24.065 -13.538  0.00  0.00    +0.000 C 
ENDBRANCH   4   9
ENDBRANCH   3   8
ENDBRANCH   2   3
ENDBRANCH   1   2
BRANCH   1  15
ATOM     15  C   UNL     1      36.088 -20.939 -20.399  0.00  0.00    +0.205 C 
BRANCH  15  16
ATOM     16  O   UNL     1      36.322 -19.554 -20.646  0.00  0.00    -0.475 OA
BRANCH  16  23
ATOM     17  O   UNL     1      33.915 -15.689 -26.782  0.00  0.00    -0.275 OA
ATOM     18  N   UNL     1      34.440 -17.479 -25.443  0.00  0.00    -0.284 N 
ATOM     19  C   UNL     1      35.230 -17.132 -23.169  0.00  0.00    -0.005 C 
ATOM     20  C   UNL     1      34.960 -15.663 -23.319  0.00  0.00    +0.037 C 
ATOM     21  C   UNL     1      34.923 -17.998 -24.227  0.00  0.00    +0.046 C 
ATOM     22  C   UNL     1      35.126 -15.225 -24.766  0.00  0.00    +0.090 C 
ATOM     23  C   UNL     1      35.848 -19.044 -21.815  0.00  0.00    +0.138 C 
ATOM     24  C   UNL     1      35.687 -17.665 -21.960  0.00  0.00    +0.034 C 
ATOM     25  C   UNL     1      34.407 -16.132 -25.745  0.00  0.00    +0.226 C 
ATOM     26  C   UNL     1      35.064 -19.379 -24.078  0.00  0.00    +0.017 C 
ATOM     27  C   UNL     1      35.534 -19.899 -22.871  0.00  0.00    +0.038 C 
ATOM     28  H   UNL     1      34.106 -18.114 -26.117  0.00  0.00    +0.155 HD
ENDBRANCH  16  23
ENDBRANCH  15  16
ENDBRANCH   1  15
TORSDOF 7
ENDMDL
MODEL 8
REMARK VINA RESULT:     -10.5      1.353      2.019
REMARK  Name = 2754
REMARK  7 active torsions:
REMARK  status: ('A' for Active; 'I' for Inactive)
REMARK    1  A    between atoms: C_1  and  C_2
REMARK    2  A    between atoms: C_1  and  C_15
REMARK    3  A    between atoms: C_2  and  C_3
REMARK    4  A    between atoms: C_3  and  C_8
REMARK    5  A    between atoms: N_4  and  C_9
REMARK    6  A    between atoms: C_15  and  O_16
REMARK    7  A    between atoms: O_16  and  C_23
REMARK                            x       y       z     vdW  Elec       q    Type
REMARK                         _______ _______ _______ _____ _____    ______ ____
ROOT
ATOM      1  C   UNL     1      33.118 -14.137 -21.422  0.00  0.00    +0.048 C 
ENDROOT
BRANCH   1   2
ATOM      2  C   UNL     1      33.378 -13.644 -22.844  0.00  0.00    +0.012 C 
BRANCH   2   3
ATOM      3  C   UNL     1      34.581 -14.356 -23.467  0.00  0.00    +0.068 C 
BRANCH   3   8
ATOM      4  N   UNL     1      34.546 -16.184 -25.166  0.00  0.00    -0.219 N 
ATOM      5  N   UNL     1      34.124 -16.395 -26.420  0.00  0.00    -0.043 NA
ATOM      6  N   UNL     1      33.651 -14.310 -25.790  0.00  0.00    -0.113 NA
ATOM      7  N   UNL     1      33.576 -15.246 -26.797  0.00  0.00    -0.023 NA
ATOM      8  C   UNL     1      34.245 -14.925 -24.823  0.00  0.00    +0.161 A 
BRANCH   4   9
ATOM      9  C   UNL     1      35.214 -17.245 -24.403  0.00  0.00    +0.108 C 
ATOM     10  C   UNL     1      34.571 -18.623 -24.633  0.00  0.00    +0.024 C 
ATOM     11  C   UNL     1      35.314 -16.911 -22.904  0.00  0.00    +0.024 C 
ATOM     12  C   UNL     1      35.302 -19.715 -23.854  0.00  0.00    +0.002 C 
ATOM     13  C   UNL     1      36.040 -18.014 -22.137  0.00  0.00    +0.002 C 
ATOM     14  C   UNL     1      35.396 -19.380 -22.368  0.00  0.00    +0.000 C 
ENDBRANCH   4   9
ENDBRANCH   3   8
ENDBRANCH   2   3
ENDBRANCH   1   2
BRANCH   1  15
ATOM     15  C   UNL     1      32.544 -13.037 -20.542  0.00  0.00    +0.205 C 
BRANCH  15  16
ATOM     16  O   UNL     1      31.604 -12.281 -21.303  0.00  0.00    -0.475 OA
BRANCH  16  23
ATOM     17  O   UNL     1      32.317  -4.796 -22.666  0.00  0.00    -0.275 OA
ATOM     18  N   UNL     1      32.311  -6.774 -21.500  0.00  0.00    -0.284 N 
ATOM     19  C   UNL     1      31.865  -8.878 -22.636  0.00  0.00    -0.005 C 
ATOM     20  C   UNL     1      31.872  -8.149 -23.949  0.00  0.00    +0.037 C 
ATOM     21  C   UNL     1      32.125  -8.168 -21.456  0.00  0.00    +0.046 C 
ATOM     22  C   UNL     1      31.400  -6.713 -23.775  0.00  0.00    +0.090 C 
ATOM     23  C   UNL     1      31.791 -10.933 -21.356  0.00  0.00    +0.138 C 
ATOM     24  C   UNL     1      31.705 -10.266 -22.579  0.00  0.00    +0.034 C 
ATOM     25  C   UNL     1      32.080  -6.003 -22.622  0.00  0.00    +0.226 C 
ATOM     26  C   UNL     1      32.231  -8.837 -20.235  0.00  0.00    +0.017 C 
ATOM     27  C   UNL     1      32.055 -10.220 -20.187  0.00  0.00    +0.038 C 
ATOM     28  H   UNL     1      32.625  -6.323 -20.682  0.00  0.00    +0.155 HD
ENDBRANCH  16  23
ENDBRANCH  15  16
ENDBRANCH   1  15
TORSDOF 7
ENDMDL
MODEL 9
REMARK VINA RESULT:     -10.4      5.364      8.854
REMARK  Name = 2754
REMARK  7 active torsions:
REMARK  status: ('A' for Active; 'I' for Inactive)
REMARK    1  A    between atoms: C_1  and  C_2
REMARK    2  A    between atoms: C_1  and  C_15
REMARK    3  A    between atoms: C_2  and  C_3
REMARK    4  A    between atoms: C_3  and  C_8
REMARK    5  A    between atoms: N_4  and  C_9
REMARK    6  A    between atoms: C_15  and  O_16
REMARK    7  A    between atoms: O_16  and  C_23
REMARK                            x       y       z     vdW  Elec       q    Type
REMARK                         _______ _______ _______ _____ _____    ______ ____
ROOT
ATOM      1  C   UNL     1      34.230 -20.541 -20.283  0.00  0.00    +0.048 C 
ENDROOT
BRANCH   1   2
ATOM      2  C   UNL     1      33.469 -21.853 -20.093  0.00  0.00    +0.012 C 
BRANCH   2   3
ATOM      3  C   UNL     1      34.130 -22.727 -19.024  0.00  0.00    +0.068 C 
BRANCH   3   8
ATOM      4  N   UNL     1      33.687 -23.357 -16.650  0.00  0.00    -0.219 N 
ATOM      5  N   UNL     1      32.662 -23.410 -15.789  0.00  0.00    -0.043 NA
ATOM      6  N   UNL     1      31.963 -22.671 -17.773  0.00  0.00    -0.113 NA
ATOM      7  N   UNL     1      31.610 -22.989 -16.480  0.00  0.00    -0.023 NA
ATOM      8  C   UNL     1      33.231 -22.910 -17.827  0.00  0.00    +0.161 A 
BRANCH   4   9
ATOM      9  C   UNL     1      35.041 -23.752 -16.242  0.00  0.00    +0.108 C 
ATOM     10  C   UNL     1      35.029 -24.782 -15.099  0.00  0.00    +0.024 C 
ATOM     11  C   UNL     1      35.924 -22.539 -15.901  0.00  0.00    +0.024 C 
ATOM     12  C   UNL     1      36.446 -25.200 -14.713  0.00  0.00    +0.002 C 
ATOM     13  C   UNL     1      37.336 -22.973 -15.510  0.00  0.00    +0.002 C 
ATOM     14  C   UNL     1      37.317 -23.993 -14.374  0.00  0.00    +0.000 C 
ENDBRANCH   4   9
ENDBRANCH   3   8
ENDBRANCH   2   3
ENDBRANCH   1   2
BRANCH   1  15
ATOM     15  C   UNL     1      35.719 -20.780 -20.484  0.00  0.00    +0.205 C 
BRANCH  15  16
ATOM     16  O   UNL     1      36.326 -19.568 -20.926  0.00  0.00    -0.475 OA
BRANCH  16  23
ATOM     17  O   UNL     1      33.833 -15.441 -26.853  0.00  0.00    -0.275 OA
ATOM     18  N   UNL     1      34.368 -17.287 -25.597  0.00  0.00    -0.284 N 
ATOM     19  C   UNL     1      35.207 -17.038 -23.329  0.00  0.00    -0.005 C 
ATOM     20  C   UNL     1      34.947 -15.562 -23.414  0.00  0.00    +0.037 C 
ATOM     21  C   UNL     1      34.870 -17.858 -24.414  0.00  0.00    +0.046 C 
ATOM     22  C   UNL     1      35.088 -15.068 -24.846  0.00  0.00    +0.090 C 
ATOM     23  C   UNL     1      35.833 -19.008 -22.065  0.00  0.00    +0.138 C 
ATOM     24  C   UNL     1      35.683 -17.623 -22.151  0.00  0.00    +0.034 C 
ATOM     25  C   UNL     1      34.342 -15.929 -25.845  0.00  0.00    +0.226 C 
ATOM     26  C   UNL     1      35.001 -19.245 -24.322  0.00  0.00    +0.017 C 
ATOM     27  C   UNL     1      35.490 -19.817 -23.147  0.00  0.00    +0.038 C 
ATOM     28  H   UNL     1      34.014 -17.892 -26.289  0.00  0.00    +0.155 HD
ENDBRANCH  16  23
ENDBRANCH  15  16
ENDBRANCH   1  15
TORSDOF 7
ENDMDL
