MODEL 1
REMARK VINA RESULT:     -11.6      0.000      0.000
REMARK  Name = 444746
REMARK  6 active torsions:
REMARK  status: ('A' for Active; 'I' for Inactive)
REMARK    1  A    between atoms: C_1  and  C_9
REMARK    2  A    between atoms: C_1  and  N_13
REMARK    3  A    between atoms: C_1  and  C_27
REMARK    4  A    between atoms: C_4  and  O_10
REMARK    5  A    between atoms: C_14  and  C_18
REMARK    6  A    between atoms: C_27  and  C_29
REMARK                            x       y       z     vdW  Elec       q    Type
REMARK                         _______ _______ _______ _____ _____    ______ ____
ROOT
ATOM      1  C   UNL     1      35.306 -22.752 -16.123  0.00  0.00    +0.153 C 
ENDROOT
BRANCH   1   9
ATOM      2  O   UNL     1      37.508 -23.346 -16.765  0.00  0.00    -0.273 OA
ATOM      3  N   UNL     1      36.960 -23.665 -14.530  0.00  0.00    -0.278 N 
ATOM      4  C   UNL     1      37.267 -25.475 -12.296  0.00  0.00    +0.114 C 
ATOM      5  C   UNL     1      38.224 -25.505 -13.489  0.00  0.00    +0.051 C 
ATOM      6  C   UNL     1      35.895 -24.949 -12.716  0.00  0.00    +0.051 C 
ATOM      7  C   UNL     1      38.298 -24.142 -14.170  0.00  0.00    +0.096 C 
ATOM      8  C   UNL     1      36.009 -23.596 -13.413  0.00  0.00    +0.096 C 
ATOM      9  C   UNL     1      36.692 -23.278 -15.843  0.00  0.00    +0.244 C 
BRANCH   4  10
ATOM     10  O   UNL     1      37.114 -26.786 -11.768  0.00  0.00    -0.384 OA
ATOM     11  H   UNL     1      36.251 -26.859 -11.329  0.00  0.00    +0.210 HD
ENDBRANCH   4  10
ENDBRANCH   1   9
BRANCH   1  13
ATOM     12  O   UNL     1      34.634 -23.470 -18.765  0.00  0.00    -0.269 OA
ATOM     13  N   UNL     1      35.487 -21.933 -17.285  0.00  0.00    -0.294 N 
ATOM     14  C   UNL     1      35.128 -22.359 -18.569  0.00  0.00    +0.260 C 
ATOM     15  H   UNL     1      35.879 -21.036 -17.177  0.00  0.00    +0.150 HD
BRANCH  14  18
ATOM     16 CL   UNL     1      35.230 -17.532 -24.525  0.00  0.00    -0.082 Cl
ATOM     17  N   UNL     1      36.516 -20.751 -19.822  0.00  0.00    -0.309 N 
ATOM     18  C   UNL     1      35.345 -21.394 -19.655  0.00  0.00    +0.102 C 
ATOM     19  C   UNL     1      34.455 -21.021 -20.601  0.00  0.00    +0.020 C 
ATOM     20  C   UNL     1      35.121 -20.071 -21.425  0.00  0.00    +0.016 C 
ATOM     21  C   UNL     1      36.412 -19.919 -20.915  0.00  0.00    +0.048 C 
ATOM     22  C   UNL     1      34.748 -19.322 -22.559  0.00  0.00    +0.013 C 
ATOM     23  C   UNL     1      37.353 -19.053 -21.484  0.00  0.00    +0.015 C 
ATOM     24  C   UNL     1      35.678 -18.451 -23.139  0.00  0.00    +0.058 C 
ATOM     25  C   UNL     1      36.959 -18.321 -22.608  0.00  0.00    +0.013 C 
ATOM     26  H   UNL     1      37.315 -20.858 -19.257  0.00  0.00    +0.152 HD
ENDBRANCH  14  18
ENDBRANCH   1  13
BRANCH   1  27
ATOM     27  C   UNL     1      34.340 -23.908 -16.345  0.00  0.00    +0.055 C 
BRANCH  27  29
ATOM     28  F   UNL     1      29.074 -22.577 -14.896  0.00  0.00    -0.204 F 
ATOM     29  C   UNL     1      32.927 -23.551 -15.956  0.00  0.00    -0.020 C 
ATOM     30  C   UNL     1      32.555 -23.602 -14.622  0.00  0.00    -0.002 C 
ATOM     31  C   UNL     1      32.024 -23.178 -16.941  0.00  0.00    -0.002 C 
ATOM     32  C   UNL     1      31.248 -23.273 -14.262  0.00  0.00    +0.029 C 
ATOM     33  C   UNL     1      30.717 -22.848 -16.581  0.00  0.00    +0.029 C 
ATOM     34  C   UNL     1      30.329 -22.896 -15.242  0.00  0.00    +0.140 C 
ENDBRANCH  27  29
ENDBRANCH   1  27
TORSDOF 6
ENDMDL
MODEL 2
REMARK VINA RESULT:     -11.3      2.853      4.768
REMARK  Name = 444746
REMARK  6 active torsions:
REMARK  status: ('A' for Active; 'I' for Inactive)
REMARK    1  A    between atoms: C_1  and  C_9
REMARK    2  A    between atoms: C_1  and  N_13
REMARK    3  A    between atoms: C_1  and  C_27
REMARK    4  A    between atoms: C_4  and  O_10
REMARK    5  A    between atoms: C_14  and  C_18
REMARK    6  A    between atoms: C_27  and  C_29
REMARK                            x       y       z     vdW  Elec       q    Type
REMARK                         _______ _______ _______ _____ _____    ______ ____
ROOT
ATOM      1  C   UNL     1      34.092 -23.433 -16.977  0.00  0.00    +0.153 C 
ENDROOT
BRANCH   1   9
ATOM      2  O   UNL     1      32.035 -22.427 -17.590  0.00  0.00    -0.273 OA
ATOM      3  N   UNL     1      31.921 -24.160 -16.047  0.00  0.00    -0.278 N 
ATOM      4  C   UNL     1      30.620 -25.025 -13.612  0.00  0.00    +0.114 C 
ATOM      5  C   UNL     1      30.008 -23.947 -14.509  0.00  0.00    +0.051 C 
ATOM      6  C   UNL     1      32.141 -25.049 -13.758  0.00  0.00    +0.051 C 
ATOM      7  C   UNL     1      30.460 -24.113 -15.957  0.00  0.00    +0.096 C 
ATOM      8  C   UNL     1      32.557 -25.194 -15.219  0.00  0.00    +0.096 C 
ATOM      9  C   UNL     1      32.592 -23.289 -16.905  0.00  0.00    +0.244 C 
BRANCH   4  10
ATOM     10  O   UNL     1      30.294 -24.763 -12.254  0.00  0.00    -0.384 OA
ATOM     11  H   UNL     1      30.347 -25.587 -11.744  0.00  0.00    +0.210 HD
ENDBRANCH   4  10
ENDBRANCH   1   9
BRANCH   1  13
ATOM     12  O   UNL     1      34.279 -23.788 -19.768  0.00  0.00    -0.269 OA
ATOM     13  N   UNL     1      34.479 -22.430 -17.925  0.00  0.00    -0.294 N 
ATOM     14  C   UNL     1      34.550 -22.681 -19.300  0.00  0.00    +0.260 C 
ATOM     15  H   UNL     1      34.705 -21.529 -17.598  0.00  0.00    +0.150 HD
BRANCH  14  18
ATOM     16 CL   UNL     1      35.498 -16.724 -24.032  0.00  0.00    -0.082 Cl
ATOM     17  N   UNL     1      36.190 -21.065 -20.184  0.00  0.00    -0.309 N 
ATOM     18  C   UNL     1      34.932 -21.544 -20.147  0.00  0.00    +0.102 C 
ATOM     19  C   UNL     1      34.127 -20.839 -20.973  0.00  0.00    +0.020 C 
ATOM     20  C   UNL     1      34.945 -19.842 -21.574  0.00  0.00    +0.016 C 
ATOM     21  C   UNL     1      36.234 -20.005 -21.062  0.00  0.00    +0.048 C 
ATOM     22  C   UNL     1      34.712 -18.812 -22.508  0.00  0.00    +0.013 C 
ATOM     23  C   UNL     1      37.306 -19.188 -21.438  0.00  0.00    +0.015 C 
ATOM     24  C   UNL     1      35.774 -17.985 -22.892  0.00  0.00    +0.058 C 
ATOM     25  C   UNL     1      37.050 -18.173 -22.365  0.00  0.00    +0.013 C 
ATOM     26  H   UNL     1      36.952 -21.415 -19.669  0.00  0.00    +0.152 HD
ENDBRANCH  14  18
ENDBRANCH   1  13
BRANCH   1  27
ATOM     27  C   UNL     1      34.706 -23.228 -15.599  0.00  0.00    +0.055 C 
BRANCH  27  29
ATOM     28  F   UNL     1      39.548 -26.021 -15.002  0.00  0.00    -0.204 F 
ATOM     29  C   UNL     1      36.005 -23.978 -15.439  0.00  0.00    -0.020 C 
ATOM     30  C   UNL     1      35.978 -25.333 -15.150  0.00  0.00    -0.002 C 
ATOM     31  C   UNL     1      37.205 -23.298 -15.583  0.00  0.00    -0.002 C 
ATOM     32  C   UNL     1      37.179 -26.026 -15.000  0.00  0.00    +0.029 C 
ATOM     33  C   UNL     1      38.407 -23.991 -15.434  0.00  0.00    +0.029 C 
ATOM     34  C   UNL     1      38.394 -25.355 -15.143  0.00  0.00    +0.140 C 
ENDBRANCH  27  29
ENDBRANCH   1  27
TORSDOF 6
ENDMDL
MODEL 3
REMARK VINA RESULT:     -11.3     11.571     15.197
REMARK  Name = 444746
REMARK  6 active torsions:
REMARK  status: ('A' for Active; 'I' for Inactive)
REMARK    1  A    between atoms: C_1  and  C_9
REMARK    2  A    between atoms: C_1  and  N_13
REMARK    3  A    between atoms: C_1  and  C_27
REMARK    4  A    between atoms: C_4  and  O_10
REMARK    5  A    between atoms: C_14  and  C_18
REMARK    6  A    between atoms: C_27  and  C_29
REMARK                            x       y       z     vdW  Elec       q    Type
REMARK                         _______ _______ _______ _____ _____    ______ ____
ROOT
ATOM      1  C   UNL     1      32.929  -8.428 -23.239  0.00  0.00    +0.153 C 
ENDROOT
BRANCH   1   9
ATOM      2  O   UNL     1      33.413  -7.582 -21.079  0.00  0.00    -0.273 OA
ATOM      3  N   UNL     1      32.079  -9.481 -21.172  0.00  0.00    -0.278 N 
ATOM      4  C   UNL     1      31.581 -12.037 -19.912  0.00  0.00    +0.114 C 
ATOM      5  C   UNL     1      32.312 -10.911 -19.178  0.00  0.00    +0.051 C 
ATOM      6  C   UNL     1      31.778 -11.915 -21.423  0.00  0.00    +0.051 C 
ATOM      7  C   UNL     1      31.901  -9.545 -19.719  0.00  0.00    +0.096 C 
ATOM      8  C   UNL     1      31.379 -10.530 -21.925  0.00  0.00    +0.096 C 
ATOM      9  C   UNL     1      32.833  -8.452 -21.734  0.00  0.00    +0.244 C 
BRANCH   4  10
ATOM     10  O   UNL     1      32.084 -13.296 -19.485  0.00  0.00    -0.384 OA
ATOM     11  H   UNL     1      33.048 -13.315 -19.597  0.00  0.00    +0.210 HD
ENDBRANCH   4  10
ENDBRANCH   1   9
BRANCH   1  13
ATOM     12  O   UNL     1      35.231  -9.618 -24.350  0.00  0.00    -0.269 OA
ATOM     13  N   UNL     1      33.072  -9.812 -23.587  0.00  0.00    -0.294 N 
ATOM     14  C   UNL     1      34.249 -10.331 -24.137  0.00  0.00    +0.260 C 
ATOM     15  H   UNL     1      32.313 -10.420 -23.435  0.00  0.00    +0.150 HD
BRANCH  14  18
ATOM     16 CL   UNL     1      34.671 -17.975 -24.560  0.00  0.00    -0.082 Cl
ATOM     17  N   UNL     1      33.828 -12.285 -25.582  0.00  0.00    -0.309 N 
ATOM     18  C   UNL     1      34.254 -11.775 -24.411  0.00  0.00    +0.102 C 
ATOM     19  C   UNL     1      34.660 -12.759 -23.579  0.00  0.00    +0.020 C 
ATOM     20  C   UNL     1      34.474 -13.981 -24.284  0.00  0.00    +0.016 C 
ATOM     21  C   UNL     1      33.951 -13.656 -25.538  0.00  0.00    +0.048 C 
ATOM     22  C   UNL     1      34.701 -15.337 -23.976  0.00  0.00    +0.013 C 
ATOM     23  C   UNL     1      33.643 -14.622 -26.502  0.00  0.00    +0.015 C 
ATOM     24  C   UNL     1      34.397 -16.315 -24.929  0.00  0.00    +0.058 C 
ATOM     25  C   UNL     1      33.877 -15.960 -26.172  0.00  0.00    +0.013 C 
ATOM     26  H   UNL     1      33.485 -11.765 -26.344  0.00  0.00    +0.152 HD
ENDBRANCH  14  18
ENDBRANCH   1  13
BRANCH   1  27
ATOM     27  C   UNL     1      31.686  -7.782 -23.835  0.00  0.00    +0.055 C 
BRANCH  27  29
ATOM     28  F   UNL     1      32.321  -2.245 -24.567  0.00  0.00    -0.204 F 
ATOM     29  C   UNL     1      31.856  -6.296 -24.032  0.00  0.00    -0.020 C 
ATOM     30  C   UNL     1      32.731  -5.835 -25.002  0.00  0.00    -0.002 C 
ATOM     31  C   UNL     1      31.134  -5.418 -23.237  0.00  0.00    -0.002 C 
ATOM     32  C   UNL     1      32.890  -4.461 -25.183  0.00  0.00    +0.029 C 
ATOM     33  C   UNL     1      31.292  -4.044 -23.419  0.00  0.00    +0.029 C 
ATOM     34  C   UNL     1      32.170  -3.565 -24.392  0.00  0.00    +0.140 C 
ENDBRANCH  27  29
ENDBRANCH   1  27
TORSDOF 6
ENDMDL
MODEL 4
REMARK VINA RESULT:     -11.0      1.217      1.554
REMARK  Name = 444746
REMARK  6 active torsions:
REMARK  status: ('A' for Active; 'I' for Inactive)
REMARK    1  A    between atoms: C_1  and  C_9
REMARK    2  A    between atoms: C_1  and  N_13
REMARK    3  A    between atoms: C_1  and  C_27
REMARK    4  A    between atoms: C_4  and  O_10
REMARK    5  A    between atoms: C_14  and  C_18
REMARK    6  A    between atoms: C_27  and  C_29
REMARK                            x       y       z     vdW  Elec       q    Type
REMARK                         _______ _______ _______ _____ _____    ______ ____
ROOT
ATOM      1  C   UNL     1      34.352 -23.807 -15.845  0.00  0.00    +0.153 C 
ENDROOT
BRANCH   1   9
ATOM      2  O   UNL     1      35.632 -25.719 -16.412  0.00  0.00    -0.273 OA
ATOM      3  N   UNL     1      36.529 -24.316 -14.792  0.00  0.00    -0.278 N 
ATOM      4  C   UNL     1      37.944 -24.282 -12.270  0.00  0.00    +0.114 C 
ATOM      5  C   UNL     1      37.967 -25.508 -13.186  0.00  0.00    +0.051 C 
ATOM      6  C   UNL     1      36.663 -23.475 -12.479  0.00  0.00    +0.051 C 
ATOM      7  C   UNL     1      37.751 -25.111 -14.642  0.00  0.00    +0.096 C 
ATOM      8  C   UNL     1      36.468 -23.114 -13.949  0.00  0.00    +0.096 C 
ATOM      9  C   UNL     1      35.558 -24.704 -15.715  0.00  0.00    +0.244 C 
BRANCH   4  10
ATOM     10  O   UNL     1      38.010 -24.694 -10.911  0.00  0.00    -0.384 OA
ATOM     11  H   UNL     1      37.964 -25.663 -10.864  0.00  0.00    +0.210 HD
ENDBRANCH   4  10
ENDBRANCH   1   9
BRANCH   1  13
ATOM     12  O   UNL     1      33.860 -24.140 -18.601  0.00  0.00    -0.269 OA
ATOM     13  N   UNL     1      34.727 -22.888 -16.880  0.00  0.00    -0.294 N 
ATOM     14  C   UNL     1      34.448 -23.122 -18.231  0.00  0.00    +0.260 C 
ATOM     15  H   UNL     1      35.200 -22.061 -16.632  0.00  0.00    +0.150 HD
BRANCH  14  18
ATOM     16 CL   UNL     1      35.596 -17.632 -23.458  0.00  0.00    -0.082 Cl
ATOM     17  N   UNL     1      36.136 -21.626 -19.228  0.00  0.00    -0.309 N 
ATOM     18  C   UNL     1      34.867 -22.073 -19.170  0.00  0.00    +0.102 C 
ATOM     19  C   UNL     1      34.091 -21.429 -20.068  0.00  0.00    +0.020 C 
ATOM     20  C   UNL     1      34.939 -20.506 -20.742  0.00  0.00    +0.016 C 
ATOM     21  C   UNL     1      36.217 -20.649 -20.196  0.00  0.00    +0.048 C 
ATOM     22  C   UNL     1      34.742 -19.559 -21.767  0.00  0.00    +0.013 C 
ATOM     23  C   UNL     1      37.312 -19.892 -20.626  0.00  0.00    +0.015 C 
ATOM     24  C   UNL     1      35.828 -18.792 -22.206  0.00  0.00    +0.058 C 
ATOM     25  C   UNL     1      37.091 -18.958 -21.643  0.00  0.00    +0.013 C 
ATOM     26  H   UNL     1      36.883 -21.944 -18.672  0.00  0.00    +0.152 HD
ENDBRANCH  14  18
ENDBRANCH   1  13
BRANCH   1  27
ATOM     27  C   UNL     1      33.119 -24.631 -16.189  0.00  0.00    +0.055 C 
BRANCH  27  29
ATOM     28  F   UNL     1      28.351 -21.926 -14.946  0.00  0.00    -0.204 F 
ATOM     29  C   UNL     1      31.839 -23.906 -15.856  0.00  0.00    -0.020 C 
ATOM     30  C   UNL     1      31.083 -23.355 -16.878  0.00  0.00    -0.002 C 
ATOM     31  C   UNL     1      31.442 -23.801 -14.531  0.00  0.00    -0.002 C 
ATOM     32  C   UNL     1      29.901 -22.683 -16.570  0.00  0.00    +0.029 C 
ATOM     33  C   UNL     1      30.258 -23.130 -14.222  0.00  0.00    +0.029 C 
ATOM     34  C   UNL     1      29.488 -22.570 -15.242  0.00  0.00    +0.140 C 
ENDBRANCH  27  29
ENDBRANCH   1  27
TORSDOF 6
ENDMDL
MODEL 5
REMARK VINA RESULT:     -10.2      3.101      5.275
REMARK  Name = 444746
REMARK  6 active torsions:
REMARK  status: ('A' for Active; 'I' for Inactive)
REMARK    1  A    between atoms: C_1  and  C_9
REMARK    2  A    between atoms: C_1  and  N_13
REMARK    3  A    between atoms: C_1  and  C_27
REMARK    4  A    between atoms: C_4  and  O_10
REMARK    5  A    between atoms: C_14  and  C_18
REMARK    6  A    between atoms: C_27  and  C_29
REMARK                            x       y       z     vdW  Elec       q    Type
REMARK                         _______ _______ _______ _____ _____    ______ ____
ROOT
ATOM      1  C   UNL     1      33.776 -23.519 -15.561  0.00  0.00    +0.153 C 
ENDROOT
BRANCH   1   9
ATOM      2  O   UNL     1      32.456 -21.809 -14.586  0.00  0.00    -0.273 OA
ATOM      3  N   UNL     1      31.307 -23.585 -15.547  0.00  0.00    -0.278 N 
ATOM      4  C   UNL     1      29.040 -25.349 -15.200  0.00  0.00    +0.114 C 
ATOM      5  C   UNL     1      29.126 -24.002 -14.479  0.00  0.00    +0.051 C 
ATOM      6  C   UNL     1      30.438 -25.891 -15.499  0.00  0.00    +0.051 C 
ATOM      7  C   UNL     1      29.988 -23.014 -15.258  0.00  0.00    +0.096 C 
ATOM      8  C   UNL     1      31.279 -24.870 -16.259  0.00  0.00    +0.096 C 
ATOM      9  C   UNL     1      32.459 -22.888 -15.185  0.00  0.00    +0.244 C 
BRANCH   4  10
ATOM     10  O   UNL     1      28.349 -26.288 -14.387  0.00  0.00    -0.384 OA
ATOM     11  H   UNL     1      27.902 -26.938 -14.952  0.00  0.00    +0.210 HD
ENDBRANCH   4  10
ENDBRANCH   1   9
BRANCH   1  13
ATOM     12  O   UNL     1      33.845 -24.218 -18.291  0.00  0.00    -0.269 OA
ATOM     13  N   UNL     1      34.254 -22.688 -16.627  0.00  0.00    -0.294 N 
ATOM     14  C   UNL     1      34.257 -23.105 -17.962  0.00  0.00    +0.260 C 
ATOM     15  H   UNL     1      34.594 -21.789 -16.412  0.00  0.00    +0.150 HD
BRANCH  14  18
ATOM     16 CL   UNL     1      35.797 -17.989 -23.462  0.00  0.00    -0.082 Cl
ATOM     17  N   UNL     1      36.031 -21.720 -18.972  0.00  0.00    -0.309 N 
ATOM     18  C   UNL     1      34.748 -22.129 -18.944  0.00  0.00    +0.102 C 
ATOM     19  C   UNL     1      34.032 -21.522 -19.915  0.00  0.00    +0.020 C 
ATOM     20  C   UNL     1      34.936 -20.667 -20.606  0.00  0.00    +0.016 C 
ATOM     21  C   UNL     1      36.183 -20.810 -19.994  0.00  0.00    +0.048 C 
ATOM     22  C   UNL     1      34.813 -19.781 -21.695  0.00  0.00    +0.013 C 
ATOM     23  C   UNL     1      37.318 -20.111 -20.420  0.00  0.00    +0.015 C 
ATOM     24  C   UNL     1      35.939 -19.073 -22.131  0.00  0.00    +0.058 C 
ATOM     25  C   UNL     1      37.171 -19.238 -21.502  0.00  0.00    +0.013 C 
ATOM     26  H   UNL     1      36.743 -22.023 -18.364  0.00  0.00    +0.152 HD
ENDBRANCH  14  18
ENDBRANCH   1  13
BRANCH   1  27
ATOM     27  C   UNL     1      34.708 -23.548 -14.356  0.00  0.00    +0.055 C 
BRANCH  27  29
ATOM     28  F   UNL     1      39.264 -26.709 -15.275  0.00  0.00    -0.204 F 
ATOM     29  C   UNL     1      35.930 -24.396 -14.603  0.00  0.00    -0.020 C 
ATOM     30  C   UNL     1      35.784 -25.651 -15.172  0.00  0.00    -0.002 C 
ATOM     31  C   UNL     1      37.180 -23.905 -14.255  0.00  0.00    -0.002 C 
ATOM     32  C   UNL     1      36.914 -26.436 -15.399  0.00  0.00    +0.029 C 
ATOM     33  C   UNL     1      38.311 -24.690 -14.483  0.00  0.00    +0.029 C 
ATOM     34  C   UNL     1      38.178 -25.956 -15.055  0.00  0.00    +0.140 C 
ENDBRANCH  27  29
ENDBRANCH   1  27
TORSDOF 6
ENDMDL
MODEL 6
REMARK VINA RESULT:      -9.4      4.149      7.884
REMARK  Name = 444746
REMARK  6 active torsions:
REMARK  status: ('A' for Active; 'I' for Inactive)
REMARK    1  A    between atoms: C_1  and  C_9
REMARK    2  A    between atoms: C_1  and  N_13
REMARK    3  A    between atoms: C_1  and  C_27
REMARK    4  A    between atoms: C_4  and  O_10
REMARK    5  A    between atoms: C_14  and  C_18
REMARK    6  A    between atoms: C_27  and  C_29
REMARK                            x       y       z     vdW  Elec       q    Type
REMARK                         _______ _______ _______ _____ _____    ______ ____
ROOT
ATOM      1  C   UNL     1      33.612 -23.270 -16.546  0.00  0.00    +0.153 C 
ENDROOT
BRANCH   1   9
ATOM      2  O   UNL     1      33.075 -24.956 -14.970  0.00  0.00    -0.273 OA
ATOM      3  N   UNL     1      31.357 -23.512 -15.565  0.00  0.00    -0.278 N 
ATOM      4  C   UNL     1      28.535 -23.386 -16.190  0.00  0.00    +0.114 C 
ATOM      5  C   UNL     1      29.131 -24.556 -15.405  0.00  0.00    +0.051 C 
ATOM      6  C   UNL     1      29.587 -22.760 -17.107  0.00  0.00    +0.051 C 
ATOM      7  C   UNL     1      30.390 -24.131 -14.655  0.00  0.00    +0.096 C 
ATOM      8  C   UNL     1      30.839 -22.368 -16.328  0.00  0.00    +0.096 C 
ATOM      9  C   UNL     1      32.664 -23.993 -15.621  0.00  0.00    +0.244 C 
BRANCH   4  10
ATOM     10  O   UNL     1      27.448 -23.843 -16.985  0.00  0.00    -0.384 OA
ATOM     11  H   UNL     1      26.658 -23.315 -16.786  0.00  0.00    +0.210 HD
ENDBRANCH   4  10
ENDBRANCH   1   9
BRANCH   1  13
ATOM     12  O   UNL     1      35.705 -22.031 -15.121  0.00  0.00    -0.269 OA
ATOM     13  N   UNL     1      34.885 -23.858 -16.248  0.00  0.00    -0.294 N 
ATOM     14  C   UNL     1      35.878 -23.179 -15.533  0.00  0.00    +0.260 C 
ATOM     15  H   UNL     1      35.069 -24.774 -16.558  0.00  0.00    +0.150 HD
BRANCH  14  18
ATOM     16 CL   UNL     1      41.769 -27.631 -13.468  0.00  0.00    -0.082 Cl
ATOM     17  N   UNL     1      38.258 -23.676 -15.950  0.00  0.00    -0.309 N 
ATOM     18  C   UNL     1      37.118 -23.926 -15.280  0.00  0.00    +0.102 C 
ATOM     19  C   UNL     1      37.297 -24.924 -14.387  0.00  0.00    +0.020 C 
ATOM     20  C   UNL     1      38.655 -25.330 -14.507  0.00  0.00    +0.016 C 
ATOM     21  C   UNL     1      39.236 -24.532 -15.495  0.00  0.00    +0.048 C 
ATOM     22  C   UNL     1      39.450 -26.304 -13.869  0.00  0.00    +0.013 C 
ATOM     23  C   UNL     1      40.576 -24.658 -15.878  0.00  0.00    +0.015 C 
ATOM     24  C   UNL     1      40.792 -26.443 -14.243  0.00  0.00    +0.058 C 
ATOM     25  C   UNL     1      41.343 -25.631 -15.231  0.00  0.00    +0.013 C 
ATOM     26  H   UNL     1      38.374 -22.994 -16.651  0.00  0.00    +0.152 HD
ENDBRANCH  14  18
ENDBRANCH   1  13
BRANCH   1  27
ATOM     27  C   UNL     1      33.182 -23.465 -17.994  0.00  0.00    +0.055 C 
BRANCH  27  29
ATOM     28  F   UNL     1      35.434 -19.608 -21.408  0.00  0.00    -0.204 F 
ATOM     29  C   UNL     1      33.786 -22.430 -18.910  0.00  0.00    -0.020 C 
ATOM     30  C   UNL     1      32.955 -21.551 -19.585  0.00  0.00    -0.002 C 
ATOM     31  C   UNL     1      35.164 -22.376 -19.061  0.00  0.00    -0.002 C 
ATOM     32  C   UNL     1      33.513 -20.594 -20.434  0.00  0.00    +0.029 C 
ATOM     33  C   UNL     1      35.723 -21.419 -19.909  0.00  0.00    +0.029 C 
ATOM     34  C   UNL     1      34.897 -20.529 -20.595  0.00  0.00    +0.140 C 
ENDBRANCH  27  29
ENDBRANCH   1  27
TORSDOF 6
ENDMDL
MODEL 7
REMARK VINA RESULT:      -9.4     10.116     13.180
REMARK  Name = 444746
REMARK  6 active torsions:
REMARK  status: ('A' for Active; 'I' for Inactive)
REMARK    1  A    between atoms: C_1  and  C_9
REMARK    2  A    between atoms: C_1  and  N_13
REMARK    3  A    between atoms: C_1  and  C_27
REMARK    4  A    between atoms: C_4  and  O_10
REMARK    5  A    between atoms: C_14  and  C_18
REMARK    6  A    between atoms: C_27  and  C_29
REMARK                            x       y       z     vdW  Elec       q    Type
REMARK                         _______ _______ _______ _____ _____    ______ ____
ROOT
ATOM      1  C   UNL     1      33.910 -13.293 -22.834  0.00  0.00    +0.153 C 
ENDROOT
BRANCH   1   9
ATOM      2  O   UNL     1      32.499 -13.402 -24.734  0.00  0.00    -0.273 OA
ATOM      3  N   UNL     1      34.221 -14.956 -24.634  0.00  0.00    -0.278 N 
ATOM      4  C   UNL     1      34.887 -17.726 -25.137  0.00  0.00    +0.114 C 
ATOM      5  C   UNL     1      33.682 -17.058 -25.801  0.00  0.00    +0.051 C 
ATOM      6  C   UNL     1      35.208 -17.056 -23.801  0.00  0.00    +0.051 C 
ATOM      7  C   UNL     1      33.889 -15.552 -25.931  0.00  0.00    +0.096 C 
ATOM      8  C   UNL     1      35.387 -15.549 -23.964  0.00  0.00    +0.096 C 
ATOM      9  C   UNL     1      33.475 -13.882 -24.153  0.00  0.00    +0.244 C 
BRANCH   4  10
ATOM     10  O   UNL     1      34.609 -19.101 -24.905  0.00  0.00    -0.384 OA
ATOM     11  H   UNL     1      33.933 -19.182 -24.213  0.00  0.00    +0.210 HD
ENDBRANCH   4  10
ENDBRANCH   1   9
BRANCH   1  13
ATOM     12  O   UNL     1      35.094 -11.543 -24.700  0.00  0.00    -0.269 OA
ATOM     13  N   UNL     1      33.616 -11.897 -22.976  0.00  0.00    -0.294 N 
ATOM     14  C   UNL     1      34.247 -11.089 -23.929  0.00  0.00    +0.260 C 
ATOM     15  H   UNL     1      32.945 -11.490 -22.381  0.00  0.00    +0.150 HD
BRANCH  14  18
ATOM     16 CL   UNL     1      31.002  -4.143 -23.938  0.00  0.00    -0.082 Cl
ATOM     17  N   UNL     1      34.673  -8.678 -24.224  0.00  0.00    -0.309 N 
ATOM     18  C   UNL     1      33.816  -9.686 -23.975  0.00  0.00    +0.102 C 
ATOM     19  C   UNL     1      32.565  -9.213 -23.782  0.00  0.00    +0.020 C 
ATOM     20  C   UNL     1      32.645  -7.799 -23.923  0.00  0.00    +0.016 C 
ATOM     21  C   UNL     1      33.979  -7.489 -24.200  0.00  0.00    +0.048 C 
ATOM     22  C   UNL     1      31.709  -6.749 -23.841  0.00  0.00    +0.013 C 
ATOM     23  C   UNL     1      34.424  -6.178 -24.400  0.00  0.00    +0.015 C 
ATOM     24  C   UNL     1      32.140  -5.432 -24.037  0.00  0.00    +0.058 C 
ATOM     25  C   UNL     1      33.477  -5.154 -24.313  0.00  0.00    +0.013 C 
ATOM     26  H   UNL     1      35.638  -8.774 -24.397  0.00  0.00    +0.152 HD
ENDBRANCH  14  18
ENDBRANCH   1  13
BRANCH   1  27
ATOM     27  C   UNL     1      33.155 -13.954 -21.688  0.00  0.00    +0.055 C 
BRANCH  27  29
ATOM     28  F   UNL     1      30.015 -10.277 -18.822  0.00  0.00    -0.204 F 
ATOM     29  C   UNL     1      32.312 -12.967 -20.919  0.00  0.00    -0.020 C 
ATOM     30  C   UNL     1      31.396 -12.180 -21.598  0.00  0.00    -0.002 C 
ATOM     31  C   UNL     1      32.469 -12.865 -19.545  0.00  0.00    -0.002 C 
ATOM     32  C   UNL     1      30.618 -11.266 -20.888  0.00  0.00    +0.029 C 
ATOM     33  C   UNL     1      31.689 -11.952 -18.833  0.00  0.00    +0.029 C 
ATOM     34  C   UNL     1      30.765 -11.152 -19.505  0.00  0.00    +0.140 C 
ENDBRANCH  27  29
ENDBRANCH   1  27
TORSDOF 6
ENDMDL
MODEL 8
REMARK VINA RESULT:      -9.2      2.373      4.129
REMARK  Name = 444746
REMARK  6 active torsions:
REMARK  status: ('A' for Active; 'I' for Inactive)
REMARK    1  A    between atoms: C_1  and  C_9
REMARK    2  A    between atoms: C_1  and  N_13
REMARK    3  A    between atoms: C_1  and  C_27
REMARK    4  A    between atoms: C_4  and  O_10
REMARK    5  A    between atoms: C_14  and  C_18
REMARK    6  A    between atoms: C_27  and  C_29
REMARK                            x       y       z     vdW  Elec       q    Type
REMARK                         _______ _______ _______ _____ _____    ______ ____
ROOT
ATOM      1  C   UNL     1      35.359 -23.487 -16.460  0.00  0.00    +0.153 C 
ENDROOT
BRANCH   1   9
ATOM      2  O   UNL     1      35.041 -21.693 -14.945  0.00  0.00    -0.273 OA
ATOM      3  N   UNL     1      33.233 -23.118 -15.257  0.00  0.00    -0.278 N 
ATOM      4  C   UNL     1      31.083 -24.483 -13.886  0.00  0.00    +0.114 C 
ATOM      5  C   UNL     1      31.776 -23.263 -13.276  0.00  0.00    +0.051 C 
ATOM      6  C   UNL     1      32.028 -25.225 -14.830  0.00  0.00    +0.051 C 
ATOM      7  C   UNL     1      32.357 -22.360 -14.360  0.00  0.00    +0.096 C 
ATOM      8  C   UNL     1      32.607 -24.289 -15.886  0.00  0.00    +0.096 C 
ATOM      9  C   UNL     1      34.537 -22.680 -15.486  0.00  0.00    +0.244 C 
BRANCH   4  10
ATOM     10  O   UNL     1      30.674 -25.371 -12.854  0.00  0.00    -0.384 OA
ATOM     11  H   UNL     1      29.766 -25.159 -12.585  0.00  0.00    +0.210 HD
ENDBRANCH   4  10
ENDBRANCH   1   9
BRANCH   1  13
ATOM     12  O   UNL     1      33.842 -23.397 -18.835  0.00  0.00    -0.269 OA
ATOM     13  N   UNL     1      35.567 -22.582 -17.553  0.00  0.00    -0.294 N 
ATOM     14  C   UNL     1      34.770 -22.598 -18.704  0.00  0.00    +0.260 C 
ATOM     15  H   UNL     1      36.298 -21.926 -17.493  0.00  0.00    +0.150 HD
BRANCH  14  18
ATOM     16 CL   UNL     1      35.401 -17.479 -24.377  0.00  0.00    -0.082 Cl
ATOM     17  N   UNL     1      36.289 -20.986 -19.790  0.00  0.00    -0.309 N 
ATOM     18  C   UNL     1      35.087 -21.588 -19.723  0.00  0.00    +0.102 C 
ATOM     19  C   UNL     1      34.268 -21.131 -20.695  0.00  0.00    +0.020 C 
ATOM     20  C   UNL     1      35.016 -20.167 -21.429  0.00  0.00    +0.016 C 
ATOM     21  C   UNL     1      36.280 -20.095 -20.840  0.00  0.00    +0.048 C 
ATOM     22  C   UNL     1      34.738 -19.347 -22.540  0.00  0.00    +0.013 C 
ATOM     23  C   UNL     1      37.285 -19.241 -21.309  0.00  0.00    +0.015 C 
ATOM     24  C   UNL     1      35.732 -18.486 -23.020  0.00  0.00    +0.058 C 
ATOM     25  C   UNL     1      36.985 -18.437 -22.412  0.00  0.00    +0.013 C 
ATOM     26  H   UNL     1      37.050 -21.154 -19.188  0.00  0.00    +0.152 HD
ENDBRANCH  14  18
ENDBRANCH   1  13
BRANCH   1  27
ATOM     27  C   UNL     1      36.655 -23.944 -15.802  0.00  0.00    +0.055 C 
BRANCH  27  29
ATOM     28  F   UNL     1      36.218 -24.179 -10.203  0.00  0.00    -0.204 F 
ATOM     29  C   UNL     1      36.537 -24.007 -14.300  0.00  0.00    -0.020 C 
ATOM     30  C   UNL     1      37.360 -23.211 -13.519  0.00  0.00    -0.002 C 
ATOM     31  C   UNL     1      35.608 -24.861 -13.725  0.00  0.00    -0.002 C 
ATOM     32  C   UNL     1      37.253 -23.270 -12.130  0.00  0.00    +0.029 C 
ATOM     33  C   UNL     1      35.499 -24.920 -12.335  0.00  0.00    +0.029 C 
ATOM     34  C   UNL     1      36.323 -24.124 -11.538  0.00  0.00    +0.140 C 
ENDBRANCH  27  29
ENDBRANCH   1  27
TORSDOF 6
ENDMDL
MODEL 9
REMARK VINA RESULT:      -9.2     10.742     14.176
REMARK  Name = 444746
REMARK  6 active torsions:
REMARK  status: ('A' for Active; 'I' for Inactive)
REMARK    1  A    between atoms: C_1  and  C_9
REMARK    2  A    between atoms: C_1  and  N_13
REMARK    3  A    between atoms: C_1  and  C_27
REMARK    4  A    between atoms: C_4  and  O_10
REMARK    5  A    between atoms: C_14  and  C_18
REMARK    6  A    between atoms: C_27  and  C_29
REMARK                            x       y       z     vdW  Elec       q    Type
REMARK                         _______ _______ _______ _____ _____    ______ ____
ROOT
ATOM      1  C   UNL     1      33.277 -11.066 -23.052  0.00  0.00    +0.153 C 
ENDROOT
BRANCH   1   9
ATOM      2  O   UNL     1      33.343 -11.933 -25.256  0.00  0.00    -0.273 OA
ATOM      3  N   UNL     1      34.523 -13.116 -23.643  0.00  0.00    -0.278 N 
ATOM      4  C   UNL     1      35.166 -15.781 -22.719  0.00  0.00    +0.114 C 
ATOM      5  C   UNL     1      34.681 -15.523 -24.147  0.00  0.00    +0.051 C 
ATOM      6  C   UNL     1      34.635 -14.710 -21.766  0.00  0.00    +0.051 C 
ATOM      7  C   UNL     1      35.025 -14.107 -24.599  0.00  0.00    +0.096 C 
ATOM      8  C   UNL     1      34.979 -13.308 -22.260  0.00  0.00    +0.096 C 
ATOM      9  C   UNL     1      33.713 -12.072 -24.088  0.00  0.00    +0.244 C 
BRANCH   4  10
ATOM     10  O   UNL     1      34.712 -17.054 -22.278  0.00  0.00    -0.384 OA
ATOM     11  H   UNL     1      35.071 -17.237 -21.395  0.00  0.00    +0.210 HD
ENDBRANCH   4  10
ENDBRANCH   1   9
BRANCH   1  13
ATOM     12  O   UNL     1      33.456  -8.529 -21.835  0.00  0.00    -0.269 OA
ATOM     13  N   UNL     1      33.374  -9.812 -23.740  0.00  0.00    -0.294 N 
ATOM     14  C   UNL     1      33.460  -8.589 -23.066  0.00  0.00    +0.260 C 
ATOM     15  H   UNL     1      33.380  -9.810 -24.725  0.00  0.00    +0.150 HD
BRANCH  14  18
ATOM     16 CL   UNL     1      33.115  -2.094 -27.125  0.00  0.00    -0.082 Cl
ATOM     17  N   UNL     1      34.696  -7.132 -24.626  0.00  0.00    -0.309 N 
ATOM     18  C   UNL     1      33.586  -7.393 -23.909  0.00  0.00    +0.102 C 
ATOM     19  C   UNL     1      32.664  -6.422 -24.086  0.00  0.00    +0.020 C 
ATOM     20  C   UNL     1      33.240  -5.480 -24.984  0.00  0.00    +0.016 C 
ATOM     21  C   UNL     1      34.515  -5.949 -25.308  0.00  0.00    +0.048 C 
ATOM     22  C   UNL     1      32.799  -4.269 -25.554  0.00  0.00    +0.013 C 
ATOM     23  C   UNL     1      35.374  -5.267 -26.176  0.00  0.00    +0.015 C 
ATOM     24  C   UNL     1      33.647  -3.574 -26.424  0.00  0.00    +0.058 C 
ATOM     25  C   UNL     1      34.913  -4.068 -26.729  0.00  0.00    +0.013 C 
ATOM     26  H   UNL     1      35.503  -7.695 -24.659  0.00  0.00    +0.152 HD
ENDBRANCH  14  18
ENDBRANCH   1  13
BRANCH   1  27
ATOM     27  C   UNL     1      31.866 -11.383 -22.573  0.00  0.00    +0.055 C 
BRANCH  27  29
ATOM     28  F   UNL     1      31.541 -11.652 -16.968  0.00  0.00    -0.204 F 
ATOM     29  C   UNL     1      31.779 -11.455 -21.069  0.00  0.00    -0.020 C 
ATOM     30  C   UNL     1      32.090 -12.642 -20.426  0.00  0.00    -0.002 C 
ATOM     31  C   UNL     1      31.388 -10.332 -20.356  0.00  0.00    -0.002 C 
ATOM     32  C   UNL     1      32.008 -12.710 -19.035  0.00  0.00    +0.029 C 
ATOM     33  C   UNL     1      31.308 -10.398 -18.965  0.00  0.00    +0.029 C 
ATOM     34  C   UNL     1      31.617 -11.588 -18.304  0.00  0.00    +0.140 C 
ENDBRANCH  27  29
ENDBRANCH   1  27
TORSDOF 6
ENDMDL
