MODEL 1
REMARK VINA RESULT:     -12.1      0.000      0.000
REMARK  Name = 10430360
REMARK  6 active torsions:
REMARK  status: ('A' for Active; 'I' for Inactive)
REMARK    1  A    between atoms: C_4  and  C_18
REMARK    2  A    between atoms: C_7  and  C_14
REMARK    3  A    between atoms: C_17  and  O_23
REMARK    4  A    between atoms: O_23  and  C_24
REMARK    5  A    between atoms: C_24  and  C_25
REMARK    6  A    between atoms: C_25  and  N_26
REMARK                            x       y       z     vdW  Elec       q    Type
REMARK                         _______ _______ _______ _____ _____    ______ ____
ROOT
ATOM      1  N   UNL     1      34.080 -24.914 -14.036  0.00  0.00    -0.276 N 
ATOM      2  N   UNL     1      35.032 -24.396 -14.831  0.00  0.00    -0.173 NA
ATOM      3  C   UNL     1      32.938 -23.848 -15.576  0.00  0.00    +0.036 A 
ATOM      4  C   UNL     1      34.335 -23.746 -15.771  0.00  0.00    +0.102 A 
ATOM      5  C   UNL     1      32.801 -24.622 -14.429  0.00  0.00    +0.075 A 
ATOM      6  C   UNL     1      31.787 -23.380 -16.232  0.00  0.00    +0.006 C 
ATOM      7  C   UNL     1      30.534 -23.712 -15.702  0.00  0.00    +0.033 C 
ATOM      8  C   UNL     1      31.562 -24.964 -13.884  0.00  0.00    +0.019 C 
ATOM      9  C   UNL     1      30.425 -24.491 -14.548  0.00  0.00    +0.004 C 
ATOM     10  H   UNL     1      34.285 -25.456 -13.241  0.00  0.00    +0.189 HD
ENDROOT
BRANCH   7  14
ATOM     11  N   UNL     1      28.932 -23.705 -17.571  0.00  0.00    -0.218 N 
ATOM     12  N   UNL     1      28.494 -22.341 -15.922  0.00  0.00    -0.206 NA
ATOM     13  N   UNL     1      27.795 -23.108 -17.960  0.00  0.00    -0.157 NA
ATOM     14  C   UNL     1      29.338 -23.243 -16.361  0.00  0.00    +0.149 C 
ATOM     15  C   UNL     1      27.572 -22.292 -16.928  0.00  0.00    +0.218 C 
ATOM     16  H   UNL     1      29.408 -24.390 -18.095  0.00  0.00    +0.176 HD
ENDBRANCH   7  14
BRANCH   4  18
ATOM     17  C   UNL     1      35.039 -22.137 -19.052  0.00  0.00    +0.138 C 
ATOM     18  C   UNL     1      35.017 -23.046 -16.823  0.00  0.00    +0.022 C 
ATOM     19  C   UNL     1      34.373 -22.816 -18.039  0.00  0.00    +0.038 C 
ATOM     20  C   UNL     1      36.341 -21.686 -18.866  0.00  0.00    +0.037 C 
ATOM     21  C   UNL     1      36.323 -22.597 -16.629  0.00  0.00    +0.002 C 
ATOM     22  C   UNL     1      36.986 -21.917 -17.651  0.00  0.00    +0.003 C 
BRANCH  17  23
ATOM     23  O   UNL     1      34.407 -21.908 -20.246  0.00  0.00    -0.478 OA
BRANCH  23  24
ATOM     24  C   UNL     1      34.201 -20.550 -20.613  0.00  0.00    +0.183 C 
BRANCH  24  25
ATOM     25  C   UNL     1      35.371 -20.093 -21.468  0.00  0.00    -0.029 C 
BRANCH  25  26
ATOM     26  N   UNL     1      34.963 -19.012 -22.366  0.00  0.00    +0.389 N 
ATOM     27  C   UNL     1      35.804 -17.825 -22.158  0.00  0.00    -0.077 C 
ATOM     28  C   UNL     1      35.011 -19.460 -23.765  0.00  0.00    -0.077 C 
ATOM     29  C   UNL     1      35.359 -16.670 -23.055  0.00  0.00    -0.023 C 
ATOM     30  C   UNL     1      34.539 -18.357 -24.714  0.00  0.00    -0.023 C 
ATOM     31  C   UNL     1      35.348 -17.078 -24.524  0.00  0.00    -0.004 C 
ATOM     32  H   UNL     1      33.999 -18.755 -22.152  0.00  0.00    -0.080 HD
ENDBRANCH  25  26
ENDBRANCH  24  25
ENDBRANCH  23  24
ENDBRANCH  17  23
ENDBRANCH   4  18
TORSDOF 6
ENDMDL
MODEL 2
REMARK VINA RESULT:     -11.7      1.935      4.570
REMARK  Name = 10430360
REMARK  6 active torsions:
REMARK  status: ('A' for Active; 'I' for Inactive)
REMARK    1  A    between atoms: C_4  and  C_18
REMARK    2  A    between atoms: C_7  and  C_14
REMARK    3  A    between atoms: C_17  and  O_23
REMARK    4  A    between atoms: O_23  and  C_24
REMARK    5  A    between atoms: C_24  and  C_25
REMARK    6  A    between atoms: C_25  and  N_26
REMARK                            x       y       z     vdW  Elec       q    Type
REMARK                         _______ _______ _______ _____ _____    ______ ____
ROOT
ATOM      1  N   UNL     1      31.468 -23.043 -17.269  0.00  0.00    -0.276 N 
ATOM      2  N   UNL     1      32.147 -22.427 -18.252  0.00  0.00    -0.173 NA
ATOM      3  C   UNL     1      33.564 -23.268 -16.664  0.00  0.00    +0.036 A 
ATOM      4  C   UNL     1      33.426 -22.565 -17.883  0.00  0.00    +0.102 A 
ATOM      5  C   UNL     1      32.260 -23.569 -16.284  0.00  0.00    +0.075 A 
ATOM      6  C   UNL     1      34.630 -23.680 -15.846  0.00  0.00    +0.006 C 
ATOM      7  C   UNL     1      34.339 -24.383 -14.671  0.00  0.00    +0.033 C 
ATOM      8  C   UNL     1      31.949 -24.268 -15.117  0.00  0.00    +0.019 C 
ATOM      9  C   UNL     1      33.021 -24.671 -14.314  0.00  0.00    +0.004 C 
ATOM     10  H   UNL     1      30.486 -23.108 -17.259  0.00  0.00    +0.189 HD
ENDROOT
BRANCH   7  14
ATOM     11  N   UNL     1      35.267 -25.027 -12.483  0.00  0.00    -0.218 N 
ATOM     12  N   UNL     1      36.659 -25.056 -14.167  0.00  0.00    -0.206 NA
ATOM     13  N   UNL     1      36.420 -25.421 -11.922  0.00  0.00    -0.157 NA
ATOM     14  C   UNL     1      35.420 -24.815 -13.816  0.00  0.00    +0.149 C 
ATOM     15  C   UNL     1      37.230 -25.422 -12.982  0.00  0.00    +0.218 C 
ATOM     16  H   UNL     1      34.421 -24.910 -11.993  0.00  0.00    +0.176 HD
ENDBRANCH   7  14
BRANCH   4  18
ATOM     17  C   UNL     1      35.192 -20.814 -20.652  0.00  0.00    +0.138 C 
ATOM     18  C   UNL     1      34.478 -22.027 -18.699  0.00  0.00    +0.022 C 
ATOM     19  C   UNL     1      34.168 -21.332 -19.868  0.00  0.00    +0.038 C 
ATOM     20  C   UNL     1      36.522 -20.982 -20.283  0.00  0.00    +0.037 C 
ATOM     21  C   UNL     1      35.809 -22.199 -18.322  0.00  0.00    +0.002 C 
ATOM     22  C   UNL     1      36.832 -21.676 -19.114  0.00  0.00    +0.003 C 
BRANCH  17  23
ATOM     23  O   UNL     1      34.888 -20.130 -21.800  0.00  0.00    -0.478 OA
BRANCH  23  24
ATOM     24  C   UNL     1      35.288 -18.767 -21.859  0.00  0.00    +0.183 C 
BRANCH  24  25
ATOM     25  C   UNL     1      36.241 -18.588 -23.030  0.00  0.00    -0.029 C 
BRANCH  25  26
ATOM     26  N   UNL     1      35.883 -17.403 -23.809  0.00  0.00    +0.389 N 
ATOM     27  C   UNL     1      34.894 -17.744 -24.841  0.00  0.00    -0.077 C 
ATOM     28  C   UNL     1      35.386 -16.338 -22.927  0.00  0.00    -0.077 C 
ATOM     29  C   UNL     1      34.546 -16.526 -25.697  0.00  0.00    -0.023 C 
ATOM     30  C   UNL     1      35.054 -15.073 -23.721  0.00  0.00    -0.023 C 
ATOM     31  C   UNL     1      34.057 -15.365 -24.838  0.00  0.00    -0.004 C 
ATOM     32  H   UNL     1      36.720 -17.055 -24.279  0.00  0.00    -0.080 HD
ENDBRANCH  25  26
ENDBRANCH  24  25
ENDBRANCH  23  24
ENDBRANCH  17  23
ENDBRANCH   4  18
TORSDOF 6
ENDMDL
MODEL 3
REMARK VINA RESULT:     -11.6      1.905      3.286
REMARK  Name = 10430360
REMARK  6 active torsions:
REMARK  status: ('A' for Active; 'I' for Inactive)
REMARK    1  A    between atoms: C_4  and  C_18
REMARK    2  A    between atoms: C_7  and  C_14
REMARK    3  A    between atoms: C_17  and  O_23
REMARK    4  A    between atoms: O_23  and  C_24
REMARK    5  A    between atoms: C_24  and  C_25
REMARK    6  A    between atoms: C_25  and  N_26
REMARK                            x       y       z     vdW  Elec       q    Type
REMARK                         _______ _______ _______ _____ _____    ______ ____
ROOT
ATOM      1  N   UNL     1      36.730 -23.163 -16.512  0.00  0.00    -0.276 N 
ATOM      2  N   UNL     1      36.729 -22.430 -17.639  0.00  0.00    -0.173 NA
ATOM      3  C   UNL     1      34.603 -23.018 -17.029  0.00  0.00    +0.036 A 
ATOM      4  C   UNL     1      35.432 -22.342 -17.954  0.00  0.00    +0.102 A 
ATOM      5  C   UNL     1      35.485 -23.548 -16.093  0.00  0.00    +0.075 A 
ATOM      6  C   UNL     1      33.224 -23.241 -16.877  0.00  0.00    +0.006 C 
ATOM      7  C   UNL     1      32.785 -23.994 -15.781  0.00  0.00    +0.033 C 
ATOM      8  C   UNL     1      35.068 -24.300 -14.993  0.00  0.00    +0.019 C 
ATOM      9  C   UNL     1      33.692 -24.514 -14.857  0.00  0.00    +0.004 C 
ATOM     10  H   UNL     1      37.555 -23.401 -16.031  0.00  0.00    +0.189 HD
ENDROOT
BRANCH   7  14
ATOM     11  N   UNL     1      30.884 -25.215 -14.803  0.00  0.00    -0.218 N 
ATOM     12  N   UNL     1      30.382 -23.585 -16.168  0.00  0.00    -0.206 NA
ATOM     13  N   UNL     1      29.543 -25.229 -14.818  0.00  0.00    -0.157 NA
ATOM     14  C   UNL     1      31.372 -24.236 -15.607  0.00  0.00    +0.149 C 
ATOM     15  C   UNL     1      29.288 -24.225 -15.659  0.00  0.00    +0.218 C 
ATOM     16  H   UNL     1      31.441 -25.833 -14.276  0.00  0.00    +0.176 HD
ENDBRANCH   7  14
BRANCH   4  18
ATOM     17  C   UNL     1      35.547 -20.215 -21.006  0.00  0.00    +0.138 C 
ATOM     18  C   UNL     1      35.017 -21.618 -19.123  0.00  0.00    +0.022 C 
ATOM     19  C   UNL     1      35.956 -20.913 -19.876  0.00  0.00    +0.038 C 
ATOM     20  C   UNL     1      34.211 -20.211 -21.392  0.00  0.00    +0.037 C 
ATOM     21  C   UNL     1      33.676 -21.619 -19.504  0.00  0.00    +0.002 C 
ATOM     22  C   UNL     1      33.272 -20.916 -20.639  0.00  0.00    +0.003 C 
BRANCH  17  23
ATOM     23  O   UNL     1      36.469 -19.523 -21.747  0.00  0.00    -0.478 OA
BRANCH  23  24
ATOM     24  C   UNL     1      36.081 -18.237 -22.215  0.00  0.00    +0.183 C 
BRANCH  24  25
ATOM     25  C   UNL     1      36.030 -18.266 -23.734  0.00  0.00    -0.029 C 
BRANCH  25  26
ATOM     26  N   UNL     1      35.657 -16.954 -24.262  0.00  0.00    +0.389 N 
ATOM     27  C   UNL     1      34.619 -17.090 -25.294  0.00  0.00    -0.077 C 
ATOM     28  C   UNL     1      35.214 -16.069 -23.176  0.00  0.00    -0.077 C 
ATOM     29  C   UNL     1      34.253 -15.730 -25.891  0.00  0.00    -0.023 C 
ATOM     30  C   UNL     1      34.868 -14.676 -23.705  0.00  0.00    -0.023 C 
ATOM     31  C   UNL     1      33.820 -14.747 -24.810  0.00  0.00    -0.004 C 
ATOM     32  H   UNL     1      36.478 -16.530 -24.696  0.00  0.00    -0.080 HD
ENDBRANCH  25  26
ENDBRANCH  24  25
ENDBRANCH  23  24
ENDBRANCH  17  23
ENDBRANCH   4  18
TORSDOF 6
ENDMDL
MODEL 4
REMARK VINA RESULT:     -11.2      2.522      5.320
REMARK  Name = 10430360
REMARK  6 active torsions:
REMARK  status: ('A' for Active; 'I' for Inactive)
REMARK    1  A    between atoms: C_4  and  C_18
REMARK    2  A    between atoms: C_7  and  C_14
REMARK    3  A    between atoms: C_17  and  O_23
REMARK    4  A    between atoms: O_23  and  C_24
REMARK    5  A    between atoms: C_24  and  C_25
REMARK    6  A    between atoms: C_25  and  N_26
REMARK                            x       y       z     vdW  Elec       q    Type
REMARK                         _______ _______ _______ _____ _____    ______ ____
ROOT
ATOM      1  N   UNL     1      32.247 -22.875 -18.157  0.00  0.00    -0.276 N 
ATOM      2  N   UNL     1      32.765 -22.122 -19.142  0.00  0.00    -0.173 NA
ATOM      3  C   UNL     1      34.374 -22.744 -17.638  0.00  0.00    +0.036 A 
ATOM      4  C   UNL     1      34.063 -22.042 -18.826  0.00  0.00    +0.102 A 
ATOM      5  C   UNL     1      33.161 -23.281 -17.222  0.00  0.00    +0.075 A 
ATOM      6  C   UNL     1      35.529 -22.984 -16.875  0.00  0.00    +0.006 C 
ATOM      7  C   UNL     1      35.417 -23.761 -15.716  0.00  0.00    +0.033 C 
ATOM      8  C   UNL     1      33.026 -24.057 -16.069  0.00  0.00    +0.019 C 
ATOM      9  C   UNL     1      34.186 -24.287 -15.321  0.00  0.00    +0.004 C 
ATOM     10  H   UNL     1      31.293 -23.113 -18.113  0.00  0.00    +0.189 HD
ENDROOT
BRANCH   7  14
ATOM     11  N   UNL     1      36.937 -23.259 -13.846  0.00  0.00    -0.218 N 
ATOM     12  N   UNL     1      37.470 -24.975 -15.088  0.00  0.00    -0.206 NA
ATOM     13  N   UNL     1      38.068 -23.709 -13.280  0.00  0.00    -0.157 NA
ATOM     14  C   UNL     1      36.592 -24.019 -14.917  0.00  0.00    +0.149 C 
ATOM     15  C   UNL     1      38.350 -24.747 -14.068  0.00  0.00    +0.218 C 
ATOM     16  H   UNL     1      36.425 -22.482 -13.525  0.00  0.00    +0.176 HD
ENDBRANCH   7  14
BRANCH   4  18
ATOM     17  C   UNL     1      35.361 -19.843 -21.533  0.00  0.00    +0.138 C 
ATOM     18  C   UNL     1      34.968 -21.304 -19.660  0.00  0.00    +0.022 C 
ATOM     19  C   UNL     1      34.478 -20.555 -20.730  0.00  0.00    +0.038 C 
ATOM     20  C   UNL     1      36.728 -19.870 -21.281  0.00  0.00    +0.037 C 
ATOM     21  C   UNL     1      36.338 -21.336 -19.401  0.00  0.00    +0.002 C 
ATOM     22  C   UNL     1      37.219 -20.619 -20.211  0.00  0.00    +0.003 C 
BRANCH  17  23
ATOM     23  O   UNL     1      34.880 -19.106 -22.584  0.00  0.00    -0.478 OA
BRANCH  23  24
ATOM     24  C   UNL     1      35.618 -17.945 -22.944  0.00  0.00    +0.183 C 
BRANCH  24  25
ATOM     25  C   UNL     1      35.495 -17.734 -24.444  0.00  0.00    -0.029 C 
BRANCH  25  26
ATOM     26  N   UNL     1      35.194 -16.334 -24.745  0.00  0.00    +0.389 N 
ATOM     27  C   UNL     1      34.068 -16.240 -25.685  0.00  0.00    -0.077 C 
ATOM     28  C   UNL     1      34.917 -15.590 -23.508  0.00  0.00    -0.077 C 
ATOM     29  C   UNL     1      33.773 -14.784 -26.048  0.00  0.00    -0.023 C 
ATOM     30  C   UNL     1      34.650 -14.113 -23.801  0.00  0.00    -0.023 C 
ATOM     31  C   UNL     1      33.514 -13.943 -24.803  0.00  0.00    -0.004 C 
ATOM     32  H   UNL     1      36.010 -15.912 -25.189  0.00  0.00    -0.080 HD
ENDBRANCH  25  26
ENDBRANCH  24  25
ENDBRANCH  23  24
ENDBRANCH  17  23
ENDBRANCH   4  18
TORSDOF 6
ENDMDL
MODEL 5
REMARK VINA RESULT:     -11.2      5.959     11.359
REMARK  Name = 10430360
REMARK  6 active torsions:
REMARK  status: ('A' for Active; 'I' for Inactive)
REMARK    1  A    between atoms: C_4  and  C_18
REMARK    2  A    between atoms: C_7  and  C_14
REMARK    3  A    between atoms: C_17  and  O_23
REMARK    4  A    between atoms: O_23  and  C_24
REMARK    5  A    between atoms: C_24  and  C_25
REMARK    6  A    between atoms: C_25  and  N_26
REMARK                            x       y       z     vdW  Elec       q    Type
REMARK                         _______ _______ _______ _____ _____    ______ ____
ROOT
ATOM      1  N   UNL     1      32.209 -13.662 -19.413  0.00  0.00    -0.276 N 
ATOM      2  N   UNL     1      32.794 -14.524 -20.262  0.00  0.00    -0.173 NA
ATOM      3  C   UNL     1      32.586 -12.447 -21.199  0.00  0.00    +0.036 A 
ATOM      4  C   UNL     1      33.023 -13.783 -21.352  0.00  0.00    +0.102 A 
ATOM      5  C   UNL     1      32.055 -12.398 -19.915  0.00  0.00    +0.075 A 
ATOM      6  C   UNL     1      32.577 -11.286 -21.991  0.00  0.00    +0.006 C 
ATOM      7  C   UNL     1      32.031 -10.114 -21.454  0.00  0.00    +0.033 C 
ATOM      8  C   UNL     1      31.506 -11.240 -19.361  0.00  0.00    +0.019 C 
ATOM      9  C   UNL     1      31.505 -10.093 -20.161  0.00  0.00    +0.004 C 
ATOM     10  H   UNL     1      31.917 -13.919 -18.509  0.00  0.00    +0.189 HD
ENDROOT
BRANCH   7  14
ATOM     11  N   UNL     1      32.105  -8.920 -23.606  0.00  0.00    -0.218 N 
ATOM     12  N   UNL     1      31.908  -7.677 -21.820  0.00  0.00    -0.206 NA
ATOM     13  N   UNL     1      32.063  -7.674 -24.102  0.00  0.00    -0.157 NA
ATOM     14  C   UNL     1      32.012  -8.910 -22.251  0.00  0.00    +0.149 C 
ATOM     15  C   UNL     1      31.944  -6.959 -22.982  0.00  0.00    +0.218 C 
ATOM     16  H   UNL     1      32.190  -9.734 -24.153  0.00  0.00    +0.176 HD
ENDBRANCH   7  14
BRANCH   4  18
ATOM     17  C   UNL     1      35.175 -15.960 -23.469  0.00  0.00    +0.138 C 
ATOM     18  C   UNL     1      33.653 -14.364 -22.504  0.00  0.00    +0.022 C 
ATOM     19  C   UNL     1      34.571 -15.403 -22.349  0.00  0.00    +0.038 C 
ATOM     20  C   UNL     1      34.875 -15.492 -24.744  0.00  0.00    +0.037 C 
ATOM     21  C   UNL     1      33.347 -13.889 -23.779  0.00  0.00    +0.002 C 
ATOM     22  C   UNL     1      33.957 -14.453 -24.899  0.00  0.00    +0.003 C 
BRANCH  17  23
ATOM     23  O   UNL     1      36.076 -16.981 -23.317  0.00  0.00    -0.478 OA
BRANCH  23  24
ATOM     24  C   UNL     1      35.559 -18.232 -22.878  0.00  0.00    +0.183 C 
BRANCH  24  25
ATOM     25  C   UNL     1      36.485 -18.795 -21.813  0.00  0.00    -0.029 C 
BRANCH  25  26
ATOM     26  N   UNL     1      35.731 -19.587 -20.840  0.00  0.00    +0.389 N 
ATOM     27  C   UNL     1      34.403 -19.924 -21.371  0.00  0.00    -0.077 C 
ATOM     28  C   UNL     1      36.480 -20.797 -20.472  0.00  0.00    -0.077 C 
ATOM     29  C   UNL     1      33.584 -20.711 -20.347  0.00  0.00    -0.023 C 
ATOM     30  C   UNL     1      35.727 -21.611 -19.418  0.00  0.00    -0.023 C 
ATOM     31  C   UNL     1      34.321 -21.964 -19.889  0.00  0.00    -0.004 C 
ATOM     32  H   UNL     1      35.601 -19.030 -19.996  0.00  0.00    -0.080 HD
ENDBRANCH  25  26
ENDBRANCH  24  25
ENDBRANCH  23  24
ENDBRANCH  17  23
ENDBRANCH   4  18
TORSDOF 6
ENDMDL
MODEL 6
REMARK VINA RESULT:     -11.0      3.356      6.086
REMARK  Name = 10430360
REMARK  6 active torsions:
REMARK  status: ('A' for Active; 'I' for Inactive)
REMARK    1  A    between atoms: C_4  and  C_18
REMARK    2  A    between atoms: C_7  and  C_14
REMARK    3  A    between atoms: C_17  and  O_23
REMARK    4  A    between atoms: O_23  and  C_24
REMARK    5  A    between atoms: C_24  and  C_25
REMARK    6  A    between atoms: C_25  and  N_26
REMARK                            x       y       z     vdW  Elec       q    Type
REMARK                         _______ _______ _______ _____ _____    ______ ____
ROOT
ATOM      1  N   UNL     1      32.909 -25.054 -14.294  0.00  0.00    -0.276 N 
ATOM      2  N   UNL     1      33.907 -24.605 -15.074  0.00  0.00    -0.173 NA
ATOM      3  C   UNL     1      31.872 -23.883 -15.830  0.00  0.00    +0.036 A 
ATOM      4  C   UNL     1      33.274 -23.891 -16.012  0.00  0.00    +0.102 A 
ATOM      5  C   UNL     1      31.662 -24.656 -14.694  0.00  0.00    +0.075 A 
ATOM      6  C   UNL     1      30.768 -23.317 -16.491  0.00  0.00    +0.006 C 
ATOM      7  C   UNL     1      29.487 -23.553 -15.976  0.00  0.00    +0.033 C 
ATOM      8  C   UNL     1      30.394 -24.904 -14.165  0.00  0.00    +0.019 C 
ATOM      9  C   UNL     1      29.306 -24.334 -14.834  0.00  0.00    +0.004 C 
ATOM     10  H   UNL     1      33.062 -25.620 -13.504  0.00  0.00    +0.189 HD
ENDROOT
BRANCH   7  14
ATOM     11  N   UNL     1      27.280 -22.464 -15.966  0.00  0.00    -0.218 N 
ATOM     12  N   UNL     1      28.142 -22.878 -17.931  0.00  0.00    -0.206 NA
ATOM     13  N   UNL     1      26.350 -22.000 -16.815  0.00  0.00    -0.157 NA
ATOM     14  C   UNL     1      28.339 -22.982 -16.640  0.00  0.00    +0.149 C 
ATOM     15  C   UNL     1      26.918 -22.274 -17.990  0.00  0.00    +0.218 C 
ATOM     16  H   UNL     1      27.204 -22.431 -14.985  0.00  0.00    +0.176 HD
ENDBRANCH   7  14
BRANCH   4  18
ATOM     17  C   UNL     1      36.028 -22.144 -17.806  0.00  0.00    +0.138 C 
ATOM     18  C   UNL     1      34.020 -23.236 -17.049  0.00  0.00    +0.022 C 
ATOM     19  C   UNL     1      35.313 -22.777 -16.796  0.00  0.00    +0.038 C 
ATOM     20  C   UNL     1      35.467 -21.963 -19.066  0.00  0.00    +0.037 C 
ATOM     21  C   UNL     1      33.451 -23.058 -18.310  0.00  0.00    +0.002 C 
ATOM     22  C   UNL     1      34.174 -22.422 -19.319  0.00  0.00    +0.003 C 
BRANCH  17  23
ATOM     23  O   UNL     1      37.298 -21.694 -17.559  0.00  0.00    -0.478 OA
BRANCH  23  24
ATOM     24  C   UNL     1      37.838 -21.972 -16.273  0.00  0.00    +0.183 C 
BRANCH  24  25
ATOM     25  C   UNL     1      38.156 -23.456 -16.187  0.00  0.00    -0.029 C 
BRANCH  25  26
ATOM     26  N   UNL     1      38.421 -23.848 -14.803  0.00  0.00    +0.389 N 
ATOM     27  C   UNL     1      37.324 -23.414 -13.926  0.00  0.00    -0.077 C 
ATOM     28  C   UNL     1      38.632 -25.299 -14.711  0.00  0.00    -0.077 C 
ATOM     29  C   UNL     1      37.608 -23.773 -12.467  0.00  0.00    -0.023 C 
ATOM     30  C   UNL     1      38.959 -25.720 -13.277  0.00  0.00    -0.023 C 
ATOM     31  C   UNL     1      37.876 -25.265 -12.305  0.00  0.00    -0.004 C 
ATOM     32  H   UNL     1      39.275 -23.386 -14.489  0.00  0.00    -0.080 HD
ENDBRANCH  25  26
ENDBRANCH  24  25
ENDBRANCH  23  24
ENDBRANCH  17  23
ENDBRANCH   4  18
TORSDOF 6
ENDMDL
MODEL 7
REMARK VINA RESULT:     -11.0      7.162     11.903
REMARK  Name = 10430360
REMARK  6 active torsions:
REMARK  status: ('A' for Active; 'I' for Inactive)
REMARK    1  A    between atoms: C_4  and  C_18
REMARK    2  A    between atoms: C_7  and  C_14
REMARK    3  A    between atoms: C_17  and  O_23
REMARK    4  A    between atoms: O_23  and  C_24
REMARK    5  A    between atoms: C_24  and  C_25
REMARK    6  A    between atoms: C_25  and  N_26
REMARK                            x       y       z     vdW  Elec       q    Type
REMARK                         _______ _______ _______ _____ _____    ______ ____
ROOT
ATOM      1  N   UNL     1      33.828 -14.263 -25.428  0.00  0.00    -0.276 N 
ATOM      2  N   UNL     1      33.225 -13.418 -24.574  0.00  0.00    -0.173 NA
ATOM      3  C   UNL     1      34.227 -15.149 -23.462  0.00  0.00    +0.036 A 
ATOM      4  C   UNL     1      33.468 -13.959 -23.375  0.00  0.00    +0.102 A 
ATOM      5  C   UNL     1      34.448 -15.323 -24.824  0.00  0.00    +0.075 A 
ATOM      6  C   UNL     1      34.746 -16.089 -22.556  0.00  0.00    +0.006 C 
ATOM      7  C   UNL     1      35.473 -17.174 -23.060  0.00  0.00    +0.033 C 
ATOM      8  C   UNL     1      35.169 -16.398 -25.347  0.00  0.00    +0.019 C 
ATOM      9  C   UNL     1      35.679 -17.325 -24.432  0.00  0.00    +0.004 C 
ATOM     10  H   UNL     1      33.824 -14.130 -26.403  0.00  0.00    +0.189 HD
ENDROOT
BRANCH   7  14
ATOM     11  N   UNL     1      35.235 -18.924 -21.344  0.00  0.00    -0.218 N 
ATOM     12  N   UNL     1      37.278 -18.439 -21.950  0.00  0.00    -0.206 NA
ATOM     13  N   UNL     1      35.983 -19.747 -20.593  0.00  0.00    -0.157 NA
ATOM     14  C   UNL     1      36.014 -18.152 -22.146  0.00  0.00    +0.149 C 
ATOM     15  C   UNL     1      37.210 -19.414 -20.997  0.00  0.00    +0.218 C 
ATOM     16  H   UNL     1      34.252 -18.886 -21.318  0.00  0.00    +0.176 HD
ENDBRANCH   7  14
BRANCH   4  18
ATOM     17  C   UNL     1      32.071 -11.400 -21.062  0.00  0.00    +0.138 C 
ATOM     18  C   UNL     1      32.976 -13.329 -22.183  0.00  0.00    +0.022 C 
ATOM     19  C   UNL     1      32.547 -12.002 -22.221  0.00  0.00    +0.038 C 
ATOM     20  C   UNL     1      32.018 -12.106 -19.866  0.00  0.00    +0.037 C 
ATOM     21  C   UNL     1      32.926 -14.044 -20.986  0.00  0.00    +0.002 C 
ATOM     22  C   UNL     1      32.447 -13.433 -19.827  0.00  0.00    +0.003 C 
BRANCH  17  23
ATOM     23  O   UNL     1      31.648 -10.097 -21.099  0.00  0.00    -0.478 OA
BRANCH  23  24
ATOM     24  C   UNL     1      32.345  -9.221 -21.976  0.00  0.00    +0.183 C 
BRANCH  24  25
ATOM     25  C   UNL     1      32.891  -8.054 -21.168  0.00  0.00    -0.029 C 
BRANCH  25  26
ATOM     26  N   UNL     1      33.244  -6.939 -22.046  0.00  0.00    +0.389 N 
ATOM     27  C   UNL     1      33.929  -7.429 -23.251  0.00  0.00    -0.077 C 
ATOM     28  C   UNL     1      32.047  -6.160 -22.394  0.00  0.00    -0.077 C 
ATOM     29  C   UNL     1      34.347  -6.270 -24.157  0.00  0.00    -0.023 C 
ATOM     30  C   UNL     1      32.406  -4.960 -23.272  0.00  0.00    -0.023 C 
ATOM     31  C   UNL     1      33.155  -5.395 -24.527  0.00  0.00    -0.004 C 
ATOM     32  H   UNL     1      33.886  -6.321 -21.549  0.00  0.00    -0.080 HD
ENDBRANCH  25  26
ENDBRANCH  24  25
ENDBRANCH  23  24
ENDBRANCH  17  23
ENDBRANCH   4  18
TORSDOF 6
ENDMDL
MODEL 8
REMARK VINA RESULT:     -10.9      7.539     12.163
REMARK  Name = 10430360
REMARK  6 active torsions:
REMARK  status: ('A' for Active; 'I' for Inactive)
REMARK    1  A    between atoms: C_4  and  C_18
REMARK    2  A    between atoms: C_7  and  C_14
REMARK    3  A    between atoms: C_17  and  O_23
REMARK    4  A    between atoms: O_23  and  C_24
REMARK    5  A    between atoms: C_24  and  C_25
REMARK    6  A    between atoms: C_25  and  N_26
REMARK                            x       y       z     vdW  Elec       q    Type
REMARK                         _______ _______ _______ _____ _____    ______ ____
ROOT
ATOM      1  N   UNL     1      32.635 -13.637 -20.821  0.00  0.00    -0.276 N 
ATOM      2  N   UNL     1      33.029 -14.129 -22.009  0.00  0.00    -0.173 NA
ATOM      3  C   UNL     1      32.640 -11.878 -22.131  0.00  0.00    +0.036 A 
ATOM      4  C   UNL     1      33.031 -13.056 -22.808  0.00  0.00    +0.102 A 
ATOM      5  C   UNL     1      32.386 -12.291 -20.828  0.00  0.00    +0.075 A 
ATOM      6  C   UNL     1      32.472 -10.524 -22.468  0.00  0.00    +0.006 C 
ATOM      7  C   UNL     1      32.053  -9.633 -21.472  0.00  0.00    +0.033 C 
ATOM      8  C   UNL     1      31.967 -11.420 -19.820  0.00  0.00    +0.019 C 
ATOM      9  C   UNL     1      31.805 -10.076 -20.171  0.00  0.00    +0.004 C 
ATOM     10  H   UNL     1      32.535 -14.196 -20.018  0.00  0.00    +0.189 HD
ENDROOT
BRANCH   7  14
ATOM     11  N   UNL     1      31.411  -7.814 -23.001  0.00  0.00    -0.218 N 
ATOM     12  N   UNL     1      32.116  -7.208 -21.024  0.00  0.00    -0.206 NA
ATOM     13  N   UNL     1      31.339  -6.475 -23.046  0.00  0.00    -0.157 NA
ATOM     14  C   UNL     1      31.874  -8.238 -21.797  0.00  0.00    +0.149 C 
ATOM     15  C   UNL     1      31.776  -6.156 -21.827  0.00  0.00    +0.218 C 
ATOM     16  H   UNL     1      31.161  -8.410 -23.744  0.00  0.00    +0.176 HD
ENDBRANCH   7  14
BRANCH   4  18
ATOM     17  C   UNL     1      33.760 -14.545 -26.140  0.00  0.00    +0.138 C 
ATOM     18  C   UNL     1      33.407 -13.181 -24.188  0.00  0.00    +0.022 C 
ATOM     19  C   UNL     1      33.395 -14.433 -24.804  0.00  0.00    +0.038 C 
ATOM     20  C   UNL     1      34.137 -13.422 -26.869  0.00  0.00    +0.037 C 
ATOM     21  C   UNL     1      33.784 -12.051 -24.912  0.00  0.00    +0.002 C 
ATOM     22  C   UNL     1      34.149 -12.171 -26.253  0.00  0.00    +0.003 C 
BRANCH  17  23
ATOM     23  O   UNL     1      33.747 -15.774 -26.746  0.00  0.00    -0.478 OA
BRANCH  23  24
ATOM     24  C   UNL     1      33.500 -16.898 -25.911  0.00  0.00    +0.183 C 
BRANCH  24  25
ATOM     25  C   UNL     1      34.833 -17.495 -25.491  0.00  0.00    -0.029 C 
BRANCH  25  26
ATOM     26  N   UNL     1      34.803 -17.883 -24.080  0.00  0.00    +0.389 N 
ATOM     27  C   UNL     1      35.168 -19.298 -23.927  0.00  0.00    -0.077 C 
ATOM     28  C   UNL     1      35.688 -17.016 -23.290  0.00  0.00    -0.077 C 
ATOM     29  C   UNL     1      35.094 -19.732 -22.463  0.00  0.00    -0.023 C 
ATOM     30  C   UNL     1      35.630 -17.376 -21.804  0.00  0.00    -0.023 C 
ATOM     31  C   UNL     1      35.963 -18.847 -21.576  0.00  0.00    -0.004 C 
ATOM     32  H   UNL     1      33.852 -17.764 -23.729  0.00  0.00    -0.080 HD
ENDBRANCH  25  26
ENDBRANCH  24  25
ENDBRANCH  23  24
ENDBRANCH  17  23
ENDBRANCH   4  18
TORSDOF 6
ENDMDL
MODEL 9
REMARK VINA RESULT:     -10.3      5.146     11.315
REMARK  Name = 10430360
REMARK  6 active torsions:
REMARK  status: ('A' for Active; 'I' for Inactive)
REMARK    1  A    between atoms: C_4  and  C_18
REMARK    2  A    between atoms: C_7  and  C_14
REMARK    3  A    between atoms: C_17  and  O_23
REMARK    4  A    between atoms: O_23  and  C_24
REMARK    5  A    between atoms: C_24  and  C_25
REMARK    6  A    between atoms: C_25  and  N_26
REMARK                            x       y       z     vdW  Elec       q    Type
REMARK                         _______ _______ _______ _____ _____    ______ ____
ROOT
ATOM      1  N   UNL     1      34.241 -11.508 -25.871  0.00  0.00    -0.276 N 
ATOM      2  N   UNL     1      34.552 -12.792 -26.118  0.00  0.00    -0.173 NA
ATOM      3  C   UNL     1      33.638 -12.543 -24.034  0.00  0.00    +0.036 A 
ATOM      4  C   UNL     1      34.184 -13.424 -24.997  0.00  0.00    +0.102 A 
ATOM      5  C   UNL     1      33.689 -11.291 -24.637  0.00  0.00    +0.075 A 
ATOM      6  C   UNL     1      33.114 -12.660 -22.736  0.00  0.00    +0.006 C 
ATOM      7  C   UNL     1      32.657 -11.504 -22.092  0.00  0.00    +0.033 C 
ATOM      8  C   UNL     1      33.240 -10.126 -24.013  0.00  0.00    +0.019 C 
ATOM      9  C   UNL     1      32.721 -10.259 -22.721  0.00  0.00    +0.004 C 
ATOM     10  H   UNL     1      34.398 -10.786 -26.522  0.00  0.00    +0.189 HD
ENDROOT
BRANCH   7  14
ATOM     11  N   UNL     1      31.213 -10.717 -20.261  0.00  0.00    -0.218 N 
ATOM     12  N   UNL     1      32.392 -12.511 -19.855  0.00  0.00    -0.206 NA
ATOM     13  N   UNL     1      30.872 -11.031 -19.002  0.00  0.00    -0.157 NA
ATOM     14  C   UNL     1      32.115 -11.602 -20.757  0.00  0.00    +0.149 C 
ATOM     15  C   UNL     1      31.612 -12.123 -18.803  0.00  0.00    +0.218 C 
ATOM     16  H   UNL     1      30.854  -9.947 -20.759  0.00  0.00    +0.176 HD
ENDBRANCH   7  14
BRANCH   4  18
ATOM     17  C   UNL     1      35.268 -16.742 -23.705  0.00  0.00    +0.138 C 
ATOM     18  C   UNL     1      34.360 -14.844 -24.875  0.00  0.00    +0.022 C 
ATOM     19  C   UNL     1      35.103 -15.366 -23.816  0.00  0.00    +0.038 C 
ATOM     20  C   UNL     1      34.700 -17.602 -24.638  0.00  0.00    +0.037 C 
ATOM     21  C   UNL     1      33.787 -15.700 -25.815  0.00  0.00    +0.002 C 
ATOM     22  C   UNL     1      33.957 -17.079 -25.697  0.00  0.00    +0.003 C 
BRANCH  17  23
ATOM     23  O   UNL     1      35.997 -17.256 -22.665  0.00  0.00    -0.478 OA
BRANCH  23  24
ATOM     24  C   UNL     1      36.355 -18.630 -22.750  0.00  0.00    +0.183 C 
BRANCH  24  25
ATOM     25  C   UNL     1      36.969 -19.057 -21.426  0.00  0.00    -0.029 C 
BRANCH  25  26
ATOM     26  N   UNL     1      35.984 -19.756 -20.602  0.00  0.00    +0.389 N 
ATOM     27  C   UNL     1      34.749 -19.989 -21.363  0.00  0.00    -0.077 C 
ATOM     28  C   UNL     1      36.542 -21.018 -20.094  0.00  0.00    -0.077 C 
ATOM     29  C   UNL     1      33.691 -20.678 -20.499  0.00  0.00    -0.023 C 
ATOM     30  C   UNL     1      35.542 -21.739 -19.189  0.00  0.00    -0.023 C 
ATOM     31  C   UNL     1      34.218 -21.979 -19.906  0.00  0.00    -0.004 C 
ATOM     32  H   UNL     1      35.753 -19.170 -19.799  0.00  0.00    -0.080 HD
ENDBRANCH  25  26
ENDBRANCH  24  25
ENDBRANCH  23  24
ENDBRANCH  17  23
ENDBRANCH   4  18
TORSDOF 6
ENDMDL
