MODEL 1
REMARK VINA RESULT:     -11.2      0.000      0.000
REMARK  Name = 5288017
REMARK  6 active torsions:
REMARK  status: ('A' for Active; 'I' for Inactive)
REMARK    1  A    between atoms: C_4  and  C_15
REMARK    2  A    between atoms: C_10  and  N_22
REMARK    3  A    between atoms: C_23  and  C_25
REMARK    4  A    between atoms: C_25  and  N_26
REMARK    5  A    between atoms: C_27  and  C_33
REMARK    6  A    between atoms: C_33  and  N_34
REMARK                            x       y       z     vdW  Elec       q    Type
REMARK                         _______ _______ _______ _____ _____    ______ ____
ROOT
ATOM      1  O   UNL     1      33.653 -23.573 -16.876  0.00  0.00    -0.286 OA
ATOM      2  N   UNL     1      37.491 -21.597 -18.001  0.00  0.00    -0.280 N 
ATOM      3  N   UNL     1      37.996 -21.943 -16.784  0.00  0.00    -0.173 NA
ATOM      4  C   UNL     1      36.189 -22.001 -18.221  0.00  0.00    +0.056 A 
ATOM      5  C   UNL     1      35.842 -22.642 -17.073  0.00  0.00    +0.071 A 
ATOM      6  C   UNL     1      36.969 -22.578 -16.239  0.00  0.00    +0.105 A 
ATOM      7  C   UNL     1      34.759 -23.341 -16.436  0.00  0.00    +0.199 C 
ATOM      8  C   UNL     1      35.335 -23.713 -15.096  0.00  0.00    +0.054 C 
ATOM      9  C   UNL     1      36.673 -23.239 -15.005  0.00  0.00    +0.024 C 
ATOM     10  C   UNL     1      34.757 -24.393 -14.062  0.00  0.00    +0.053 C 
ATOM     11  C   UNL     1      37.436 -23.445 -13.879  0.00  0.00    +0.002 C 
ATOM     12  C   UNL     1      35.506 -24.614 -12.916  0.00  0.00    +0.015 C 
ATOM     13  C   UNL     1      36.835 -24.144 -12.825  0.00  0.00    +0.001 C 
ATOM     14  H   UNL     1      38.013 -21.100 -18.672  0.00  0.00    +0.189 HD
ENDROOT
BRANCH   4  15
ATOM     15  C   UNL     1      35.447 -21.712 -19.518  0.00  0.00    +0.040 C 
ATOM     16  C   UNL     1      33.951 -21.455 -19.276  0.00  0.00    +0.006 C 
ATOM     17  C   UNL     1      36.091 -20.554 -20.300  0.00  0.00    +0.006 C 
ATOM     18  C   UNL     1      33.213 -21.174 -20.584  0.00  0.00    +0.000 C 
ATOM     19  C   UNL     1      35.344 -20.278 -21.603  0.00  0.00    +0.000 C 
ATOM     20  C   UNL     1      33.858 -20.028 -21.359  0.00  0.00    +0.000 C 
ENDBRANCH   4  15
BRANCH  10  22
ATOM     21  O   UNL     1      32.242 -23.356 -12.794  0.00  0.00    -0.277 OA
ATOM     22  N   UNL     1      33.427 -24.872 -14.138  0.00  0.00    -0.286 N 
ATOM     23  C   UNL     1      32.295 -24.341 -13.524  0.00  0.00    +0.205 C 
ATOM     24  H   UNL     1      33.285 -25.674 -14.692  0.00  0.00    +0.155 HD
BRANCH  23  25
ATOM     25  C   UNL     1      31.071 -25.167 -13.875  0.00  0.00    +0.010 C 
BRANCH  25  26
ATOM     26  N   UNL     1      30.418 -24.594 -15.053  0.00  0.00    +0.393 N 
ATOM     27  C   UNL     1      28.228 -23.285 -16.497  0.00  0.00    -0.026 C 
ATOM     28  C   UNL     1      29.503 -22.540 -16.085  0.00  0.00    -0.025 C 
ATOM     29  C   UNL     1      28.524 -24.782 -16.633  0.00  0.00    -0.025 C 
ATOM     30  C   UNL     1      30.137 -23.167 -14.842  0.00  0.00    -0.077 C 
ATOM     31  C   UNL     1      29.189 -25.335 -15.371  0.00  0.00    -0.077 C 
ATOM     32  H   UNL     1      31.050 -24.676 -15.848  0.00  0.00    -0.079 HD
BRANCH  27  33
ATOM     33  C   UNL     1      27.656 -22.718 -17.793  0.00  0.00    -0.086 C 
BRANCH  33  34
ATOM     34  N   UNL     1      26.624 -21.730 -17.517  0.00  0.00    +0.380 N 
ATOM     35  H   UNL     1      25.929 -21.748 -18.263  0.00  0.00    -0.089 HD
ATOM     36  H   UNL     1      27.046 -20.802 -17.468  0.00  0.00    -0.089 HD
ATOM     37  H   UNL     1      26.174 -21.947 -16.628  0.00  0.00    -0.089 HD
ENDBRANCH  33  34
ENDBRANCH  27  33
ENDBRANCH  25  26
ENDBRANCH  23  25
ENDBRANCH  10  22
TORSDOF 6
ENDMDL
MODEL 2
REMARK VINA RESULT:     -11.1     11.160     14.957
REMARK  Name = 5288017
REMARK  6 active torsions:
REMARK  status: ('A' for Active; 'I' for Inactive)
REMARK    1  A    between atoms: C_4  and  C_15
REMARK    2  A    between atoms: C_10  and  N_22
REMARK    3  A    between atoms: C_23  and  C_25
REMARK    4  A    between atoms: C_25  and  N_26
REMARK    5  A    between atoms: C_27  and  C_33
REMARK    6  A    between atoms: C_33  and  N_34
REMARK                            x       y       z     vdW  Elec       q    Type
REMARK                         _______ _______ _______ _____ _____    ______ ____
ROOT
ATOM      1  O   UNL     1      32.894 -10.066 -24.247  0.00  0.00    -0.286 OA
ATOM      2  N   UNL     1      32.482  -6.333 -21.840  0.00  0.00    -0.280 N 
ATOM      3  N   UNL     1      32.190  -7.098 -20.751  0.00  0.00    -0.173 NA
ATOM      4  C   UNL     1      32.727  -7.046 -22.996  0.00  0.00    +0.056 A 
ATOM      5  C   UNL     1      32.581  -8.345 -22.622  0.00  0.00    +0.071 A 
ATOM      6  C   UNL     1      32.257  -8.320 -21.258  0.00  0.00    +0.105 A 
ATOM      7  C   UNL     1      32.641  -9.692 -23.121  0.00  0.00    +0.199 C 
ATOM      8  C   UNL     1      32.315 -10.520 -21.907  0.00  0.00    +0.054 C 
ATOM      9  C   UNL     1      32.087  -9.663 -20.794  0.00  0.00    +0.024 C 
ATOM     10  C   UNL     1      32.225 -11.877 -21.781  0.00  0.00    +0.053 C 
ATOM     11  C   UNL     1      31.770 -10.163 -19.553  0.00  0.00    +0.002 C 
ATOM     12  C   UNL     1      31.907 -12.406 -20.539  0.00  0.00    +0.015 C 
ATOM     13  C   UNL     1      31.681 -11.555 -19.433  0.00  0.00    +0.001 C 
ATOM     14  H   UNL     1      32.518  -5.350 -21.805  0.00  0.00    +0.189 HD
ENDROOT
BRANCH   4  15
ATOM     15  C   UNL     1      33.072  -6.375 -24.318  0.00  0.00    +0.040 C 
ATOM     16  C   UNL     1      32.467  -4.964 -24.418  0.00  0.00    +0.006 C 
ATOM     17  C   UNL     1      34.590  -6.348 -24.568  0.00  0.00    +0.006 C 
ATOM     18  C   UNL     1      32.812  -4.303 -25.751  0.00  0.00    +0.000 C 
ATOM     19  C   UNL     1      34.923  -5.680 -25.900  0.00  0.00    +0.000 C 
ATOM     20  C   UNL     1      34.319  -4.283 -25.998  0.00  0.00    +0.000 C 
ENDBRANCH   4  15
BRANCH  10  22
ATOM     21  O   UNL     1      34.773 -12.605 -23.191  0.00  0.00    -0.277 OA
ATOM     22  N   UNL     1      32.451 -12.743 -22.878  0.00  0.00    -0.286 N 
ATOM     23  C   UNL     1      33.666 -13.043 -23.489  0.00  0.00    +0.205 C 
ATOM     24  H   UNL     1      31.655 -13.186 -23.252  0.00  0.00    +0.155 HD
BRANCH  23  25
ATOM     25  C   UNL     1      33.453 -14.021 -24.631  0.00  0.00    +0.010 C 
BRANCH  25  26
ATOM     26  N   UNL     1      34.393 -15.134 -24.501  0.00  0.00    +0.393 N 
ATOM     27  C   UNL     1      35.195 -17.855 -23.759  0.00  0.00    -0.026 C 
ATOM     28  C   UNL     1      34.941 -17.439 -25.212  0.00  0.00    -0.025 C 
ATOM     29  C   UNL     1      35.587 -16.627 -22.930  0.00  0.00    -0.025 C 
ATOM     30  C   UNL     1      33.941 -16.284 -25.295  0.00  0.00    -0.077 C 
ATOM     31  C   UNL     1      34.565 -15.500 -23.088  0.00  0.00    -0.077 C 
ATOM     32  H   UNL     1      35.300 -14.839 -24.862  0.00  0.00    -0.079 HD
BRANCH  27  33
ATOM     33  C   UNL     1      36.267 -18.938 -23.678  0.00  0.00    -0.086 C 
BRANCH  33  34
ATOM     34  N   UNL     1      37.414 -18.477 -22.909  0.00  0.00    +0.380 N 
ATOM     35  H   UNL     1      38.117 -19.214 -22.872  0.00  0.00    -0.089 HD
ATOM     36  H   UNL     1      37.117 -18.242 -21.962  0.00  0.00    -0.089 HD
ATOM     37  H   UNL     1      37.812 -17.650 -23.355  0.00  0.00    -0.089 HD
ENDBRANCH  33  34
ENDBRANCH  27  33
ENDBRANCH  25  26
ENDBRANCH  23  25
ENDBRANCH  10  22
TORSDOF 6
ENDMDL
MODEL 3
REMARK VINA RESULT:     -10.6      9.243     13.547
REMARK  Name = 5288017
REMARK  6 active torsions:
REMARK  status: ('A' for Active; 'I' for Inactive)
REMARK    1  A    between atoms: C_4  and  C_15
REMARK    2  A    between atoms: C_10  and  N_22
REMARK    3  A    between atoms: C_23  and  C_25
REMARK    4  A    between atoms: C_25  and  N_26
REMARK    5  A    between atoms: C_27  and  C_33
REMARK    6  A    between atoms: C_33  and  N_34
REMARK                            x       y       z     vdW  Elec       q    Type
REMARK                         _______ _______ _______ _____ _____    ______ ____
ROOT
ATOM      1  O   UNL     1      34.582 -14.704 -22.357  0.00  0.00    -0.286 OA
ATOM      2  N   UNL     1      35.135 -18.301 -24.937  0.00  0.00    -0.280 N 
ATOM      3  N   UNL     1      34.798 -17.545 -26.019  0.00  0.00    -0.173 NA
ATOM      4  C   UNL     1      35.128 -17.623 -23.735  0.00  0.00    +0.056 A 
ATOM      5  C   UNL     1      34.764 -16.356 -24.071  0.00  0.00    +0.071 A 
ATOM      6  C   UNL     1      34.577 -16.364 -25.462  0.00  0.00    +0.105 A 
ATOM      7  C   UNL     1      34.511 -15.054 -23.516  0.00  0.00    +0.199 C 
ATOM      8  C   UNL     1      34.141 -14.235 -24.725  0.00  0.00    +0.054 C 
ATOM      9  C   UNL     1      34.189 -15.054 -25.887  0.00  0.00    +0.024 C 
ATOM     10  C   UNL     1      33.798 -12.916 -24.806  0.00  0.00    +0.053 C 
ATOM     11  C   UNL     1      33.894 -14.553 -27.134  0.00  0.00    +0.002 C 
ATOM     12  C   UNL     1      33.496 -12.387 -26.052  0.00  0.00    +0.015 C 
ATOM     13  C   UNL     1      33.544 -13.200 -27.207  0.00  0.00    +0.001 C 
ATOM     14  H   UNL     1      35.367 -19.255 -25.007  0.00  0.00    +0.189 HD
ENDROOT
BRANCH   4  15
ATOM     15  C   UNL     1      35.476 -18.290 -22.413  0.00  0.00    +0.040 C 
ATOM     16  C   UNL     1      34.700 -19.602 -22.213  0.00  0.00    +0.006 C 
ATOM     17  C   UNL     1      36.991 -18.513 -22.266  0.00  0.00    +0.006 C 
ATOM     18  C   UNL     1      35.050 -20.260 -20.879  0.00  0.00    +0.000 C 
ATOM     19  C   UNL     1      37.330 -19.176 -20.932  0.00  0.00    +0.000 C 
ATOM     20  C   UNL     1      36.554 -20.475 -20.734  0.00  0.00    +0.000 C 
ENDBRANCH   4  15
BRANCH  10  22
ATOM     21  O   UNL     1      31.656 -12.607 -22.726  0.00  0.00    -0.277 OA
ATOM     22  N   UNL     1      33.747 -12.088 -23.658  0.00  0.00    -0.286 N 
ATOM     23  C   UNL     1      32.718 -11.992 -22.724  0.00  0.00    +0.205 C 
ATOM     24  H   UNL     1      34.531 -11.515 -23.501  0.00  0.00    +0.155 HD
BRANCH  23  25
ATOM     25  C   UNL     1      33.077 -10.982 -21.649  0.00  0.00    +0.010 C 
BRANCH  25  26
ATOM     26  N   UNL     1      32.337  -9.741 -21.881  0.00  0.00    +0.393 N 
ATOM     27  C   UNL     1      32.060  -6.918 -22.624  0.00  0.00    -0.026 C 
ATOM     28  C   UNL     1      31.644  -8.059 -23.558  0.00  0.00    -0.025 C 
ATOM     29  C   UNL     1      32.006  -7.395 -21.168  0.00  0.00    -0.025 C 
ATOM     30  C   UNL     1      32.456  -9.327 -23.286  0.00  0.00    -0.077 C 
ATOM     31  C   UNL     1      32.808  -8.684 -20.976  0.00  0.00    -0.077 C 
ATOM     32  H   UNL     1      31.351  -9.907 -21.685  0.00  0.00    -0.079 HD
BRANCH  27  33
ATOM     33  C   UNL     1      31.179  -5.689 -22.831  0.00  0.00    -0.086 C 
BRANCH  33  34
ATOM     34  N   UNL     1      30.871  -5.050 -21.561  0.00  0.00    +0.380 N 
ATOM     35  H   UNL     1      30.302  -5.677 -20.994  0.00  0.00    -0.089 HD
ATOM     36  H   UNL     1      30.357  -4.185 -21.731  0.00  0.00    -0.089 HD
ATOM     37  H   UNL     1      31.739  -4.839 -21.068  0.00  0.00    -0.089 HD
ENDBRANCH  33  34
ENDBRANCH  27  33
ENDBRANCH  25  26
ENDBRANCH  23  25
ENDBRANCH  10  22
TORSDOF 6
ENDMDL
MODEL 4
REMARK VINA RESULT:     -10.4      2.352      7.402
REMARK  Name = 5288017
REMARK  6 active torsions:
REMARK  status: ('A' for Active; 'I' for Inactive)
REMARK    1  A    between atoms: C_4  and  C_15
REMARK    2  A    between atoms: C_10  and  N_22
REMARK    3  A    between atoms: C_23  and  C_25
REMARK    4  A    between atoms: C_25  and  N_26
REMARK    5  A    between atoms: C_27  and  C_33
REMARK    6  A    between atoms: C_33  and  N_34
REMARK                            x       y       z     vdW  Elec       q    Type
REMARK                         _______ _______ _______ _____ _____    ______ ____
ROOT
ATOM      1  O   UNL     1      32.961 -23.048 -17.414  0.00  0.00    -0.286 OA
ATOM      2  N   UNL     1      31.828 -24.273 -13.276  0.00  0.00    -0.280 N 
ATOM      3  N   UNL     1      33.145 -24.231 -12.931  0.00  0.00    -0.173 NA
ATOM      4  C   UNL     1      31.567 -23.948 -14.592  0.00  0.00    +0.056 A 
ATOM      5  C   UNL     1      32.792 -23.682 -15.118  0.00  0.00    +0.071 A 
ATOM      6  C   UNL     1      33.709 -23.867 -14.073  0.00  0.00    +0.105 A 
ATOM      7  C   UNL     1      33.455 -23.288 -16.332  0.00  0.00    +0.199 C 
ATOM      8  C   UNL     1      34.905 -23.247 -15.930  0.00  0.00    +0.054 C 
ATOM      9  C   UNL     1      35.029 -23.602 -14.558  0.00  0.00    +0.024 C 
ATOM     10  C   UNL     1      36.004 -22.935 -16.679  0.00  0.00    +0.053 C 
ATOM     11  C   UNL     1      36.253 -23.644 -13.932  0.00  0.00    +0.002 C 
ATOM     12  C   UNL     1      37.250 -22.969 -16.070  0.00  0.00    +0.015 C 
ATOM     13  C   UNL     1      37.373 -23.321 -14.707  0.00  0.00    +0.001 C 
ATOM     14  H   UNL     1      31.119 -24.516 -12.639  0.00  0.00    +0.189 HD
ENDROOT
BRANCH   4  15
ATOM     15  C   UNL     1      30.160 -23.936 -15.172  0.00  0.00    +0.040 C 
ATOM     16  C   UNL     1      29.658 -22.505 -15.429  0.00  0.00    +0.006 C 
ATOM     17  C   UNL     1      30.057 -24.798 -16.442  0.00  0.00    +0.006 C 
ATOM     18  C   UNL     1      28.242 -22.504 -16.003  0.00  0.00    +0.000 C 
ATOM     19  C   UNL     1      28.639 -24.786 -17.010  0.00  0.00    +0.000 C 
ATOM     20  C   UNL     1      28.143 -23.365 -17.260  0.00  0.00    +0.000 C 
ENDBRANCH   4  15
BRANCH  10  22
ATOM     21  O   UNL     1      37.282 -20.691 -18.208  0.00  0.00    -0.277 OA
ATOM     22  N   UNL     1      35.897 -22.579 -18.044  0.00  0.00    -0.286 N 
ATOM     23  C   UNL     1      36.522 -21.520 -18.699  0.00  0.00    +0.205 C 
ATOM     24  H   UNL     1      35.313 -23.147 -18.597  0.00  0.00    +0.155 HD
BRANCH  23  25
ATOM     25  C   UNL     1      36.130 -21.504 -20.166  0.00  0.00    +0.010 C 
BRANCH  25  26
ATOM     26  N   UNL     1      36.002 -20.119 -20.620  0.00  0.00    +0.393 N 
ATOM     27  C   UNL     1      35.772 -17.998 -22.632  0.00  0.00    -0.026 C 
ATOM     28  C   UNL     1      34.575 -18.481 -21.805  0.00  0.00    -0.025 C 
ATOM     29  C   UNL     1      37.073 -18.270 -21.868  0.00  0.00    -0.025 C 
ATOM     30  C   UNL     1      34.750 -19.937 -21.368  0.00  0.00    -0.077 C 
ATOM     31  C   UNL     1      37.165 -19.733 -21.431  0.00  0.00    -0.077 C 
ATOM     32  H   UNL     1      35.972 -19.509 -19.803  0.00  0.00    -0.079 HD
BRANCH  27  33
ATOM     33  C   UNL     1      35.638 -16.518 -22.978  0.00  0.00    -0.086 C 
BRANCH  33  34
ATOM     34  N   UNL     1      35.608 -16.323 -24.421  0.00  0.00    +0.380 N 
ATOM     35  H   UNL     1      36.541 -16.081 -24.750  0.00  0.00    -0.089 HD
ATOM     36  H   UNL     1      34.960 -15.568 -24.648  0.00  0.00    -0.089 HD
ATOM     37  H   UNL     1      35.300 -17.183 -24.873  0.00  0.00    -0.089 HD
ENDBRANCH  33  34
ENDBRANCH  27  33
ENDBRANCH  25  26
ENDBRANCH  23  25
ENDBRANCH  10  22
TORSDOF 6
ENDMDL
MODEL 5
REMARK VINA RESULT:     -10.3      3.163      8.011
REMARK  Name = 5288017
REMARK  6 active torsions:
REMARK  status: ('A' for Active; 'I' for Inactive)
REMARK    1  A    between atoms: C_4  and  C_15
REMARK    2  A    between atoms: C_10  and  N_22
REMARK    3  A    between atoms: C_23  and  C_25
REMARK    4  A    between atoms: C_25  and  N_26
REMARK    5  A    between atoms: C_27  and  C_33
REMARK    6  A    between atoms: C_33  and  N_34
REMARK                            x       y       z     vdW  Elec       q    Type
REMARK                         _______ _______ _______ _____ _____    ______ ____
ROOT
ATOM      1  O   UNL     1      33.065 -22.489 -18.776  0.00  0.00    -0.286 OA
ATOM      2  N   UNL     1      33.097 -24.319 -14.708  0.00  0.00    -0.280 N 
ATOM      3  N   UNL     1      34.428 -24.043 -14.622  0.00  0.00    -0.173 NA
ATOM      4  C   UNL     1      32.502 -23.926 -15.890  0.00  0.00    +0.056 A 
ATOM      5  C   UNL     1      33.516 -23.365 -16.602  0.00  0.00    +0.071 A 
ATOM      6  C   UNL     1      34.656 -23.462 -15.790  0.00  0.00    +0.105 A 
ATOM      7  C   UNL     1      33.817 -22.728 -17.855  0.00  0.00    +0.199 C 
ATOM      8  C   UNL     1      35.289 -22.431 -17.741  0.00  0.00    +0.054 C 
ATOM      9  C   UNL     1      35.769 -22.886 -16.481  0.00  0.00    +0.024 C 
ATOM     10  C   UNL     1      36.124 -21.829 -18.638  0.00  0.00    +0.053 C 
ATOM     11  C   UNL     1      37.088 -22.738 -16.117  0.00  0.00    +0.002 C 
ATOM     12  C   UNL     1      37.458 -21.668 -18.294  0.00  0.00    +0.015 C 
ATOM     13  C   UNL     1      37.936 -22.119 -17.042  0.00  0.00    +0.001 C 
ATOM     14  H   UNL     1      32.598 -24.763 -13.985  0.00  0.00    +0.189 HD
ENDROOT
BRANCH   4  15
ATOM     15  C   UNL     1      31.024 -24.145 -16.178  0.00  0.00    +0.040 C 
ATOM     16  C   UNL     1      30.277 -24.698 -14.952  0.00  0.00    +0.006 C 
ATOM     17  C   UNL     1      30.349 -22.869 -16.711  0.00  0.00    +0.006 C 
ATOM     18  C   UNL     1      28.797 -24.922 -15.255  0.00  0.00    +0.000 C 
ATOM     19  C   UNL     1      28.868 -23.103 -17.005  0.00  0.00    +0.000 C 
ATOM     20  C   UNL     1      28.132 -23.655 -15.788  0.00  0.00    +0.000 C 
ENDBRANCH   4  15
BRANCH  10  22
ATOM     21  O   UNL     1      37.125 -19.602 -20.383  0.00  0.00    -0.277 OA
ATOM     22  N   UNL     1      35.661 -21.370 -19.894  0.00  0.00    -0.286 N 
ATOM     23  C   UNL     1      36.174 -20.326 -20.660  0.00  0.00    +0.205 C 
ATOM     24  H   UNL     1      34.886 -21.846 -20.271  0.00  0.00    +0.155 HD
BRANCH  23  25
ATOM     25  C   UNL     1      35.375 -20.173 -21.942  0.00  0.00    +0.010 C 
BRANCH  25  26
ATOM     26  N   UNL     1      35.612 -18.845 -22.508  0.00  0.00    +0.393 N 
ATOM     27  C   UNL     1      34.808 -16.232 -23.569  0.00  0.00    -0.026 C 
ATOM     28  C   UNL     1      35.386 -16.406 -22.160  0.00  0.00    -0.025 C 
ATOM     29  C   UNL     1      35.291 -17.373 -24.471  0.00  0.00    -0.025 C 
ATOM     30  C   UNL     1      35.098 -17.803 -21.607  0.00  0.00    -0.077 C 
ATOM     31  C   UNL     1      35.006 -18.738 -23.842  0.00  0.00    -0.077 C 
ATOM     32  H   UNL     1      36.617 -18.707 -22.607  0.00  0.00    -0.079 HD
BRANCH  27  33
ATOM     33  C   UNL     1      35.185 -14.873 -24.152  0.00  0.00    -0.086 C 
BRANCH  33  34
ATOM     34  N   UNL     1      34.632 -13.792 -23.350  0.00  0.00    +0.380 N 
ATOM     35  H   UNL     1      35.391 -13.212 -22.994  0.00  0.00    -0.089 HD
ATOM     36  H   UNL     1      34.107 -14.183 -22.567  0.00  0.00    -0.089 HD
ATOM     37  H   UNL     1      34.012 -13.224 -23.926  0.00  0.00    -0.089 HD
ENDBRANCH  33  34
ENDBRANCH  27  33
ENDBRANCH  25  26
ENDBRANCH  23  25
ENDBRANCH  10  22
TORSDOF 6
ENDMDL
MODEL 6
REMARK VINA RESULT:     -10.3      2.955      8.060
REMARK  Name = 5288017
REMARK  6 active torsions:
REMARK  status: ('A' for Active; 'I' for Inactive)
REMARK    1  A    between atoms: C_4  and  C_15
REMARK    2  A    between atoms: C_10  and  N_22
REMARK    3  A    between atoms: C_23  and  C_25
REMARK    4  A    between atoms: C_25  and  N_26
REMARK    5  A    between atoms: C_27  and  C_33
REMARK    6  A    between atoms: C_33  and  N_34
REMARK                            x       y       z     vdW  Elec       q    Type
REMARK                         _______ _______ _______ _____ _____    ______ ____
ROOT
ATOM      1  O   UNL     1      36.093 -23.105 -17.019  0.00  0.00    -0.286 OA
ATOM      2  N   UNL     1      34.799 -24.749 -13.079  0.00  0.00    -0.280 N 
ATOM      3  N   UNL     1      33.505 -24.515 -13.435  0.00  0.00    -0.173 NA
ATOM      4  C   UNL     1      35.733 -24.390 -14.030  0.00  0.00    +0.056 A 
ATOM      5  C   UNL     1      34.989 -23.896 -15.056  0.00  0.00    +0.071 A 
ATOM      6  C   UNL     1      33.651 -23.994 -14.645  0.00  0.00    +0.105 A 
ATOM      7  C   UNL     1      35.092 -23.326 -16.372  0.00  0.00    +0.199 C 
ATOM      8  C   UNL     1      33.655 -23.075 -16.747  0.00  0.00    +0.054 C 
ATOM      9  C   UNL     1      32.806 -23.489 -15.683  0.00  0.00    +0.024 C 
ATOM     10  C   UNL     1      33.139 -22.541 -17.893  0.00  0.00    +0.053 C 
ATOM     11  C   UNL     1      31.438 -23.370 -15.765  0.00  0.00    +0.002 C 
ATOM     12  C   UNL     1      31.762 -22.412 -18.000  0.00  0.00    +0.015 C 
ATOM     13  C   UNL     1      30.918 -22.823 -16.944  0.00  0.00    +0.001 C 
ATOM     14  H   UNL     1      35.049 -25.144 -12.213  0.00  0.00    +0.189 HD
ENDROOT
BRANCH   4  15
ATOM     15  C   UNL     1      37.230 -24.572 -13.822  0.00  0.00    +0.040 C 
ATOM     16  C   UNL     1      37.534 -25.677 -12.797  0.00  0.00    +0.006 C 
ATOM     17  C   UNL     1      37.965 -24.828 -15.149  0.00  0.00    +0.006 C 
ATOM     18  C   UNL     1      39.039 -25.846 -12.589  0.00  0.00    +0.000 C 
ATOM     19  C   UNL     1      39.467 -25.000 -14.930  0.00  0.00    +0.000 C 
ATOM     20  C   UNL     1      39.765 -26.094 -13.909  0.00  0.00    +0.000 C 
ENDBRANCH   4  15
BRANCH  10  22
ATOM     21  O   UNL     1      32.661 -20.514 -20.054  0.00  0.00    -0.277 OA
ATOM     22  N   UNL     1      33.971 -22.126 -18.961  0.00  0.00    -0.286 N 
ATOM     23  C   UNL     1      33.690 -21.172 -19.936  0.00  0.00    +0.205 C 
ATOM     24  H   UNL     1      34.851 -22.563 -19.020  0.00  0.00    +0.155 HD
BRANCH  23  25
ATOM     25  C   UNL     1      34.863 -21.036 -20.891  0.00  0.00    +0.010 C 
BRANCH  25  26
ATOM     26  N   UNL     1      34.756 -19.769 -21.615  0.00  0.00    +0.393 N 
ATOM     27  C   UNL     1      35.743 -17.599 -23.323  0.00  0.00    -0.026 C 
ATOM     28  C   UNL     1      34.782 -18.677 -23.835  0.00  0.00    -0.025 C 
ATOM     29  C   UNL     1      35.590 -17.447 -21.805  0.00  0.00    -0.025 C 
ATOM     30  C   UNL     1      34.943 -19.984 -23.057  0.00  0.00    -0.077 C 
ATOM     31  C   UNL     1      35.726 -18.795 -21.095  0.00  0.00    -0.077 C 
ATOM     32  H   UNL     1      33.821 -19.389 -21.472  0.00  0.00    -0.079 HD
BRANCH  27  33
ATOM     33  C   UNL     1      35.508 -16.270 -24.034  0.00  0.00    -0.086 C 
BRANCH  33  34
ATOM     34  N   UNL     1      35.310 -16.473 -25.462  0.00  0.00    +0.380 N 
ATOM     35  H   UNL     1      36.015 -15.951 -25.980  0.00  0.00    -0.089 HD
ATOM     36  H   UNL     1      34.380 -16.145 -25.726  0.00  0.00    -0.089 HD
ATOM     37  H   UNL     1      35.394 -17.466 -25.679  0.00  0.00    -0.089 HD
ENDBRANCH  33  34
ENDBRANCH  27  33
ENDBRANCH  25  26
ENDBRANCH  23  25
ENDBRANCH  10  22
TORSDOF 6
ENDMDL
MODEL 7
REMARK VINA RESULT:     -10.1      2.266      6.463
REMARK  Name = 5288017
REMARK  6 active torsions:
REMARK  status: ('A' for Active; 'I' for Inactive)
REMARK    1  A    between atoms: C_4  and  C_15
REMARK    2  A    between atoms: C_10  and  N_22
REMARK    3  A    between atoms: C_23  and  C_25
REMARK    4  A    between atoms: C_25  and  N_26
REMARK    5  A    between atoms: C_27  and  C_33
REMARK    6  A    between atoms: C_33  and  N_34
REMARK                            x       y       z     vdW  Elec       q    Type
REMARK                         _______ _______ _______ _____ _____    ______ ____
ROOT
ATOM      1  O   UNL     1      35.140 -24.007 -15.753  0.00  0.00    -0.286 OA
ATOM      2  N   UNL     1      32.328 -22.177 -18.693  0.00  0.00    -0.280 N 
ATOM      3  N   UNL     1      31.293 -22.511 -17.873  0.00  0.00    -0.173 NA
ATOM      4  C   UNL     1      33.575 -22.544 -18.228  0.00  0.00    +0.056 A 
ATOM      5  C   UNL     1      33.319 -23.151 -17.037  0.00  0.00    +0.071 A 
ATOM      6  C   UNL     1      31.927 -23.104 -16.871  0.00  0.00    +0.105 A 
ATOM      7  C   UNL     1      33.957 -23.802 -15.926  0.00  0.00    +0.199 C 
ATOM      8  C   UNL     1      32.800 -24.163 -15.032  0.00  0.00    +0.054 C 
ATOM      9  C   UNL     1      31.584 -23.728 -15.630  0.00  0.00    +0.024 C 
ATOM     10  C   UNL     1      32.802 -24.803 -13.826  0.00  0.00    +0.053 C 
ATOM     11  C   UNL     1      30.368 -23.933 -15.021  0.00  0.00    +0.002 C 
ATOM     12  C   UNL     1      31.589 -25.021 -13.192  0.00  0.00    +0.015 C 
ATOM     13  C   UNL     1      30.381 -24.589 -13.784  0.00  0.00    +0.001 C 
ATOM     14  H   UNL     1      32.198 -21.710 -19.549  0.00  0.00    +0.189 HD
ENDROOT
BRANCH   4  15
ATOM     15  C   UNL     1      34.856 -22.260 -18.998  0.00  0.00    +0.040 C 
ATOM     16  C   UNL     1      34.640 -21.210 -20.100  0.00  0.00    +0.006 C 
ATOM     17  C   UNL     1      36.008 -21.854 -18.063  0.00  0.00    +0.006 C 
ATOM     18  C   UNL     1      35.930 -20.938 -20.873  0.00  0.00    +0.000 C 
ATOM     19  C   UNL     1      37.291 -21.580 -18.845  0.00  0.00    +0.000 C 
ATOM     20  C   UNL     1      37.072 -20.541 -19.941  0.00  0.00    +0.000 C 
ENDBRANCH   4  15
BRANCH  10  22
ATOM     21  O   UNL     1      34.604 -23.418 -11.866  0.00  0.00    -0.277 OA
ATOM     22  N   UNL     1      34.004 -25.240 -13.218  0.00  0.00    -0.286 N 
ATOM     23  C   UNL     1      34.797 -24.546 -12.308  0.00  0.00    +0.205 C 
ATOM     24  H   UNL     1      34.314 -26.141 -13.467  0.00  0.00    +0.155 HD
BRANCH  23  25
ATOM     25  C   UNL     1      35.997 -25.388 -11.909  0.00  0.00    +0.010 C 
BRANCH  25  26
ATOM     26  N   UNL     1      37.025 -25.293 -12.946  0.00  0.00    +0.393 N 
ATOM     27  C   UNL     1      39.589 -25.952 -14.206  0.00  0.00    -0.026 C 
ATOM     28  C   UNL     1      38.254 -26.502 -14.720  0.00  0.00    -0.025 C 
ATOM     29  C   UNL     1      39.353 -24.634 -13.461  0.00  0.00    -0.025 C 
ATOM     30  C   UNL     1      37.220 -26.596 -13.597  0.00  0.00    -0.077 C 
ATOM     31  C   UNL     1      38.283 -24.790 -12.378  0.00  0.00    -0.077 C 
ATOM     32  H   UNL     1      36.712 -24.630 -13.655  0.00  0.00    -0.079 HD
BRANCH  27  33
ATOM     33  C   UNL     1      40.582 -25.766 -15.349  0.00  0.00    -0.086 C 
BRANCH  33  34
ATOM     34  N   UNL     1      40.190 -24.655 -16.204  0.00  0.00    +0.380 N 
ATOM     35  H   UNL     1      40.146 -23.800 -15.650  0.00  0.00    -0.089 HD
ATOM     36  H   UNL     1      39.274 -24.845 -16.610  0.00  0.00    -0.089 HD
ATOM     37  H   UNL     1      40.877 -24.541 -16.949  0.00  0.00    -0.089 HD
ENDBRANCH  33  34
ENDBRANCH  27  33
ENDBRANCH  25  26
ENDBRANCH  23  25
ENDBRANCH  10  22
TORSDOF 6
ENDMDL
MODEL 8
REMARK VINA RESULT:     -10.0      2.708      7.261
REMARK  Name = 5288017
REMARK  6 active torsions:
REMARK  status: ('A' for Active; 'I' for Inactive)
REMARK    1  A    between atoms: C_4  and  C_15
REMARK    2  A    between atoms: C_10  and  N_22
REMARK    3  A    between atoms: C_23  and  C_25
REMARK    4  A    between atoms: C_25  and  N_26
REMARK    5  A    between atoms: C_27  and  C_33
REMARK    6  A    between atoms: C_33  and  N_34
REMARK                            x       y       z     vdW  Elec       q    Type
REMARK                         _______ _______ _______ _____ _____    ______ ____
ROOT
ATOM      1  O   UNL     1      35.974 -23.943 -16.461  0.00  0.00    -0.286 OA
ATOM      2  N   UNL     1      36.334 -24.931 -12.125  0.00  0.00    -0.280 N 
ATOM      3  N   UNL     1      34.981 -24.811 -12.012  0.00  0.00    -0.173 NA
ATOM      4  C   UNL     1      36.828 -24.706 -13.395  0.00  0.00    +0.056 A 
ATOM      5  C   UNL     1      35.723 -24.424 -14.136  0.00  0.00    +0.071 A 
ATOM      6  C   UNL     1      34.636 -24.501 -13.253  0.00  0.00    +0.105 A 
ATOM      7  C   UNL     1      35.295 -24.087 -15.466  0.00  0.00    +0.199 C 
ATOM      8  C   UNL     1      33.801 -23.959 -15.321  0.00  0.00    +0.054 C 
ATOM      9  C   UNL     1      33.432 -24.214 -13.971  0.00  0.00    +0.024 C 
ATOM     10  C   UNL     1      32.861 -23.651 -16.262  0.00  0.00    +0.053 C 
ATOM     11  C   UNL     1      32.119 -24.164 -13.561  0.00  0.00    +0.002 C 
ATOM     12  C   UNL     1      31.531 -23.593 -15.874  0.00  0.00    +0.015 C 
ATOM     13  C   UNL     1      31.163 -23.849 -14.534  0.00  0.00    +0.001 C 
ATOM     14  H   UNL     1      36.912 -25.160 -11.363  0.00  0.00    +0.189 HD
ENDROOT
BRANCH   4  15
ATOM     15  C   UNL     1      38.311 -24.793 -13.726  0.00  0.00    +0.040 C 
ATOM     16  C   UNL     1      38.909 -26.150 -13.320  0.00  0.00    +0.006 C 
ATOM     17  C   UNL     1      38.585 -24.485 -15.208  0.00  0.00    +0.006 C 
ATOM     18  C   UNL     1      40.400 -26.223 -13.649  0.00  0.00    +0.000 C 
ATOM     19  C   UNL     1      40.076 -24.567 -15.528  0.00  0.00    +0.000 C 
ATOM     20  C   UNL     1      40.668 -25.913 -15.120  0.00  0.00    +0.000 C 
ENDBRANCH   4  15
BRANCH  10  22
ATOM     21  O   UNL     1      31.833 -21.585 -18.181  0.00  0.00    -0.277 OA
ATOM     22  N   UNL     1      33.214 -23.395 -17.609  0.00  0.00    -0.286 N 
ATOM     23  C   UNL     1      32.698 -22.412 -18.451  0.00  0.00    +0.205 C 
ATOM     24  H   UNL     1      33.906 -23.979 -17.996  0.00  0.00    +0.155 HD
BRANCH  23  25
ATOM     25  C   UNL     1      33.359 -22.490 -19.816  0.00  0.00    +0.010 C 
BRANCH  25  26
ATOM     26  N   UNL     1      34.297 -21.376 -19.967  0.00  0.00    +0.393 N 
ATOM     27  C   UNL     1      36.339 -19.799 -21.360  0.00  0.00    -0.026 C 
ATOM     28  C   UNL     1      34.874 -19.355 -21.272  0.00  0.00    -0.025 C 
ATOM     29  C   UNL     1      36.673 -20.720 -20.181  0.00  0.00    -0.025 C 
ATOM     30  C   UNL     1      33.935 -20.555 -21.131  0.00  0.00    -0.077 C 
ATOM     31  C   UNL     1      35.675 -21.875 -20.077  0.00  0.00    -0.077 C 
ATOM     32  H   UNL     1      34.240 -20.787 -19.136  0.00  0.00    -0.079 HD
BRANCH  27  33
ATOM     33  C   UNL     1      37.276 -18.596 -21.399  0.00  0.00    -0.086 C 
BRANCH  33  34
ATOM     34  N   UNL     1      38.065 -18.591 -22.622  0.00  0.00    +0.380 N 
ATOM     35  H   UNL     1      37.921 -17.712 -23.116  0.00  0.00    -0.089 HD
ATOM     36  H   UNL     1      37.775 -19.368 -23.216  0.00  0.00    -0.089 HD
ATOM     37  H   UNL     1      39.053 -18.691 -22.388  0.00  0.00    -0.089 HD
ENDBRANCH  33  34
ENDBRANCH  27  33
ENDBRANCH  25  26
ENDBRANCH  23  25
ENDBRANCH  10  22
TORSDOF 6
ENDMDL
MODEL 9
REMARK VINA RESULT:      -9.6     11.821     15.606
REMARK  Name = 5288017
REMARK  6 active torsions:
REMARK  status: ('A' for Active; 'I' for Inactive)
REMARK    1  A    between atoms: C_4  and  C_15
REMARK    2  A    between atoms: C_10  and  N_22
REMARK    3  A    between atoms: C_23  and  C_25
REMARK    4  A    between atoms: C_25  and  N_26
REMARK    5  A    between atoms: C_27  and  C_33
REMARK    6  A    between atoms: C_33  and  N_34
REMARK                            x       y       z     vdW  Elec       q    Type
REMARK                         _______ _______ _______ _____ _____    ______ ____
ROOT
ATOM      1  O   UNL     1      32.701 -10.495 -23.351  0.00  0.00    -0.286 OA
ATOM      2  N   UNL     1      33.808 -14.711 -22.402  0.00  0.00    -0.280 N 
ATOM      3  N   UNL     1      33.380 -14.509 -21.124  0.00  0.00    -0.173 NA
ATOM      4  C   UNL     1      33.685 -13.615 -23.231  0.00  0.00    +0.056 A 
ATOM      5  C   UNL     1      33.146 -12.654 -22.434  0.00  0.00    +0.071 A 
ATOM      6  C   UNL     1      32.982 -13.246 -21.172  0.00  0.00    +0.105 A 
ATOM      7  C   UNL     1      32.700 -11.287 -22.432  0.00  0.00    +0.199 C 
ATOM      8  C   UNL     1      32.232 -11.083 -21.015  0.00  0.00    +0.054 C 
ATOM      9  C   UNL     1      32.415 -12.285 -20.277  0.00  0.00    +0.024 C 
ATOM     10  C   UNL     1      31.704  -9.969 -20.429  0.00  0.00    +0.053 C 
ATOM     11  C   UNL     1      32.067 -12.375 -18.949  0.00  0.00    +0.002 C 
ATOM     12  C   UNL     1      31.345 -10.034 -19.091  0.00  0.00    +0.015 C 
ATOM     13  C   UNL     1      31.525 -11.228 -18.356  0.00  0.00    +0.001 C 
ATOM     14  H   UNL     1      34.175 -15.571 -22.709  0.00  0.00    +0.189 HD
ENDROOT
BRANCH   4  15
ATOM     15  C   UNL     1      34.107 -13.639 -24.693  0.00  0.00    +0.040 C 
ATOM     16  C   UNL     1      33.352 -14.717 -25.488  0.00  0.00    +0.006 C 
ATOM     17  C   UNL     1      33.963 -12.257 -25.354  0.00  0.00    +0.006 C 
ATOM     18  C   UNL     1      33.789 -14.739 -26.952  0.00  0.00    +0.000 C 
ATOM     19  C   UNL     1      34.397 -12.292 -26.818  0.00  0.00    +0.000 C 
ATOM     20  C   UNL     1      33.649 -13.365 -27.603  0.00  0.00    +0.000 C 
ENDBRANCH   4  15
BRANCH  10  22
ATOM     21  O   UNL     1      33.232  -7.388 -20.340  0.00  0.00    -0.277 OA
ATOM     22  N   UNL     1      31.515  -8.766 -21.151  0.00  0.00    -0.286 N 
ATOM     23  C   UNL     1      32.266  -7.596 -21.066  0.00  0.00    +0.205 C 
ATOM     24  H   UNL     1      30.766  -8.757 -21.790  0.00  0.00    +0.155 HD
BRANCH  23  25
ATOM     25  C   UNL     1      31.718  -6.550 -22.020  0.00  0.00    +0.010 C 
BRANCH  25  26
ATOM     26  N   UNL     1      32.794  -6.075 -22.891  0.00  0.00    +0.393 N 
ATOM     27  C   UNL     1      34.200  -5.779 -25.447  0.00  0.00    -0.026 C 
ATOM     28  C   UNL     1      33.375  -4.646 -24.826  0.00  0.00    -0.025 C 
ATOM     29  C   UNL     1      34.684  -6.731 -24.348  0.00  0.00    -0.025 C 
ATOM     30  C   UNL     1      32.256  -5.194 -23.937  0.00  0.00    -0.077 C 
ATOM     31  C   UNL     1      33.521  -7.210 -23.476  0.00  0.00    -0.077 C 
ATOM     32  H   UNL     1      33.452  -5.534 -22.332  0.00  0.00    -0.079 HD
BRANCH  27  33
ATOM     33  C   UNL     1      35.375  -5.226 -26.249  0.00  0.00    -0.086 C 
BRANCH  33  34
ATOM     34  N   UNL     1      35.024  -3.961 -26.880  0.00  0.00    +0.380 N 
ATOM     35  H   UNL     1      34.794  -3.276 -26.161  0.00  0.00    -0.089 HD
ATOM     36  H   UNL     1      34.218  -4.098 -27.490  0.00  0.00    -0.089 HD
ATOM     37  H   UNL     1      35.814  -3.625 -27.429  0.00  0.00    -0.089 HD
ENDBRANCH  33  34
ENDBRANCH  27  33
ENDBRANCH  25  26
ENDBRANCH  23  25
ENDBRANCH  10  22
TORSDOF 6
ENDMDL
