MODEL 1
REMARK VINA RESULT:     -12.8      0.000      0.000
REMARK  Name = 5288641
REMARK  1 active torsions:
REMARK  status: ('A' for Active; 'I' for Inactive)
REMARK    1  A    between atoms: C_14  and  S_23
REMARK                            x       y       z     vdW  Elec       q    Type
REMARK                         _______ _______ _______ _____ _____    ______ ____
ROOT
ATOM      1  O   UNL     1      35.618 -24.439 -14.882  0.00  0.00    -0.270 OA
ATOM      2  O   UNL     1      32.107 -22.413 -18.247  0.00  0.00    -0.285 OA
ATOM      3  N   UNL     1      35.467 -22.846 -17.384  0.00  0.00    -0.310 N 
ATOM      4  N   UNL     1      33.442 -24.990 -14.142  0.00  0.00    -0.280 N 
ATOM      5  C   UNL     1      33.602 -23.757 -16.063  0.00  0.00    +0.071 C 
ATOM      6  C   UNL     1      32.187 -23.983 -15.785  0.00  0.00    +0.020 C 
ATOM      7  C   UNL     1      34.152 -23.088 -17.078  0.00  0.00    +0.092 C 
ATOM      8  C   UNL     1      32.148 -24.737 -14.608  0.00  0.00    +0.051 C 
ATOM      9  C   UNL     1      34.405 -24.419 -14.982  0.00  0.00    +0.251 C 
ATOM     10  C   UNL     1      34.287 -21.816 -19.065  0.00  0.00    +0.054 C 
ATOM     11  C   UNL     1      35.560 -22.098 -18.551  0.00  0.00    +0.051 C 
ATOM     12  C   UNL     1      33.315 -22.435 -18.146  0.00  0.00    +0.210 C 
ATOM     13  C   UNL     1      31.020 -23.616 -16.427  0.00  0.00    +0.020 C 
ATOM     14  C   UNL     1      29.806 -24.021 -15.860  0.00  0.00    +0.112 C 
ATOM     15  C   UNL     1      30.962 -25.147 -14.033  0.00  0.00    +0.016 C 
ATOM     16  C   UNL     1      29.778 -24.779 -14.675  0.00  0.00    +0.020 C 
ATOM     17  C   UNL     1      34.081 -21.087 -20.217  0.00  0.00    +0.004 C 
ATOM     18  C   UNL     1      36.685 -21.640 -19.204  0.00  0.00    +0.015 C 
ATOM     19  C   UNL     1      35.219 -20.623 -20.877  0.00  0.00    +0.000 C 
ATOM     20  C   UNL     1      36.508 -20.897 -20.377  0.00  0.00    +0.001 C 
ATOM     21  H   UNL     1      36.235 -23.157 -16.854  0.00  0.00    +0.152 HD
ATOM     22  H   UNL     1      33.650 -25.503 -13.327  0.00  0.00    +0.155 HD
ENDROOT
BRANCH  14  23
ATOM     23  S   UNL     1      28.303 -23.578 -16.635  0.00  0.00    +0.042 S 
ATOM     24  O   UNL     1      28.627 -22.194 -17.440  0.00  0.00    -0.065 OA
ATOM     25  O   UNL     1      27.999 -24.591 -17.634  0.00  0.00    -0.065 OA
ATOM     26  O   UNL     1      27.355 -23.274 -15.574  0.00  0.00    -0.065 OA
ENDBRANCH  14  23
TORSDOF 1
ENDMDL
MODEL 2
REMARK VINA RESULT:     -11.9      1.053      1.241
REMARK  Name = 5288641
REMARK  1 active torsions:
REMARK  status: ('A' for Active; 'I' for Inactive)
REMARK    1  A    between atoms: C_14  and  S_23
REMARK                            x       y       z     vdW  Elec       q    Type
REMARK                         _______ _______ _______ _____ _____    ______ ____
ROOT
ATOM      1  O   UNL     1      36.598 -23.881 -16.058  0.00  0.00    -0.270 OA
ATOM      2  O   UNL     1      32.284 -22.092 -18.496  0.00  0.00    -0.285 OA
ATOM      3  N   UNL     1      35.775 -22.268 -18.412  0.00  0.00    -0.310 N 
ATOM      4  N   UNL     1      34.689 -24.615 -14.874  0.00  0.00    -0.280 N 
ATOM      5  C   UNL     1      34.324 -23.344 -16.742  0.00  0.00    +0.071 C 
ATOM      6  C   UNL     1      33.028 -23.687 -16.165  0.00  0.00    +0.020 C 
ATOM      7  C   UNL     1      34.582 -22.619 -17.831  0.00  0.00    +0.092 C 
ATOM      8  C   UNL     1      33.309 -24.459 -15.034  0.00  0.00    +0.051 C 
ATOM      9  C   UNL     1      35.395 -23.956 -15.887  0.00  0.00    +0.251 C 
ATOM     10  C   UNL     1      34.176 -21.310 -19.756  0.00  0.00    +0.054 C 
ATOM     11  C   UNL     1      35.549 -21.498 -19.546  0.00  0.00    +0.051 C 
ATOM     12  C   UNL     1      33.482 -22.019 -18.666  0.00  0.00    +0.210 C 
ATOM     13  C   UNL     1      31.723 -23.405 -16.520  0.00  0.00    +0.020 C 
ATOM     14  C   UNL     1      30.700 -23.914 -15.713  0.00  0.00    +0.112 C 
ATOM     15  C   UNL     1      32.314 -24.972 -14.224  0.00  0.00    +0.016 C 
ATOM     16  C   UNL     1      30.993 -24.690 -14.576  0.00  0.00    +0.020 C 
ATOM     17  C   UNL     1      33.665 -20.582 -20.809  0.00  0.00    +0.004 C 
ATOM     18  C   UNL     1      36.463 -20.941 -20.417  0.00  0.00    +0.015 C 
ATOM     19  C   UNL     1      34.589 -20.020 -21.690  0.00  0.00    +0.000 C 
ATOM     20  C   UNL     1      35.974 -20.197 -21.496  0.00  0.00    +0.001 C 
ATOM     21  H   UNL     1      36.663 -22.525 -18.075  0.00  0.00    +0.152 HD
ATOM     22  H   UNL     1      35.111 -25.122 -14.142  0.00  0.00    +0.155 HD
ENDROOT
BRANCH  14  23
ATOM     23  S   UNL     1      29.033 -23.581 -16.121  0.00  0.00    +0.042 S 
ATOM     24  O   UNL     1      28.684 -22.167 -15.379  0.00  0.00    -0.065 OA
ATOM     25  O   UNL     1      28.963 -23.339 -17.554  0.00  0.00    -0.065 OA
ATOM     26  O   UNL     1      28.231 -24.626 -15.504  0.00  0.00    -0.065 OA
ENDBRANCH  14  23
TORSDOF 1
ENDMDL
MODEL 3
REMARK VINA RESULT:     -11.2      2.897      5.375
REMARK  Name = 5288641
REMARK  1 active torsions:
REMARK  status: ('A' for Active; 'I' for Inactive)
REMARK    1  A    between atoms: C_14  and  S_23
REMARK                            x       y       z     vdW  Elec       q    Type
REMARK                         _______ _______ _______ _____ _____    ______ ____
ROOT
ATOM      1  O   UNL     1      31.055 -22.884 -17.246  0.00  0.00    -0.270 OA
ATOM      2  O   UNL     1      36.232 -22.386 -18.077  0.00  0.00    -0.285 OA
ATOM      3  N   UNL     1      32.983 -21.683 -19.159  0.00  0.00    -0.310 N 
ATOM      4  N   UNL     1      32.218 -23.988 -15.511  0.00  0.00    -0.280 N 
ATOM      5  C   UNL     1      33.484 -22.973 -17.125  0.00  0.00    +0.071 C 
ATOM      6  C   UNL     1      34.388 -23.590 -16.159  0.00  0.00    +0.020 C 
ATOM      7  C   UNL     1      33.789 -22.280 -18.223  0.00  0.00    +0.092 C 
ATOM      8  C   UNL     1      33.566 -24.192 -15.201  0.00  0.00    +0.051 C 
ATOM      9  C   UNL     1      32.074 -23.243 -16.687  0.00  0.00    +0.251 C 
ATOM     10  C   UNL     1      35.121 -21.240 -19.875  0.00  0.00    +0.054 C 
ATOM     11  C   UNL     1      33.755 -21.068 -20.137  0.00  0.00    +0.051 C 
ATOM     12  C   UNL     1      35.216 -22.028 -18.633  0.00  0.00    +0.210 C 
ATOM     13  C   UNL     1      35.764 -23.663 -16.054  0.00  0.00    +0.020 C 
ATOM     14  C   UNL     1      36.301 -24.356 -14.964  0.00  0.00    +0.112 C 
ATOM     15  C   UNL     1      34.076 -24.880 -14.118  0.00  0.00    +0.016 C 
ATOM     16  C   UNL     1      35.466 -24.958 -14.005  0.00  0.00    +0.020 C 
ATOM     17  C   UNL     1      36.116 -20.734 -20.684  0.00  0.00    +0.004 C 
ATOM     18  C   UNL     1      33.349 -20.362 -21.250  0.00  0.00    +0.015 C 
ATOM     19  C   UNL     1      35.706 -20.020 -21.810  0.00  0.00    +0.000 C 
ATOM     20  C   UNL     1      34.337 -19.835 -22.090  0.00  0.00    +0.001 C 
ATOM     21  H   UNL     1      32.000 -21.690 -19.142  0.00  0.00    +0.152 HD
ATOM     22  H   UNL     1      31.466 -24.326 -14.972  0.00  0.00    +0.155 HD
ENDROOT
BRANCH  14  23
ATOM     23  S   UNL     1      38.037 -24.476 -14.790  0.00  0.00    +0.042 S 
ATOM     24  O   UNL     1      38.351 -23.966 -13.269  0.00  0.00    -0.065 OA
ATOM     25  O   UNL     1      38.396 -25.885 -14.850  0.00  0.00    -0.065 OA
ATOM     26  O   UNL     1      38.621 -23.520 -15.718  0.00  0.00    -0.065 OA
ENDBRANCH  14  23
TORSDOF 1
ENDMDL
MODEL 4
REMARK VINA RESULT:     -10.7      3.576      6.877
REMARK  Name = 5288641
REMARK  1 active torsions:
REMARK  status: ('A' for Active; 'I' for Inactive)
REMARK    1  A    between atoms: C_14  and  S_23
REMARK                            x       y       z     vdW  Elec       q    Type
REMARK                         _______ _______ _______ _____ _____    ______ ____
ROOT
ATOM      1  O   UNL     1      34.695 -22.149 -18.461  0.00  0.00    -0.270 OA
ATOM      2  O   UNL     1      33.216 -24.553 -14.014  0.00  0.00    -0.285 OA
ATOM      3  N   UNL     1      32.261 -23.082 -17.038  0.00  0.00    -0.310 N 
ATOM      4  N   UNL     1      36.620 -22.646 -17.184  0.00  0.00    -0.280 N 
ATOM      5  C   UNL     1      34.601 -23.266 -16.301  0.00  0.00    +0.071 C 
ATOM      6  C   UNL     1      35.648 -23.660 -15.363  0.00  0.00    +0.020 C 
ATOM      7  C   UNL     1      33.282 -23.432 -16.191  0.00  0.00    +0.092 C 
ATOM      8  C   UNL     1      36.852 -23.260 -15.949  0.00  0.00    +0.051 C 
ATOM      9  C   UNL     1      35.253 -22.606 -17.481  0.00  0.00    +0.251 C 
ATOM     10  C   UNL     1      31.212 -24.084 -15.256  0.00  0.00    +0.054 C 
ATOM     11  C   UNL     1      31.038 -23.460 -16.499  0.00  0.00    +0.051 C 
ATOM     12  C   UNL     1      32.662 -24.098 -14.992  0.00  0.00    +0.210 C 
ATOM     13  C   UNL     1      35.636 -24.292 -14.134  0.00  0.00    +0.020 C 
ATOM     14  C   UNL     1      36.864 -24.515 -13.502  0.00  0.00    +0.112 C 
ATOM     15  C   UNL     1      38.075 -23.471 -15.342  0.00  0.00    +0.016 C 
ATOM     16  C   UNL     1      38.071 -24.109 -14.100  0.00  0.00    +0.020 C 
ATOM     17  C   UNL     1      30.165 -24.561 -14.496  0.00  0.00    +0.004 C 
ATOM     18  C   UNL     1      29.770 -23.298 -17.018  0.00  0.00    +0.015 C 
ATOM     19  C   UNL     1      28.883 -24.396 -15.021  0.00  0.00    +0.000 C 
ATOM     20  C   UNL     1      28.687 -23.772 -16.269  0.00  0.00    +0.001 C 
ATOM     21  H   UNL     1      32.377 -22.627 -17.903  0.00  0.00    +0.152 HD
ATOM     22  H   UNL     1      37.326 -22.287 -17.769  0.00  0.00    +0.155 HD
ENDROOT
BRANCH  14  23
ATOM     23  S   UNL     1      36.901 -25.311 -11.945  0.00  0.00    +0.042 S 
ATOM     24  O   UNL     1      35.371 -25.214 -11.379  0.00  0.00    -0.065 OA
ATOM     25  O   UNL     1      37.184 -26.720 -12.169  0.00  0.00    -0.065 OA
ATOM     26  O   UNL     1      37.754 -24.509 -11.082  0.00  0.00    -0.065 OA
ENDBRANCH  14  23
TORSDOF 1
ENDMDL
MODEL 5
REMARK VINA RESULT:      -9.8      3.365      5.646
REMARK  Name = 5288641
REMARK  1 active torsions:
REMARK  status: ('A' for Active; 'I' for Inactive)
REMARK    1  A    between atoms: C_14  and  S_23
REMARK                            x       y       z     vdW  Elec       q    Type
REMARK                         _______ _______ _______ _____ _____    ______ ____
ROOT
ATOM      1  O   UNL     1      32.589 -24.936 -12.725  0.00  0.00    -0.270 OA
ATOM      2  O   UNL     1      36.205 -23.916 -16.417  0.00  0.00    -0.285 OA
ATOM      3  N   UNL     1      35.502 -25.195 -13.240  0.00  0.00    -0.310 N 
ATOM      4  N   UNL     1      31.524 -23.942 -14.586  0.00  0.00    -0.280 N 
ATOM      5  C   UNL     1      33.786 -24.254 -14.732  0.00  0.00    +0.071 C 
ATOM      6  C   UNL     1      33.332 -23.633 -15.972  0.00  0.00    +0.020 C 
ATOM      7  C   UNL     1      35.024 -24.612 -14.386  0.00  0.00    +0.092 C 
ATOM      8  C   UNL     1      31.952 -23.467 -15.829  0.00  0.00    +0.051 C 
ATOM      9  C   UNL     1      32.595 -24.447 -13.840  0.00  0.00    +0.251 C 
ATOM     10  C   UNL     1      37.360 -24.923 -14.565  0.00  0.00    +0.054 C 
ATOM     11  C   UNL     1      36.876 -25.383 -13.332  0.00  0.00    +0.051 C 
ATOM     12  C   UNL     1      36.198 -24.403 -15.307  0.00  0.00    +0.210 C 
ATOM     13  C   UNL     1      33.975 -23.234 -17.128  0.00  0.00    +0.020 C 
ATOM     14  C   UNL     1      33.202 -22.660 -18.142  0.00  0.00    +0.112 C 
ATOM     15  C   UNL     1      31.169 -22.903 -16.818  0.00  0.00    +0.016 C 
ATOM     16  C   UNL     1      31.813 -22.496 -17.989  0.00  0.00    +0.020 C 
ATOM     17  C   UNL     1      38.689 -24.985 -14.926  0.00  0.00    +0.004 C 
ATOM     18  C   UNL     1      37.743 -25.931 -12.411  0.00  0.00    +0.015 C 
ATOM     19  C   UNL     1      39.567 -25.540 -13.994  0.00  0.00    +0.000 C 
ATOM     20  C   UNL     1      39.099 -26.008 -12.749  0.00  0.00    +0.001 C 
ATOM     21  H   UNL     1      34.952 -25.443 -12.463  0.00  0.00    +0.152 HD
ATOM     22  H   UNL     1      30.589 -23.923 -14.274  0.00  0.00    +0.155 HD
ENDROOT
BRANCH  14  23
ATOM     23  S   UNL     1      33.971 -22.137 -19.623  0.00  0.00    +0.042 S 
ATOM     24  O   UNL     1      34.376 -23.514 -20.404  0.00  0.00    -0.065 OA
ATOM     25  O   UNL     1      32.969 -21.465 -20.435  0.00  0.00    -0.065 OA
ATOM     26  O   UNL     1      35.198 -21.455 -19.242  0.00  0.00    -0.065 OA
ENDBRANCH  14  23
TORSDOF 1
ENDMDL
MODEL 6
REMARK VINA RESULT:      -9.8      3.010      6.448
REMARK  Name = 5288641
REMARK  1 active torsions:
REMARK  status: ('A' for Active; 'I' for Inactive)
REMARK    1  A    between atoms: C_14  and  S_23
REMARK                            x       y       z     vdW  Elec       q    Type
REMARK                         _______ _______ _______ _____ _____    ______ ____
ROOT
ATOM      1  O   UNL     1      35.400 -24.490 -12.973  0.00  0.00    -0.270 OA
ATOM      2  O   UNL     1      32.952 -23.080 -17.420  0.00  0.00    -0.285 OA
ATOM      3  N   UNL     1      32.720 -24.544 -14.254  0.00  0.00    -0.310 N 
ATOM      4  N   UNL     1      36.968 -23.477 -14.423  0.00  0.00    -0.280 N 
ATOM      5  C   UNL     1      34.814 -23.643 -15.179  0.00  0.00    +0.071 C 
ATOM      6  C   UNL     1      35.612 -22.995 -16.216  0.00  0.00    +0.020 C 
ATOM      7  C   UNL     1      33.514 -23.939 -15.196  0.00  0.00    +0.092 C 
ATOM      8  C   UNL     1      36.911 -22.921 -15.704  0.00  0.00    +0.051 C 
ATOM      9  C   UNL     1      35.715 -23.950 -14.018  0.00  0.00    +0.251 C 
ATOM     10  C   UNL     1      31.298 -24.096 -16.002  0.00  0.00    +0.054 C 
ATOM     11  C   UNL     1      31.414 -24.642 -14.716  0.00  0.00    +0.051 C 
ATOM     12  C   UNL     1      32.640 -23.616 -16.378  0.00  0.00    +0.210 C 
ATOM     13  C   UNL     1      35.320 -22.502 -17.473  0.00  0.00    +0.020 C 
ATOM     14  C   UNL     1      36.362 -21.931 -18.211  0.00  0.00    +0.112 C 
ATOM     15  C   UNL     1      37.954 -22.360 -16.415  0.00  0.00    +0.016 C 
ATOM     16  C   UNL     1      37.666 -21.860 -17.686  0.00  0.00    +0.020 C 
ATOM     17  C   UNL     1      30.112 -24.060 -16.704  0.00  0.00    +0.004 C 
ATOM     18  C   UNL     1      30.308 -25.179 -14.092  0.00  0.00    +0.015 C 
ATOM     19  C   UNL     1      28.993 -24.603 -16.073  0.00  0.00    +0.000 C 
ATOM     20  C   UNL     1      29.089 -25.157 -14.780  0.00  0.00    +0.001 C 
ATOM     21  H   UNL     1      33.031 -24.863 -13.377  0.00  0.00    +0.152 HD
ATOM     22  H   UNL     1      37.785 -23.531 -13.875  0.00  0.00    +0.155 HD
ENDROOT
BRANCH  14  23
ATOM     23  S   UNL     1      36.041 -21.295 -19.807  0.00  0.00    +0.042 S 
ATOM     24  O   UNL     1      34.441 -20.963 -19.822  0.00  0.00    -0.065 OA
ATOM     25  O   UNL     1      36.741 -20.025 -19.932  0.00  0.00    -0.065 OA
ATOM     26  O   UNL     1      36.289 -22.375 -20.749  0.00  0.00    -0.065 OA
ENDBRANCH  14  23
TORSDOF 1
ENDMDL
