MODEL 1
REMARK VINA RESULT:     -11.2      0.000      0.000
REMARK  Name = 449087
REMARK  3 active torsions:
REMARK  status: ('A' for Active; 'I' for Inactive)
REMARK    1  A    between atoms: C_5  and  C_11
REMARK    2  A    between atoms: C_8  and  C_14
REMARK    3  A    between atoms: C_14  and  C_15
REMARK                            x       y       z     vdW  Elec       q    Type
REMARK                         _______ _______ _______ _____ _____    ______ ____
ROOT
ATOM      1  O   UNL     1      35.640 -16.860 -21.752  0.00  0.00    -0.274 OA
ATOM      2  N   UNL     1      34.235 -15.378 -26.187  0.00  0.00    -0.239 N 
ATOM      3  N   UNL     1      34.806 -16.573 -25.964  0.00  0.00    -0.166 NA
ATOM      4  N   UNL     1      35.606 -17.622 -23.974  0.00  0.00    -0.268 N 
ATOM      5  C   UNL     1      34.087 -14.620 -25.062  0.00  0.00    +0.045 C 
ATOM      6  C   UNL     1      34.594 -15.373 -24.032  0.00  0.00    +0.048 C 
ATOM      7  C   UNL     1      35.016 -16.550 -24.655  0.00  0.00    +0.152 C 
ATOM      8  C   UNL     1      35.872 -17.705 -22.610  0.00  0.00    +0.232 C 
ATOM      9  H   UNL     1      33.951 -15.076 -27.079  0.00  0.00    +0.174 HD
ATOM     10  H   UNL     1      35.861 -18.401 -24.519  0.00  0.00    +0.156 HD
ENDROOT
BRANCH   5  11
ATOM     11  C   UNL     1      33.479 -13.227 -24.976  0.00  0.00    +0.037 C 
ATOM     12  C   UNL     1      34.171 -12.172 -24.149  0.00  0.00    +0.006 C 
ATOM     13  C   UNL     1      34.182 -12.074 -25.646  0.00  0.00    +0.006 C 
ENDBRANCH   5  11
BRANCH   8  14
ATOM     14  C   UNL     1      36.522 -19.043 -22.265  0.00  0.00    +0.112 C 
BRANCH  14  15
ATOM     15  C   UNL     1      35.701 -19.901 -21.362  0.00  0.00    -0.013 C 
ATOM     16  C   UNL     1      35.546 -21.392 -19.447  0.00  0.00    -0.000 C 
ATOM     17  C   UNL     1      36.306 -20.580 -20.305  0.00  0.00    -0.004 C 
ATOM     18  C   UNL     1      34.153 -21.514 -19.662  0.00  0.00    -0.000 C 
ATOM     19  C   UNL     1      34.330 -20.021 -21.574  0.00  0.00    -0.004 C 
ATOM     20  C   UNL     1      33.561 -20.822 -20.731  0.00  0.00    -0.000 C 
ATOM     21  C   UNL     1      36.139 -22.084 -18.378  0.00  0.00    -0.000 C 
ATOM     22  C   UNL     1      33.393 -22.325 -18.803  0.00  0.00    -0.000 C 
ATOM     23  C   UNL     1      35.369 -22.886 -17.534  0.00  0.00    -0.000 C 
ATOM     24  C   UNL     1      33.999 -23.006 -17.747  0.00  0.00    -0.000 C 
ENDBRANCH  14  15
ENDBRANCH   8  14
TORSDOF 3
ENDMDL
MODEL 2
REMARK VINA RESULT:     -10.9      1.975      2.846
REMARK  Name = 449087
REMARK  3 active torsions:
REMARK  status: ('A' for Active; 'I' for Inactive)
REMARK    1  A    between atoms: C_5  and  C_11
REMARK    2  A    between atoms: C_8  and  C_14
REMARK    3  A    between atoms: C_14  and  C_15
REMARK                            x       y       z     vdW  Elec       q    Type
REMARK                         _______ _______ _______ _____ _____    ______ ____
ROOT
ATOM      1  O   UNL     1      35.052 -16.221 -21.230  0.00  0.00    -0.274 OA
ATOM      2  N   UNL     1      33.318 -12.668 -24.095  0.00  0.00    -0.239 N 
ATOM      3  N   UNL     1      33.960 -13.746 -24.577  0.00  0.00    -0.166 NA
ATOM      4  N   UNL     1      34.926 -15.647 -23.505  0.00  0.00    -0.268 N 
ATOM      5  C   UNL     1      33.198 -12.659 -22.736  0.00  0.00    +0.045 C 
ATOM      6  C   UNL     1      33.802 -13.812 -22.298  0.00  0.00    +0.048 C 
ATOM      7  C   UNL     1      34.244 -14.425 -23.474  0.00  0.00    +0.152 C 
ATOM      8  C   UNL     1      35.275 -16.441 -22.415  0.00  0.00    +0.232 C 
ATOM      9  H   UNL     1      32.967 -11.950 -24.669  0.00  0.00    +0.174 HD
ATOM     10  H   UNL     1      35.187 -15.982 -24.393  0.00  0.00    +0.156 HD
ENDROOT
BRANCH   5  11
ATOM     11  C   UNL     1      32.528 -11.588 -21.887  0.00  0.00    +0.037 C 
ATOM     12  C   UNL     1      31.025 -11.593 -21.748  0.00  0.00    +0.006 C 
ATOM     13  C   UNL     1      31.885 -11.980 -20.580  0.00  0.00    +0.006 C 
ENDBRANCH   5  11
BRANCH   8  14
ATOM     14  C   UNL     1      36.010 -17.698 -22.874  0.00  0.00    +0.112 C 
BRANCH  14  15
ATOM     15  C   UNL     1      35.972 -18.817 -21.887  0.00  0.00    -0.013 C 
ATOM     16  C   UNL     1      34.703 -20.476 -20.641  0.00  0.00    -0.000 C 
ATOM     17  C   UNL     1      34.756 -19.422 -21.568  0.00  0.00    -0.004 C 
ATOM     18  C   UNL     1      35.899 -20.923 -20.032  0.00  0.00    -0.000 C 
ATOM     19  C   UNL     1      37.148 -19.257 -21.288  0.00  0.00    -0.004 C 
ATOM     20  C   UNL     1      37.114 -20.302 -20.366  0.00  0.00    -0.000 C 
ATOM     21  C   UNL     1      33.488 -21.097 -20.306  0.00  0.00    -0.000 C 
ATOM     22  C   UNL     1      35.846 -21.978 -19.105  0.00  0.00    -0.000 C 
ATOM     23  C   UNL     1      33.454 -22.143 -19.383  0.00  0.00    -0.000 C 
ATOM     24  C   UNL     1      34.630 -22.582 -18.784  0.00  0.00    -0.000 C 
ENDBRANCH  14  15
ENDBRANCH   8  14
TORSDOF 3
ENDMDL
MODEL 3
REMARK VINA RESULT:     -10.8      1.778      2.017
REMARK  Name = 449087
REMARK  3 active torsions:
REMARK  status: ('A' for Active; 'I' for Inactive)
REMARK    1  A    between atoms: C_5  and  C_11
REMARK    2  A    between atoms: C_8  and  C_14
REMARK    3  A    between atoms: C_14  and  C_15
REMARK                            x       y       z     vdW  Elec       q    Type
REMARK                         _______ _______ _______ _____ _____    ______ ____
ROOT
ATOM      1  O   UNL     1      35.845 -17.950 -23.674  0.00  0.00    -0.274 OA
ATOM      2  N   UNL     1      34.089 -14.064 -21.296  0.00  0.00    -0.239 N 
ATOM      3  N   UNL     1      34.665 -15.104 -20.669  0.00  0.00    -0.166 NA
ATOM      4  N   UNL     1      35.620 -17.135 -21.482  0.00  0.00    -0.268 N 
ATOM      5  C   UNL     1      34.040 -14.197 -22.653  0.00  0.00    +0.045 C 
ATOM      6  C   UNL     1      34.626 -15.406 -22.934  0.00  0.00    +0.048 C 
ATOM      7  C   UNL     1      34.982 -15.904 -21.677  0.00  0.00    +0.152 C 
ATOM      8  C   UNL     1      35.998 -18.050 -22.461  0.00  0.00    +0.232 C 
ATOM      9  H   UNL     1      33.734 -13.280 -20.820  0.00  0.00    +0.174 HD
ATOM     10  H   UNL     1      35.824 -17.381 -20.550  0.00  0.00    +0.156 HD
ENDROOT
BRANCH   5  11
ATOM     11  C   UNL     1      33.455 -13.201 -23.645  0.00  0.00    +0.037 C 
ATOM     12  C   UNL     1      34.367 -12.192 -24.299  0.00  0.00    +0.006 C 
ATOM     13  C   UNL     1      33.806 -13.326 -25.106  0.00  0.00    +0.006 C 
ENDBRANCH   5  11
BRANCH   8  14
ATOM     14  C   UNL     1      36.670 -19.270 -21.834  0.00  0.00    +0.112 C 
BRANCH  14  15
ATOM     15  C   UNL     1      35.754 -20.103 -21.001  0.00  0.00    -0.013 C 
ATOM     16  C   UNL     1      35.410 -21.616 -19.128  0.00  0.00    -0.000 C 
ATOM     17  C   UNL     1      36.259 -20.827 -19.921  0.00  0.00    -0.004 C 
ATOM     18  C   UNL     1      34.030 -21.670 -19.433  0.00  0.00    -0.000 C 
ATOM     19  C   UNL     1      34.396 -20.157 -21.302  0.00  0.00    -0.004 C 
ATOM     20  C   UNL     1      33.539 -20.935 -20.524  0.00  0.00    -0.000 C 
ATOM     21  C   UNL     1      35.902 -22.351 -18.037  0.00  0.00    -0.000 C 
ATOM     22  C   UNL     1      33.181 -22.459 -18.639  0.00  0.00    -0.000 C 
ATOM     23  C   UNL     1      35.045 -23.130 -17.259  0.00  0.00    -0.000 C 
ATOM     24  C   UNL     1      33.687 -23.184 -17.559  0.00  0.00    -0.000 C 
ENDBRANCH  14  15
ENDBRANCH   8  14
TORSDOF 3
ENDMDL
MODEL 4
REMARK VINA RESULT:     -10.7      2.766      8.332
REMARK  Name = 449087
REMARK  3 active torsions:
REMARK  status: ('A' for Active; 'I' for Inactive)
REMARK    1  A    between atoms: C_5  and  C_11
REMARK    2  A    between atoms: C_8  and  C_14
REMARK    3  A    between atoms: C_14  and  C_15
REMARK                            x       y       z     vdW  Elec       q    Type
REMARK                         _______ _______ _______ _____ _____    ______ ____
ROOT
ATOM      1  O   UNL     1      34.548 -19.786 -22.215  0.00  0.00    -0.274 OA
ATOM      2  N   UNL     1      36.146 -22.120 -18.236  0.00  0.00    -0.239 N 
ATOM      3  N   UNL     1      36.870 -21.182 -18.871  0.00  0.00    -0.166 NA
ATOM      4  N   UNL     1      36.426 -19.855 -20.805  0.00  0.00    -0.268 N 
ATOM      5  C   UNL     1      34.930 -22.358 -18.805  0.00  0.00    +0.045 C 
ATOM      6  C   UNL     1      34.851 -21.516 -19.888  0.00  0.00    +0.048 C 
ATOM      7  C   UNL     1      36.068 -20.831 -19.867  0.00  0.00    +0.152 C 
ATOM      8  C   UNL     1      35.667 -19.409 -21.885  0.00  0.00    +0.232 C 
ATOM      9  H   UNL     1      36.465 -22.592 -17.433  0.00  0.00    +0.174 HD
ATOM     10  H   UNL     1      37.310 -19.437 -20.689  0.00  0.00    +0.156 HD
ENDROOT
BRANCH   5  11
ATOM     11  C   UNL     1      33.880 -23.352 -18.329  0.00  0.00    +0.037 C 
ATOM     12  C   UNL     1      33.672 -23.550 -16.848  0.00  0.00    +0.006 C 
ATOM     13  C   UNL     1      32.629 -22.838 -17.661  0.00  0.00    +0.006 C 
ENDBRANCH   5  11
BRANCH   8  14
ATOM     14  C   UNL     1      36.416 -18.332 -22.666  0.00  0.00    +0.112 C 
BRANCH  14  15
ATOM     15  C   UNL     1      35.637 -17.075 -22.863  0.00  0.00    -0.013 C 
ATOM     16  C   UNL     1      34.392 -15.207 -21.929  0.00  0.00    -0.000 C 
ATOM     17  C   UNL     1      35.127 -16.391 -21.760  0.00  0.00    -0.004 C 
ATOM     18  C   UNL     1      34.173 -14.708 -23.235  0.00  0.00    -0.000 C 
ATOM     19  C   UNL     1      35.422 -16.585 -24.148  0.00  0.00    -0.004 C 
ATOM     20  C   UNL     1      34.695 -15.409 -24.334  0.00  0.00    -0.000 C 
ATOM     21  C   UNL     1      33.869 -14.506 -20.829  0.00  0.00    -0.000 C 
ATOM     22  C   UNL     1      33.438 -13.523 -23.403  0.00  0.00    -0.000 C 
ATOM     23  C   UNL     1      33.141 -13.330 -21.015  0.00  0.00    -0.000 C 
ATOM     24  C   UNL     1      32.926 -12.840 -22.300  0.00  0.00    -0.000 C 
ENDBRANCH  14  15
ENDBRANCH   8  14
TORSDOF 3
ENDMDL
MODEL 5
REMARK VINA RESULT:     -10.6      2.790      8.666
REMARK  Name = 449087
REMARK  3 active torsions:
REMARK  status: ('A' for Active; 'I' for Inactive)
REMARK    1  A    between atoms: C_5  and  C_11
REMARK    2  A    between atoms: C_8  and  C_14
REMARK    3  A    between atoms: C_14  and  C_15
REMARK                            x       y       z     vdW  Elec       q    Type
REMARK                         _______ _______ _______ _____ _____    ______ ____
ROOT
ATOM      1  O   UNL     1      34.545 -20.081 -21.662  0.00  0.00    -0.274 OA
ATOM      2  N   UNL     1      35.946 -22.571 -17.703  0.00  0.00    -0.239 N 
ATOM      3  N   UNL     1      36.768 -21.749 -18.377  0.00  0.00    -0.166 NA
ATOM      4  N   UNL     1      36.444 -20.393 -20.315  0.00  0.00    -0.268 N 
ATOM      5  C   UNL     1      34.689 -22.645 -18.228  0.00  0.00    +0.045 C 
ATOM      6  C   UNL     1      34.688 -21.812 -19.320  0.00  0.00    +0.048 C 
ATOM      7  C   UNL     1      35.988 -21.301 -19.350  0.00  0.00    +0.152 C 
ATOM      8  C   UNL     1      35.716 -19.859 -21.375  0.00  0.00    +0.232 C 
ATOM      9  H   UNL     1      36.225 -23.074 -16.905  0.00  0.00    +0.174 HD
ATOM     10  H   UNL     1      37.381 -20.101 -20.234  0.00  0.00    +0.156 HD
ENDROOT
BRANCH   5  11
ATOM     11  C   UNL     1      33.529 -23.480 -17.702  0.00  0.00    +0.037 C 
ATOM     12  C   UNL     1      33.100 -23.320 -16.265  0.00  0.00    +0.006 C 
ATOM     13  C   UNL     1      32.225 -22.801 -17.368  0.00  0.00    +0.006 C 
ENDBRANCH   5  11
BRANCH   8  14
ATOM     14  C   UNL     1      36.578 -18.904 -22.197  0.00  0.00    +0.112 C 
BRANCH  14  15
ATOM     15  C   UNL     1      35.864 -17.669 -22.635  0.00  0.00    -0.013 C 
ATOM     16  C   UNL     1      34.853 -16.342 -24.405  0.00  0.00    -0.000 C 
ATOM     17  C   UNL     1      35.525 -17.499 -23.977  0.00  0.00    -0.004 C 
ATOM     18  C   UNL     1      34.519 -15.345 -23.458  0.00  0.00    -0.000 C 
ATOM     19  C   UNL     1      35.535 -16.688 -21.704  0.00  0.00    -0.004 C 
ATOM     20  C   UNL     1      34.867 -15.534 -22.111  0.00  0.00    -0.000 C 
ATOM     21  C   UNL     1      34.506 -16.153 -25.753  0.00  0.00    -0.000 C 
ATOM     22  C   UNL     1      33.846 -14.188 -23.887  0.00  0.00    -0.000 C 
ATOM     23  C   UNL     1      33.838 -14.998 -26.161  0.00  0.00    -0.000 C 
ATOM     24  C   UNL     1      33.509 -14.018 -25.230  0.00  0.00    -0.000 C 
ENDBRANCH  14  15
ENDBRANCH   8  14
TORSDOF 3
ENDMDL
MODEL 6
REMARK VINA RESULT:     -10.6      2.396      7.956
REMARK  Name = 449087
REMARK  3 active torsions:
REMARK  status: ('A' for Active; 'I' for Inactive)
REMARK    1  A    between atoms: C_5  and  C_11
REMARK    2  A    between atoms: C_8  and  C_14
REMARK    3  A    between atoms: C_14  and  C_15
REMARK                            x       y       z     vdW  Elec       q    Type
REMARK                         _______ _______ _______ _____ _____    ______ ____
ROOT
ATOM      1  O   UNL     1      34.587 -18.289 -23.847  0.00  0.00    -0.274 OA
ATOM      2  N   UNL     1      37.223 -19.879 -20.057  0.00  0.00    -0.239 N 
ATOM      3  N   UNL     1      37.451 -18.700 -20.662  0.00  0.00    -0.166 NA
ATOM      4  N   UNL     1      36.391 -17.612 -22.503  0.00  0.00    -0.268 N 
ATOM      5  C   UNL     1      36.191 -20.586 -20.601  0.00  0.00    +0.045 C 
ATOM      6  C   UNL     1      35.709 -19.817 -21.631  0.00  0.00    +0.048 C 
ATOM      7  C   UNL     1      36.525 -18.682 -21.611  0.00  0.00    +0.152 C 
ATOM      8  C   UNL     1      35.459 -17.488 -23.531  0.00  0.00    +0.232 C 
ATOM      9  H   UNL     1      37.752 -20.202 -19.294  0.00  0.00    +0.174 HD
ATOM     10  H   UNL     1      37.022 -16.865 -22.391  0.00  0.00    +0.156 HD
ENDROOT
BRANCH   5  11
ATOM     11  C   UNL     1      35.682 -21.948 -20.149  0.00  0.00    +0.037 C 
ATOM     12  C   UNL     1      35.425 -22.188 -18.682  0.00  0.00    +0.006 C 
ATOM     13  C   UNL     1      34.270 -22.073 -19.634  0.00  0.00    +0.006 C 
ENDBRANCH   5  11
BRANCH   8  14
ATOM     14  C   UNL     1      35.645 -16.167 -24.274  0.00  0.00    +0.112 C 
BRANCH  14  15
ATOM     15  C   UNL     1      34.784 -15.060 -23.764  0.00  0.00    -0.013 C 
ATOM     16  C   UNL     1      33.520 -14.046 -21.950  0.00  0.00    -0.000 C 
ATOM     17  C   UNL     1      34.331 -15.080 -22.445  0.00  0.00    -0.004 C 
ATOM     18  C   UNL     1      33.166 -12.975 -22.804  0.00  0.00    -0.000 C 
ATOM     19  C   UNL     1      34.435 -14.007 -24.604  0.00  0.00    -0.004 C 
ATOM     20  C   UNL     1      33.631 -12.971 -24.129  0.00  0.00    -0.000 C 
ATOM     21  C   UNL     1      33.054 -14.051 -20.625  0.00  0.00    -0.000 C 
ATOM     22  C   UNL     1      32.355 -11.940 -22.309  0.00  0.00    -0.000 C 
ATOM     23  C   UNL     1      32.249 -13.015 -20.150  0.00  0.00    -0.000 C 
ATOM     24  C   UNL     1      31.900 -11.961 -20.990  0.00  0.00    -0.000 C 
ENDBRANCH  14  15
ENDBRANCH   8  14
TORSDOF 3
ENDMDL
MODEL 7
REMARK VINA RESULT:     -10.5      2.848      8.648
REMARK  Name = 449087
REMARK  3 active torsions:
REMARK  status: ('A' for Active; 'I' for Inactive)
REMARK    1  A    between atoms: C_5  and  C_11
REMARK    2  A    between atoms: C_8  and  C_14
REMARK    3  A    between atoms: C_14  and  C_15
REMARK                            x       y       z     vdW  Elec       q    Type
REMARK                         _______ _______ _______ _____ _____    ______ ____
ROOT
ATOM      1  O   UNL     1      34.417 -20.095 -21.514  0.00  0.00    -0.274 OA
ATOM      2  N   UNL     1      35.666 -22.785 -17.636  0.00  0.00    -0.239 N 
ATOM      3  N   UNL     1      36.541 -22.009 -18.298  0.00  0.00    -0.166 NA
ATOM      4  N   UNL     1      36.300 -20.583 -20.197  0.00  0.00    -0.268 N 
ATOM      5  C   UNL     1      34.402 -22.751 -18.147  0.00  0.00    +0.045 C 
ATOM      6  C   UNL     1      34.453 -21.892 -19.218  0.00  0.00    +0.048 C 
ATOM      7  C   UNL     1      35.787 -21.479 -19.251  0.00  0.00    +0.152 C 
ATOM      8  C   UNL     1      35.604 -19.968 -21.235  0.00  0.00    +0.232 C 
ATOM      9  H   UNL     1      35.915 -23.328 -16.854  0.00  0.00    +0.174 HD
ATOM     10  H   UNL     1      37.257 -20.363 -20.120  0.00  0.00    +0.156 HD
ENDROOT
BRANCH   5  11
ATOM     11  C   UNL     1      33.189 -23.510 -17.629  0.00  0.00    +0.037 C 
ATOM     12  C   UNL     1      32.815 -23.394 -16.172  0.00  0.00    +0.006 C 
ATOM     13  C   UNL     1      31.959 -22.741 -17.218  0.00  0.00    +0.006 C 
ENDBRANCH   5  11
BRANCH   8  14
ATOM     14  C   UNL     1      36.527 -19.059 -22.043  0.00  0.00    +0.112 C 
BRANCH  14  15
ATOM     15  C   UNL     1      35.817 -18.217 -23.050  0.00  0.00    -0.013 C 
ATOM     16  C   UNL     1      34.977 -16.046 -23.757  0.00  0.00    -0.000 C 
ATOM     17  C   UNL     1      35.643 -16.852 -22.819  0.00  0.00    -0.004 C 
ATOM     18  C   UNL     1      34.483 -16.632 -24.946  0.00  0.00    -0.000 C 
ATOM     19  C   UNL     1      35.331 -18.793 -24.220  0.00  0.00    -0.004 C 
ATOM     20  C   UNL     1      34.668 -18.007 -25.162  0.00  0.00    -0.000 C 
ATOM     21  C   UNL     1      34.791 -14.671 -23.540  0.00  0.00    -0.000 C 
ATOM     22  C   UNL     1      33.818 -15.825 -25.885  0.00  0.00    -0.000 C 
ATOM     23  C   UNL     1      34.128 -13.885 -24.483  0.00  0.00    -0.000 C 
ATOM     24  C   UNL     1      33.642 -14.461 -25.653  0.00  0.00    -0.000 C 
ENDBRANCH  14  15
ENDBRANCH   8  14
TORSDOF 3
ENDMDL
MODEL 8
REMARK VINA RESULT:     -10.4      3.828      9.050
REMARK  Name = 449087
REMARK  3 active torsions:
REMARK  status: ('A' for Active; 'I' for Inactive)
REMARK    1  A    between atoms: C_5  and  C_11
REMARK    2  A    between atoms: C_8  and  C_14
REMARK    3  A    between atoms: C_14  and  C_15
REMARK                            x       y       z     vdW  Elec       q    Type
REMARK                         _______ _______ _______ _____ _____    ______ ____
ROOT
ATOM      1  O   UNL     1      33.525 -20.757 -20.267  0.00  0.00    -0.274 OA
ATOM      2  N   UNL     1      33.419 -23.880 -16.516  0.00  0.00    -0.239 N 
ATOM      3  N   UNL     1      34.533 -23.627 -17.223  0.00  0.00    -0.166 NA
ATOM      4  N   UNL     1      34.959 -22.192 -19.082  0.00  0.00    -0.268 N 
ATOM      5  C   UNL     1      32.325 -23.187 -16.944  0.00  0.00    +0.045 C 
ATOM      6  C   UNL     1      32.754 -22.425 -18.003  0.00  0.00    +0.048 C 
ATOM      7  C   UNL     1      34.109 -22.745 -18.117  0.00  0.00    +0.152 C 
ATOM      8  C   UNL     1      34.623 -21.262 -20.064  0.00  0.00    +0.232 C 
ATOM      9  H   UNL     1      33.394 -24.509 -15.759  0.00  0.00    +0.174 HD
ATOM     10  H   UNL     1      35.897 -22.491 -19.065  0.00  0.00    +0.156 HD
ENDROOT
BRANCH   5  11
ATOM     11  C   UNL     1      30.921 -23.248 -16.358  0.00  0.00    +0.037 C 
ATOM     12  C   UNL     1      30.352 -24.584 -15.950  0.00  0.00    +0.006 C 
ATOM     13  C   UNL     1      30.746 -23.587 -14.899  0.00  0.00    +0.006 C 
ENDBRANCH   5  11
BRANCH   8  14
ATOM     14  C   UNL     1      35.840 -20.912 -20.918  0.00  0.00    +0.112 C 
BRANCH  14  15
ATOM     15  C   UNL     1      35.679 -19.662 -21.716  0.00  0.00    -0.013 C 
ATOM     16  C   UNL     1      34.981 -18.552 -23.765  0.00  0.00    -0.000 C 
ATOM     17  C   UNL     1      35.139 -19.720 -23.001  0.00  0.00    -0.004 C 
ATOM     18  C   UNL     1      35.375 -17.308 -23.218  0.00  0.00    -0.000 C 
ATOM     19  C   UNL     1      36.066 -18.438 -21.178  0.00  0.00    -0.004 C 
ATOM     20  C   UNL     1      35.916 -17.268 -21.922  0.00  0.00    -0.000 C 
ATOM     21  C   UNL     1      34.441 -18.592 -25.061  0.00  0.00    -0.000 C 
ATOM     22  C   UNL     1      35.216 -16.140 -23.982  0.00  0.00    -0.000 C 
ATOM     23  C   UNL     1      34.291 -17.422 -25.806  0.00  0.00    -0.000 C 
ATOM     24  C   UNL     1      34.678 -16.198 -25.268  0.00  0.00    -0.000 C 
ENDBRANCH  14  15
ENDBRANCH   8  14
TORSDOF 3
ENDMDL
MODEL 9
REMARK VINA RESULT:     -10.3      2.411      8.297
REMARK  Name = 449087
REMARK  3 active torsions:
REMARK  status: ('A' for Active; 'I' for Inactive)
REMARK    1  A    between atoms: C_5  and  C_11
REMARK    2  A    between atoms: C_8  and  C_14
REMARK    3  A    between atoms: C_14  and  C_15
REMARK                            x       y       z     vdW  Elec       q    Type
REMARK                         _______ _______ _______ _____ _____    ______ ____
ROOT
ATOM      1  O   UNL     1      37.135 -19.746 -21.102  0.00  0.00    -0.274 OA
ATOM      2  N   UNL     1      32.858 -21.767 -19.894  0.00  0.00    -0.239 N 
ATOM      3  N   UNL     1      32.970 -20.792 -20.812  0.00  0.00    -0.166 NA
ATOM      4  N   UNL     1      34.855 -19.588 -21.647  0.00  0.00    -0.268 N 
ATOM      5  C   UNL     1      34.045 -22.136 -19.333  0.00  0.00    +0.045 C 
ATOM      6  C   UNL     1      35.002 -21.350 -19.926  0.00  0.00    +0.048 C 
ATOM      7  C   UNL     1      34.274 -20.554 -20.816  0.00  0.00    +0.152 C 
ATOM      8  C   UNL     1      36.205 -19.257 -21.734  0.00  0.00    +0.232 C 
ATOM      9  H   UNL     1      31.997 -22.177 -19.648  0.00  0.00    +0.174 HD
ATOM     10  H   UNL     1      34.242 -19.089 -22.234  0.00  0.00    +0.156 HD
ENDROOT
BRANCH   5  11
ATOM     11  C   UNL     1      34.257 -23.205 -18.270  0.00  0.00    +0.037 C 
ATOM     12  C   UNL     1      34.391 -22.790 -16.825  0.00  0.00    +0.006 C 
ATOM     13  C   UNL     1      33.150 -23.497 -17.288  0.00  0.00    +0.006 C 
ENDBRANCH   5  11
BRANCH   8  14
ATOM     14  C   UNL     1      36.426 -18.151 -22.763  0.00  0.00    +0.112 C 
BRANCH  14  15
ATOM     15  C   UNL     1      35.645 -16.908 -22.495  0.00  0.00    -0.013 C 
ATOM     16  C   UNL     1      34.579 -14.880 -23.310  0.00  0.00    -0.000 C 
ATOM     17  C   UNL     1      35.313 -16.054 -23.546  0.00  0.00    -0.004 C 
ATOM     18  C   UNL     1      34.174 -14.571 -21.990  0.00  0.00    -0.000 C 
ATOM     19  C   UNL     1      35.247 -16.604 -21.197  0.00  0.00    -0.004 C 
ATOM     20  C   UNL     1      34.517 -15.443 -20.944  0.00  0.00    -0.000 C 
ATOM     21  C   UNL     1      34.237 -14.007 -24.356  0.00  0.00    -0.000 C 
ATOM     22  C   UNL     1      33.439 -13.397 -21.754  0.00  0.00    -0.000 C 
ATOM     23  C   UNL     1      33.506 -12.846 -24.103  0.00  0.00    -0.000 C 
ATOM     24  C   UNL     1      33.108 -12.541 -22.805  0.00  0.00    -0.000 C 
ENDBRANCH  14  15
ENDBRANCH   8  14
TORSDOF 3
ENDMDL
