MODEL 1
REMARK VINA RESULT:     -11.3      0.000      0.000
REMARK  Name = 2929
REMARK  5 active torsions:
REMARK  status: ('A' for Active; 'I' for Inactive)
REMARK    1  A    between atoms: N_1  and  C_22
REMARK    2  A    between atoms: C_4  and  C_11
REMARK    3  A    between atoms: C_11  and  C_14
REMARK    4  A    between atoms: N_13  and  C_17
REMARK    5  A    between atoms: C_22  and  C_24
REMARK                            x       y       z     vdW  Elec       q    Type
REMARK                         _______ _______ _______ _____ _____    ______ ____
ROOT
ATOM      1  N   UNL     1      34.211 -23.693 -15.250  0.00  0.00    -0.281 N 
ATOM      2  C   UNL     1      32.854 -23.466 -15.289  0.00  0.00    +0.052 C 
ATOM      3  C   UNL     1      32.509 -23.262 -16.627  0.00  0.00    +0.018 C 
ATOM      4  C   UNL     1      33.705 -23.373 -17.388  0.00  0.00    +0.060 C 
ATOM      5  C   UNL     1      34.735 -23.639 -16.514  0.00  0.00    +0.069 C 
ATOM      6  C   UNL     1      31.915 -23.427 -14.252  0.00  0.00    +0.015 C 
ATOM      7  C   UNL     1      31.161 -23.004 -16.947  0.00  0.00    +0.001 C 
ATOM      8  C   UNL     1      30.584 -23.170 -14.593  0.00  0.00    +0.001 C 
ATOM      9  C   UNL     1      30.211 -22.963 -15.920  0.00  0.00    +0.000 C 
ENDROOT
BRANCH   4  11
ATOM     10  O   UNL     1      33.962 -24.196 -19.601  0.00  0.00    -0.282 OA
ATOM     11  C   UNL     1      33.866 -23.244 -18.809  0.00  0.00    +0.250 C 
BRANCH  11  14
ATOM     12  O   UNL     1      32.943 -21.212 -19.491  0.00  0.00    -0.266 OA
ATOM     13  N   UNL     1      35.201 -21.681 -20.036  0.00  0.00    -0.278 N 
ATOM     14  C   UNL     1      33.951 -21.899 -19.498  0.00  0.00    +0.289 C 
ATOM     15  H   UNL     1      35.865 -22.397 -19.912  0.00  0.00    +0.155 HD
BRANCH  13  17
ATOM     16  N   UNL     1      36.481 -18.287 -22.134  0.00  0.00    -0.242 NA
ATOM     17  C   UNL     1      35.633 -20.536 -20.745  0.00  0.00    +0.054 C 
ATOM     18  C   UNL     1      34.766 -19.911 -21.618  0.00  0.00    +0.035 C 
ATOM     19  C   UNL     1      36.915 -20.062 -20.551  0.00  0.00    +0.035 C 
ATOM     20  C   UNL     1      35.236 -18.792 -22.287  0.00  0.00    +0.100 C 
ATOM     21  C   UNL     1      37.290 -18.937 -21.268  0.00  0.00    +0.100 C 
ENDBRANCH  13  17
ENDBRANCH  11  14
ENDBRANCH   4  11
BRANCH   1  22
ATOM     22  C   UNL     1      34.988 -23.952 -14.057  0.00  0.00    +0.122 C 
BRANCH  22  24
ATOM     23 CL   UNL     1      40.513 -25.865 -15.412  0.00  0.00    -0.082 Cl
ATOM     24  C   UNL     1      36.373 -24.432 -14.398  0.00  0.00    -0.002 C 
ATOM     25  C   UNL     1      36.690 -25.774 -14.240  0.00  0.00    -0.002 C 
ATOM     26  C   UNL     1      37.316 -23.525 -14.864  0.00  0.00    -0.002 C 
ATOM     27  C   UNL     1      37.974 -26.219 -14.556  0.00  0.00    +0.011 C 
ATOM     28  C   UNL     1      38.600 -23.970 -15.178  0.00  0.00    +0.011 C 
ATOM     29  C   UNL     1      38.929 -25.317 -15.025  0.00  0.00    +0.058 C 
ENDBRANCH  22  24
ENDBRANCH   1  22
TORSDOF 5
ENDMDL
MODEL 2
REMARK VINA RESULT:     -10.8      9.661     14.498
REMARK  Name = 2929
REMARK  5 active torsions:
REMARK  status: ('A' for Active; 'I' for Inactive)
REMARK    1  A    between atoms: N_1  and  C_22
REMARK    2  A    between atoms: C_4  and  C_11
REMARK    3  A    between atoms: C_11  and  C_14
REMARK    4  A    between atoms: N_13  and  C_17
REMARK    5  A    between atoms: C_22  and  C_24
REMARK                            x       y       z     vdW  Elec       q    Type
REMARK                         _______ _______ _______ _____ _____    ______ ____
ROOT
ATOM      1  N   UNL     1      32.366  -9.683 -22.508  0.00  0.00    -0.281 N 
ATOM      2  C   UNL     1      32.187 -10.708 -21.607  0.00  0.00    +0.052 C 
ATOM      3  C   UNL     1      32.759 -11.852 -22.166  0.00  0.00    +0.018 C 
ATOM      4  C   UNL     1      33.287 -11.478 -23.433  0.00  0.00    +0.060 C 
ATOM      5  C   UNL     1      33.030 -10.139 -23.616  0.00  0.00    +0.069 C 
ATOM      6  C   UNL     1      31.568 -10.708 -20.352  0.00  0.00    +0.015 C 
ATOM      7  C   UNL     1      32.712 -13.058 -21.439  0.00  0.00    +0.001 C 
ATOM      8  C   UNL     1      31.534 -11.915 -19.649  0.00  0.00    +0.001 C 
ATOM      9  C   UNL     1      32.097 -13.073 -20.182  0.00  0.00    +0.000 C 
ENDROOT
BRANCH   4  11
ATOM     10  O   UNL     1      34.655 -11.878 -25.334  0.00  0.00    -0.282 OA
ATOM     11  C   UNL     1      33.972 -12.304 -24.386  0.00  0.00    +0.250 C 
BRANCH  11  14
ATOM     12  O   UNL     1      33.063 -14.361 -25.013  0.00  0.00    -0.266 OA
ATOM     13  N   UNL     1      34.887 -14.332 -23.501  0.00  0.00    -0.278 N 
ATOM     14  C   UNL     1      33.920 -13.816 -24.337  0.00  0.00    +0.289 C 
ATOM     15  H   UNL     1      35.474 -13.680 -23.053  0.00  0.00    +0.155 HD
BRANCH  13  17
ATOM     16  N   UNL     1      35.602 -18.375 -22.665  0.00  0.00    -0.242 NA
ATOM     17  C   UNL     1      35.127 -15.696 -23.219  0.00  0.00    +0.054 C 
ATOM     18  C   UNL     1      35.267 -16.591 -24.261  0.00  0.00    +0.035 C 
ATOM     19  C   UNL     1      35.220 -16.112 -21.905  0.00  0.00    +0.035 C 
ATOM     20  C   UNL     1      35.503 -17.916 -23.932  0.00  0.00    +0.100 C 
ATOM     21  C   UNL     1      35.457 -17.458 -21.681  0.00  0.00    +0.100 C 
ENDBRANCH  13  17
ENDBRANCH  11  14
ENDBRANCH   4  11
BRANCH   1  22
ATOM     22  C   UNL     1      31.923  -8.316 -22.329  0.00  0.00    +0.122 C 
BRANCH  22  24
ATOM     23 CL   UNL     1      34.674  -4.601 -26.157  0.00  0.00    -0.082 Cl
ATOM     24  C   UNL     1      32.613  -7.385 -23.290  0.00  0.00    -0.002 C 
ATOM     25  C   UNL     1      33.975  -7.150 -23.155  0.00  0.00    -0.002 C 
ATOM     26  C   UNL     1      31.878  -6.774 -24.296  0.00  0.00    -0.002 C 
ATOM     27  C   UNL     1      34.614  -6.287 -24.045  0.00  0.00    +0.011 C 
ATOM     28  C   UNL     1      32.518  -5.910 -25.185  0.00  0.00    +0.011 C 
ATOM     29  C   UNL     1      33.886  -5.667 -25.060  0.00  0.00    +0.058 C 
ENDBRANCH  22  24
ENDBRANCH   1  22
TORSDOF 5
ENDMDL
MODEL 3
REMARK VINA RESULT:     -10.6      3.375      6.795
REMARK  Name = 2929
REMARK  5 active torsions:
REMARK  status: ('A' for Active; 'I' for Inactive)
REMARK    1  A    between atoms: N_1  and  C_22
REMARK    2  A    between atoms: C_4  and  C_11
REMARK    3  A    between atoms: C_11  and  C_14
REMARK    4  A    between atoms: N_13  and  C_17
REMARK    5  A    between atoms: C_22  and  C_24
REMARK                            x       y       z     vdW  Elec       q    Type
REMARK                         _______ _______ _______ _____ _____    ______ ____
ROOT
ATOM      1  N   UNL     1      33.668 -23.727 -17.379  0.00  0.00    -0.281 N 
ATOM      2  C   UNL     1      32.521 -23.356 -16.714  0.00  0.00    +0.052 C 
ATOM      3  C   UNL     1      32.822 -23.344 -15.351  0.00  0.00    +0.018 C 
ATOM      4  C   UNL     1      34.187 -23.720 -15.221  0.00  0.00    +0.060 C 
ATOM      5  C   UNL     1      34.681 -23.950 -16.485  0.00  0.00    +0.069 C 
ATOM      6  C   UNL     1      31.254 -23.033 -17.212  0.00  0.00    +0.015 C 
ATOM      7  C   UNL     1      31.809 -22.993 -14.437  0.00  0.00    +0.001 C 
ATOM      8  C   UNL     1      30.265 -22.688 -16.286  0.00  0.00    +0.001 C 
ATOM      9  C   UNL     1      30.536 -22.667 -14.919  0.00  0.00    +0.000 C 
ENDROOT
BRANCH   4  11
ATOM     10  O   UNL     1      34.484 -24.044 -12.886  0.00  0.00    -0.282 OA
ATOM     11  C   UNL     1      34.960 -23.852 -14.018  0.00  0.00    +0.250 C 
BRANCH  11  14
ATOM     12  O   UNL     1      36.953 -22.707 -13.614  0.00  0.00    -0.266 OA
ATOM     13  N   UNL     1      37.058 -24.914 -14.469  0.00  0.00    -0.278 N 
ATOM     14  C   UNL     1      36.471 -23.754 -14.008  0.00  0.00    +0.289 C 
ATOM     15  H   UNL     1      36.448 -25.639 -14.738  0.00  0.00    +0.155 HD
BRANCH  13  17
ATOM     16  N   UNL     1      41.161 -25.681 -14.837  0.00  0.00    -0.242 NA
ATOM     17  C   UNL     1      38.442 -25.174 -14.594  0.00  0.00    +0.054 C 
ATOM     18  C   UNL     1      39.151 -24.595 -15.627  0.00  0.00    +0.035 C 
ATOM     19  C   UNL     1      39.062 -26.000 -13.678  0.00  0.00    +0.035 C 
ATOM     20  C   UNL     1      40.505 -24.879 -15.705  0.00  0.00    +0.100 C 
ATOM     21  C   UNL     1      40.420 -26.223 -13.843  0.00  0.00    +0.100 C 
ENDBRANCH  13  17
ENDBRANCH  11  14
ENDBRANCH   4  11
BRANCH   1  22
ATOM     22  C   UNL     1      33.802 -23.868 -18.813  0.00  0.00    +0.122 C 
BRANCH  22  24
ATOM     23 CL   UNL     1      35.351 -18.670 -21.383  0.00  0.00    -0.082 Cl
ATOM     24  C   UNL     1      34.191 -22.565 -19.459  0.00  0.00    -0.002 C 
ATOM     25  C   UNL     1      35.532 -22.215 -19.539  0.00  0.00    -0.002 C 
ATOM     26  C   UNL     1      33.203 -21.730 -19.963  0.00  0.00    -0.002 C 
ATOM     27  C   UNL     1      35.891 -21.007 -20.137  0.00  0.00    +0.011 C 
ATOM     28  C   UNL     1      33.563 -20.522 -20.560  0.00  0.00    +0.011 C 
ATOM     29  C   UNL     1      34.907 -20.161 -20.647  0.00  0.00    +0.058 C 
ENDBRANCH  22  24
ENDBRANCH   1  22
TORSDOF 5
ENDMDL
MODEL 4
REMARK VINA RESULT:     -10.5      3.030      5.392
REMARK  Name = 2929
REMARK  5 active torsions:
REMARK  status: ('A' for Active; 'I' for Inactive)
REMARK    1  A    between atoms: N_1  and  C_22
REMARK    2  A    between atoms: C_4  and  C_11
REMARK    3  A    between atoms: C_11  and  C_14
REMARK    4  A    between atoms: N_13  and  C_17
REMARK    5  A    between atoms: C_22  and  C_24
REMARK                            x       y       z     vdW  Elec       q    Type
REMARK                         _______ _______ _______ _____ _____    ______ ____
ROOT
ATOM      1  N   UNL     1      33.114 -23.887 -15.893  0.00  0.00    -0.281 N 
ATOM      2  C   UNL     1      34.418 -23.530 -15.639  0.00  0.00    +0.052 C 
ATOM      3  C   UNL     1      34.994 -23.176 -16.861  0.00  0.00    +0.018 C 
ATOM      4  C   UNL     1      33.990 -23.334 -17.856  0.00  0.00    +0.060 C 
ATOM      5  C   UNL     1      32.845 -23.772 -17.231  0.00  0.00    +0.069 C 
ATOM      6  C   UNL     1      35.124 -23.492 -14.431  0.00  0.00    +0.015 C 
ATOM      7  C   UNL     1      36.341 -22.766 -16.881  0.00  0.00    +0.001 C 
ATOM      8  C   UNL     1      36.460 -23.081 -14.476  0.00  0.00    +0.001 C 
ATOM      9  C   UNL     1      37.061 -22.722 -15.681  0.00  0.00    +0.000 C 
ENDROOT
BRANCH   4  11
ATOM     10  O   UNL     1      34.166 -23.981 -20.135  0.00  0.00    -0.282 OA
ATOM     11  C   UNL     1      34.096 -23.094 -19.267  0.00  0.00    +0.250 C 
BRANCH  11  14
ATOM     12  O   UNL     1      33.169 -20.991 -19.678  0.00  0.00    -0.266 OA
ATOM     13  N   UNL     1      35.336 -21.466 -20.510  0.00  0.00    -0.278 N 
ATOM     14  C   UNL     1      34.147 -21.699 -19.853  0.00  0.00    +0.289 C 
ATOM     15  H   UNL     1      35.986 -22.206 -20.519  0.00  0.00    +0.155 HD
BRANCH  13  17
ATOM     16  N   UNL     1      36.487 -17.945 -22.470  0.00  0.00    -0.242 NA
ATOM     17  C   UNL     1      35.724 -20.278 -21.171  0.00  0.00    +0.054 C 
ATOM     18  C   UNL     1      36.930 -19.686 -20.852  0.00  0.00    +0.035 C 
ATOM     19  C   UNL     1      34.891 -19.729 -22.125  0.00  0.00    +0.035 C 
ATOM     20  C   UNL     1      37.265 -18.524 -21.528  0.00  0.00    +0.100 C 
ATOM     21  C   UNL     1      35.316 -18.565 -22.744  0.00  0.00    +0.100 C 
ENDBRANCH  13  17
ENDBRANCH  11  14
ENDBRANCH   4  11
BRANCH   1  22
ATOM     22  C   UNL     1      32.151 -24.325 -14.904  0.00  0.00    +0.122 C 
BRANCH  22  24
ATOM     23 CL   UNL     1      26.620 -22.421 -16.246  0.00  0.00    -0.082 Cl
ATOM     24  C   UNL     1      30.764 -23.848 -15.240  0.00  0.00    -0.002 C 
ATOM     25  C   UNL     1      29.887 -24.702 -15.895  0.00  0.00    -0.002 C 
ATOM     26  C   UNL     1      30.381 -22.560 -14.891  0.00  0.00    -0.002 C 
ATOM     27  C   UNL     1      28.601 -24.259 -16.206  0.00  0.00    +0.011 C 
ATOM     28  C   UNL     1      29.096 -22.117 -15.204  0.00  0.00    +0.011 C 
ATOM     29  C   UNL     1      28.205 -22.967 -15.861  0.00  0.00    +0.058 C 
ENDBRANCH  22  24
ENDBRANCH   1  22
TORSDOF 5
ENDMDL
MODEL 5
REMARK VINA RESULT:     -10.2     10.302     15.270
REMARK  Name = 2929
REMARK  5 active torsions:
REMARK  status: ('A' for Active; 'I' for Inactive)
REMARK    1  A    between atoms: N_1  and  C_22
REMARK    2  A    between atoms: C_4  and  C_11
REMARK    3  A    between atoms: C_11  and  C_14
REMARK    4  A    between atoms: N_13  and  C_17
REMARK    5  A    between atoms: C_22  and  C_24
REMARK                            x       y       z     vdW  Elec       q    Type
REMARK                         _______ _______ _______ _____ _____    ______ ____
ROOT
ATOM      1  N   UNL     1      33.448  -8.884 -22.838  0.00  0.00    -0.281 N 
ATOM      2  C   UNL     1      32.672  -9.746 -22.095  0.00  0.00    +0.052 C 
ATOM      3  C   UNL     1      32.724 -10.992 -22.723  0.00  0.00    +0.018 C 
ATOM      4  C   UNL     1      33.557 -10.848 -23.867  0.00  0.00    +0.060 C 
ATOM      5  C   UNL     1      33.987  -9.541 -23.911  0.00  0.00    +0.069 C 
ATOM      6  C   UNL     1      31.936  -9.518 -20.927  0.00  0.00    +0.015 C 
ATOM      7  C   UNL     1      32.006 -12.065 -22.159  0.00  0.00    +0.001 C 
ATOM      8  C   UNL     1      31.232 -10.597 -20.385  0.00  0.00    +0.001 C 
ATOM      9  C   UNL     1      31.266 -11.852 -20.990  0.00  0.00    +0.000 C 
ENDROOT
BRANCH   4  11
ATOM     10  O   UNL     1      34.272 -11.613 -26.000  0.00  0.00    -0.282 OA
ATOM     11  C   UNL     1      33.918 -11.848 -24.832  0.00  0.00    +0.250 C 
BRANCH  11  14
ATOM     12  O   UNL     1      33.115 -14.015 -25.159  0.00  0.00    -0.266 OA
ATOM     13  N   UNL     1      34.782 -13.651 -23.515  0.00  0.00    -0.278 N 
ATOM     14  C   UNL     1      33.891 -13.328 -24.516  0.00  0.00    +0.289 C 
ATOM     15  H   UNL     1      35.311 -12.910 -23.140  0.00  0.00    +0.155 HD
BRANCH  13  17
ATOM     16  N   UNL     1      35.494 -17.453 -21.903  0.00  0.00    -0.242 NA
ATOM     17  C   UNL     1      35.021 -14.934 -22.971  0.00  0.00    +0.054 C 
ATOM     18  C   UNL     1      35.474 -15.947 -23.794  0.00  0.00    +0.035 C 
ATOM     19  C   UNL     1      34.800 -15.153 -21.626  0.00  0.00    +0.035 C 
ATOM     20  C   UNL     1      35.694 -17.185 -23.212  0.00  0.00    +0.100 C 
ATOM     21  C   UNL     1      35.050 -16.427 -21.142  0.00  0.00    +0.100 C 
ENDBRANCH  13  17
ENDBRANCH  11  14
ENDBRANCH   4  11
BRANCH   1  22
ATOM     22  C   UNL     1      33.671  -7.485 -22.543  0.00  0.00    +0.122 C 
BRANCH  22  24
ATOM     23 CL   UNL     1      33.732  -4.174 -27.548  0.00  0.00    -0.082 Cl
ATOM     24  C   UNL     1      33.687  -6.655 -23.799  0.00  0.00    -0.002 C 
ATOM     25  C   UNL     1      34.901  -6.303 -24.371  0.00  0.00    -0.002 C 
ATOM     26  C   UNL     1      32.486  -6.252 -24.367  0.00  0.00    -0.002 C 
ATOM     27  C   UNL     1      34.915  -5.534 -25.535  0.00  0.00    +0.011 C 
ATOM     28  C   UNL     1      32.500  -5.482 -25.529  0.00  0.00    +0.011 C 
ATOM     29  C   UNL     1      33.714  -5.124 -26.114  0.00  0.00    +0.058 C 
ENDBRANCH  22  24
ENDBRANCH   1  22
TORSDOF 5
ENDMDL
MODEL 6
REMARK VINA RESULT:     -10.2      5.053      9.000
REMARK  Name = 2929
REMARK  5 active torsions:
REMARK  status: ('A' for Active; 'I' for Inactive)
REMARK    1  A    between atoms: N_1  and  C_22
REMARK    2  A    between atoms: C_4  and  C_11
REMARK    3  A    between atoms: C_11  and  C_14
REMARK    4  A    between atoms: N_13  and  C_17
REMARK    5  A    between atoms: C_22  and  C_24
REMARK                            x       y       z     vdW  Elec       q    Type
REMARK                         _______ _______ _______ _____ _____    ______ ____
ROOT
ATOM      1  N   UNL     1      36.144 -18.426 -22.197  0.00  0.00    -0.281 N 
ATOM      2  C   UNL     1      35.504 -18.668 -23.391  0.00  0.00    +0.052 C 
ATOM      3  C   UNL     1      34.938 -17.462 -23.807  0.00  0.00    +0.018 C 
ATOM      4  C   UNL     1      35.261 -16.488 -22.821  0.00  0.00    +0.060 C 
ATOM      5  C   UNL     1      36.003 -17.111 -21.844  0.00  0.00    +0.069 C 
ATOM      6  C   UNL     1      35.385 -19.853 -24.127  0.00  0.00    +0.015 C 
ATOM      7  C   UNL     1      34.216 -17.434 -25.016  0.00  0.00    +0.001 C 
ATOM      8  C   UNL     1      34.664 -19.800 -25.324  0.00  0.00    +0.001 C 
ATOM      9  C   UNL     1      34.089 -18.610 -25.764  0.00  0.00    +0.000 C 
ENDROOT
BRANCH   4  11
ATOM     10  O   UNL     1      35.211 -14.273 -23.679  0.00  0.00    -0.282 OA
ATOM     11  C   UNL     1      34.905 -15.097 -22.800  0.00  0.00    +0.250 C 
BRANCH  11  14
ATOM     12  O   UNL     1      34.248 -14.976 -20.564  0.00  0.00    -0.266 OA
ATOM     13  N   UNL     1      33.342 -13.422 -22.106  0.00  0.00    -0.278 N 
ATOM     14  C   UNL     1      34.112 -14.479 -21.669  0.00  0.00    +0.289 C 
ATOM     15  H   UNL     1      33.398 -13.203 -23.064  0.00  0.00    +0.155 HD
BRANCH  13  17
ATOM     16  N   UNL     1      30.795 -11.033 -19.790  0.00  0.00    -0.242 NA
ATOM     17  C   UNL     1      32.482 -12.617 -21.325  0.00  0.00    +0.054 C 
ATOM     18  C   UNL     1      32.537 -12.702 -19.948  0.00  0.00    +0.035 C 
ATOM     19  C   UNL     1      31.602 -11.757 -21.951  0.00  0.00    +0.035 C 
ATOM     20  C   UNL     1      31.675 -11.890 -19.227  0.00  0.00    +0.100 C 
ATOM     21  C   UNL     1      30.781 -10.989 -21.142  0.00  0.00    +0.100 C 
ENDBRANCH  13  17
ENDBRANCH  11  14
ENDBRANCH   4  11
BRANCH   1  22
ATOM     22  C   UNL     1      36.866 -19.406 -21.414  0.00  0.00    +0.122 C 
BRANCH  22  24
ATOM     23 CL   UNL     1      33.116 -22.977 -18.381  0.00  0.00    -0.082 Cl
ATOM     24  C   UNL     1      35.926 -20.303 -20.654  0.00  0.00    -0.002 C 
ATOM     25  C   UNL     1      34.557 -20.182 -20.851  0.00  0.00    -0.002 C 
ATOM     26  C   UNL     1      36.440 -21.237 -19.765  0.00  0.00    -0.002 C 
ATOM     27  C   UNL     1      33.685 -21.012 -20.146  0.00  0.00    +0.011 C 
ATOM     28  C   UNL     1      35.568 -22.066 -19.060  0.00  0.00    +0.011 C 
ATOM     29  C   UNL     1      34.191 -21.954 -19.251  0.00  0.00    +0.058 C 
ENDBRANCH  22  24
ENDBRANCH   1  22
TORSDOF 5
ENDMDL
MODEL 7
REMARK VINA RESULT:     -10.0      6.487     10.309
REMARK  Name = 2929
REMARK  5 active torsions:
REMARK  status: ('A' for Active; 'I' for Inactive)
REMARK    1  A    between atoms: N_1  and  C_22
REMARK    2  A    between atoms: C_4  and  C_11
REMARK    3  A    between atoms: C_11  and  C_14
REMARK    4  A    between atoms: N_13  and  C_17
REMARK    5  A    between atoms: C_22  and  C_24
REMARK                            x       y       z     vdW  Elec       q    Type
REMARK                         _______ _______ _______ _____ _____    ______ ____
ROOT
ATOM      1  N   UNL     1      35.687 -16.804 -23.556  0.00  0.00    -0.281 N 
ATOM      2  C   UNL     1      35.071 -16.012 -22.614  0.00  0.00    +0.052 C 
ATOM      3  C   UNL     1      34.293 -15.081 -23.304  0.00  0.00    +0.018 C 
ATOM      4  C   UNL     1      34.463 -15.341 -24.692  0.00  0.00    +0.060 C 
ATOM      5  C   UNL     1      35.325 -16.407 -24.816  0.00  0.00    +0.069 C 
ATOM      6  C   UNL     1      35.143 -16.050 -21.217  0.00  0.00    +0.015 C 
ATOM      7  C   UNL     1      33.550 -14.138 -22.565  0.00  0.00    +0.001 C 
ATOM      8  C   UNL     1      34.398 -15.105 -20.505  0.00  0.00    +0.001 C 
ATOM      9  C   UNL     1      33.612 -14.164 -21.167  0.00  0.00    +0.000 C 
ENDROOT
BRANCH   4  11
ATOM     10  O   UNL     1      33.362 -15.208 -26.792  0.00  0.00    -0.282 OA
ATOM     11  C   UNL     1      33.868 -14.653 -25.802  0.00  0.00    +0.250 C 
BRANCH  11  14
ATOM     12  O   UNL     1      33.414 -12.662 -26.933  0.00  0.00    -0.266 OA
ATOM     13  N   UNL     1      34.230 -12.553 -24.712  0.00  0.00    -0.278 N 
ATOM     14  C   UNL     1      33.808 -13.143 -25.884  0.00  0.00    +0.289 C 
ATOM     15  H   UNL     1      34.508 -13.160 -23.988  0.00  0.00    +0.155 HD
BRANCH  13  17
ATOM     16  N   UNL     1      34.446  -8.448 -23.896  0.00  0.00    -0.242 NA
ATOM     17  C   UNL     1      34.303 -11.168 -24.435  0.00  0.00    +0.054 C 
ATOM     18  C   UNL     1      35.390 -10.443 -24.883  0.00  0.00    +0.035 C 
ATOM     19  C   UNL     1      33.286 -10.563 -23.725  0.00  0.00    +0.035 C 
ATOM     20  C   UNL     1      35.414  -9.089 -24.588  0.00  0.00    +0.100 C 
ATOM     21  C   UNL     1      33.404  -9.204 -23.481  0.00  0.00    +0.100 C 
ENDBRANCH  13  17
ENDBRANCH  11  14
ENDBRANCH   4  11
BRANCH   1  22
ATOM     22  C   UNL     1      36.588 -17.901 -23.276  0.00  0.00    +0.122 C 
BRANCH  22  24
ATOM     23 CL   UNL     1      34.084 -21.892 -19.558  0.00  0.00    -0.082 Cl
ATOM     24  C   UNL     1      35.960 -18.903 -22.344  0.00  0.00    -0.002 C 
ATOM     25  C   UNL     1      34.635 -19.273 -22.529  0.00  0.00    -0.002 C 
ATOM     26  C   UNL     1      36.715 -19.442 -21.311  0.00  0.00    -0.002 C 
ATOM     27  C   UNL     1      34.054 -20.200 -21.665  0.00  0.00    +0.011 C 
ATOM     28  C   UNL     1      36.133 -20.369 -20.447  0.00  0.00    +0.011 C 
ATOM     29  C   UNL     1      34.802 -20.749 -20.624  0.00  0.00    +0.058 C 
ENDBRANCH  22  24
ENDBRANCH   1  22
TORSDOF 5
ENDMDL
MODEL 8
REMARK VINA RESULT:      -9.8      3.060      7.376
REMARK  Name = 2929
REMARK  5 active torsions:
REMARK  status: ('A' for Active; 'I' for Inactive)
REMARK    1  A    between atoms: N_1  and  C_22
REMARK    2  A    between atoms: C_4  and  C_11
REMARK    3  A    between atoms: C_11  and  C_14
REMARK    4  A    between atoms: N_13  and  C_17
REMARK    5  A    between atoms: C_22  and  C_24
REMARK                            x       y       z     vdW  Elec       q    Type
REMARK                         _______ _______ _______ _____ _____    ______ ____
ROOT
ATOM      1  N   UNL     1      34.451 -22.564 -18.339  0.00  0.00    -0.281 N 
ATOM      2  C   UNL     1      34.970 -21.721 -19.296  0.00  0.00    +0.052 C 
ATOM      3  C   UNL     1      36.260 -21.380 -18.887  0.00  0.00    +0.018 C 
ATOM      4  C   UNL     1      36.498 -22.048 -17.653  0.00  0.00    +0.060 C 
ATOM      5  C   UNL     1      35.367 -22.768 -17.342  0.00  0.00    +0.069 C 
ATOM      6  C   UNL     1      34.399 -21.239 -20.479  0.00  0.00    +0.015 C 
ATOM      7  C   UNL     1      37.021 -20.515 -19.698  0.00  0.00    +0.001 C 
ATOM      8  C   UNL     1      35.173 -20.383 -21.268  0.00  0.00    +0.001 C 
ATOM      9  C   UNL     1      36.465 -20.026 -20.885  0.00  0.00    +0.000 C 
ENDROOT
BRANCH   4  11
ATOM     10  O   UNL     1      38.557 -21.135 -16.900  0.00  0.00    -0.282 OA
ATOM     11  C   UNL     1      37.680 -22.014 -16.841  0.00  0.00    +0.250 C 
BRANCH  11  14
ATOM     12  O   UNL     1      39.056 -23.660 -15.922  0.00  0.00    -0.266 OA
ATOM     13  N   UNL     1      36.968 -23.213 -14.895  0.00  0.00    -0.278 N 
ATOM     14  C   UNL     1      37.990 -23.080 -15.811  0.00  0.00    +0.289 C 
ATOM     15  H   UNL     1      36.190 -22.622 -15.014  0.00  0.00    +0.155 HD
BRANCH  13  17
ATOM     16  N   UNL     1      36.828 -25.862 -11.651  0.00  0.00    -0.242 NA
ATOM     17  C   UNL     1      36.920 -24.107 -13.801  0.00  0.00    +0.054 C 
ATOM     18  C   UNL     1      37.310 -25.420 -13.979  0.00  0.00    +0.035 C 
ATOM     19  C   UNL     1      36.485 -23.653 -12.572  0.00  0.00    +0.035 C 
ATOM     20  C   UNL     1      37.245 -26.255 -12.875  0.00  0.00    +0.100 C 
ATOM     21  C   UNL     1      36.457 -24.567 -11.531  0.00  0.00    +0.100 C 
ENDBRANCH  13  17
ENDBRANCH  11  14
ENDBRANCH   4  11
BRANCH   1  22
ATOM     22  C   UNL     1      33.131 -23.158 -18.366  0.00  0.00    +0.122 C 
BRANCH  22  24
ATOM     23 CL   UNL     1      30.916 -23.829 -12.829  0.00  0.00    -0.082 Cl
ATOM     24  C   UNL     1      32.576 -23.326 -16.977  0.00  0.00    -0.002 C 
ATOM     25  C   UNL     1      33.368 -23.894 -15.988  0.00  0.00    -0.002 C 
ATOM     26  C   UNL     1      31.280 -22.911 -16.704  0.00  0.00    -0.002 C 
ATOM     27  C   UNL     1      32.853 -24.049 -14.701  0.00  0.00    +0.011 C 
ATOM     28  C   UNL     1      30.765 -23.068 -15.418  0.00  0.00    +0.011 C 
ATOM     29  C   UNL     1      31.552 -23.636 -14.416  0.00  0.00    +0.058 C 
ENDBRANCH  22  24
ENDBRANCH   1  22
TORSDOF 5
ENDMDL
MODEL 9
REMARK VINA RESULT:      -9.6      8.332     11.780
REMARK  Name = 2929
REMARK  5 active torsions:
REMARK  status: ('A' for Active; 'I' for Inactive)
REMARK    1  A    between atoms: N_1  and  C_22
REMARK    2  A    between atoms: C_4  and  C_11
REMARK    3  A    between atoms: C_11  and  C_14
REMARK    4  A    between atoms: N_13  and  C_17
REMARK    5  A    between atoms: C_22  and  C_24
REMARK                            x       y       z     vdW  Elec       q    Type
REMARK                         _______ _______ _______ _____ _____    ______ ____
ROOT
ATOM      1  N   UNL     1      34.599 -14.910 -22.090  0.00  0.00    -0.281 N 
ATOM      2  C   UNL     1      33.599 -14.182 -21.484  0.00  0.00    +0.052 C 
ATOM      3  C   UNL     1      33.226 -13.175 -22.376  0.00  0.00    +0.018 C 
ATOM      4  C   UNL     1      34.037 -13.322 -23.535  0.00  0.00    +0.060 C 
ATOM      5  C   UNL     1      34.871 -14.397 -23.330  0.00  0.00    +0.069 C 
ATOM      6  C   UNL     1      33.002 -14.340 -20.229  0.00  0.00    +0.015 C 
ATOM      7  C   UNL     1      32.208 -12.277 -21.996  0.00  0.00    +0.001 C 
ATOM      8  C   UNL     1      31.994 -13.439 -19.874  0.00  0.00    +0.001 C 
ATOM      9  C   UNL     1      31.601 -12.423 -20.743  0.00  0.00    +0.000 C 
ENDROOT
BRANCH   4  11
ATOM     10  O   UNL     1      33.793 -12.959 -25.870  0.00  0.00    -0.282 OA
ATOM     11  C   UNL     1      34.028 -12.525 -24.730  0.00  0.00    +0.250 C 
BRANCH  11  14
ATOM     12  O   UNL     1      35.305 -10.670 -25.339  0.00  0.00    -0.266 OA
ATOM     13  N   UNL     1      33.396 -10.343 -23.975  0.00  0.00    -0.278 N 
ATOM     14  C   UNL     1      34.324 -11.041 -24.718  0.00  0.00    +0.289 C 
ATOM     15  H   UNL     1      32.679 -10.872 -23.557  0.00  0.00    +0.155 HD
BRANCH  13  17
ATOM     16  N   UNL     1      33.298  -6.208 -23.306  0.00  0.00    -0.242 NA
ATOM     17  C   UNL     1      33.363  -8.947 -23.750  0.00  0.00    +0.054 C 
ATOM     18  C   UNL     1      32.146  -8.297 -23.697  0.00  0.00    +0.035 C 
ATOM     19  C   UNL     1      34.548  -8.258 -23.587  0.00  0.00    +0.035 C 
ATOM     20  C   UNL     1      32.167  -6.930 -23.473  0.00  0.00    +0.100 C 
ATOM     21  C   UNL     1      34.462  -6.893 -23.368  0.00  0.00    +0.100 C 
ENDBRANCH  13  17
ENDBRANCH  11  14
ENDBRANCH   4  11
BRANCH   1  22
ATOM     22  C   UNL     1      35.277 -16.052 -21.514  0.00  0.00    +0.122 C 
BRANCH  22  24
ATOM     23 CL   UNL     1      35.208 -20.747 -25.251  0.00  0.00    -0.082 Cl
ATOM     24  C   UNL     1      35.261 -17.229 -22.451  0.00  0.00    -0.002 C 
ATOM     25  C   UNL     1      35.188 -17.012 -23.821  0.00  0.00    -0.002 C 
ATOM     26  C   UNL     1      35.318 -18.516 -21.933  0.00  0.00    -0.002 C 
ATOM     27  C   UNL     1      35.172 -18.104 -24.689  0.00  0.00    +0.011 C 
ATOM     28  C   UNL     1      35.301 -19.607 -22.802  0.00  0.00    +0.011 C 
ATOM     29  C   UNL     1      35.229 -19.401 -24.180  0.00  0.00    +0.058 C 
ENDBRANCH  22  24
ENDBRANCH   1  22
TORSDOF 5
ENDMDL
