MODEL 1
REMARK VINA RESULT:     -12.3      0.000      0.000
REMARK  Name = 11634458
REMARK  5 active torsions:
REMARK  status: ('A' for Active; 'I' for Inactive)
REMARK    1  A    between atoms: N_3  and  C_11
REMARK    2  A    between atoms: C_4  and  C_19
REMARK    3  A    between atoms: C_5  and  O_35
REMARK    4  A    between atoms: N_18  and  C_22
REMARK    5  A    between atoms: C_25  and  N_29
REMARK                            x       y       z     vdW  Elec       q    Type
REMARK                         _______ _______ _______ _____ _____    ______ ____
ROOT
ATOM      1  O   UNL     1      32.046 -23.692 -12.983  0.00  0.00    -0.252 OA
ATOM      2  N   UNL     1      33.978 -24.189 -14.120  0.00  0.00    -0.255 N 
ATOM      3  N   UNL     1      32.004 -23.758 -15.313  0.00  0.00    -0.268 N 
ATOM      4  C   UNL     1      34.759 -24.578 -15.293  0.00  0.00    +0.156 C 
ATOM      5  C   UNL     1      36.189 -24.581 -13.357  0.00  0.00    +0.137 C 
ATOM      6  C   UNL     1      36.020 -25.231 -14.728  0.00  0.00    +0.061 C 
ATOM      7  C   UNL     1      34.762 -24.330 -12.895  0.00  0.00    +0.125 C 
ATOM      8  C   UNL     1      32.614 -23.865 -14.063  0.00  0.00    +0.308 C 
ATOM      9  H   UNL     1      32.583 -23.922 -16.092  0.00  0.00    +0.156 HD
ENDROOT
BRANCH   3  11
ATOM     10 CL   UNL     1      26.355 -22.429 -16.500  0.00  0.00    -0.082 Cl
ATOM     11  C   UNL     1      30.653 -23.440 -15.597  0.00  0.00    +0.052 C 
ATOM     12  C   UNL     1      30.044 -22.367 -14.952  0.00  0.00    +0.016 C 
ATOM     13  C   UNL     1      29.941 -24.203 -16.519  0.00  0.00    +0.016 C 
ATOM     14  C   UNL     1      28.713 -22.054 -15.231  0.00  0.00    +0.013 C 
ATOM     15  C   UNL     1      28.611 -23.890 -16.798  0.00  0.00    +0.013 C 
ATOM     16  C   UNL     1      27.997 -22.815 -16.154  0.00  0.00    +0.058 C 
ENDBRANCH   3  11
BRANCH   4  19
ATOM     17  O   UNL     1      35.559 -22.354 -15.517  0.00  0.00    -0.273 OA
ATOM     18  N   UNL     1      34.805 -23.510 -17.423  0.00  0.00    -0.281 N 
ATOM     19  C   UNL     1      35.095 -23.343 -16.075  0.00  0.00    +0.244 C 
ATOM     20  H   UNL     1      34.431 -24.382 -17.684  0.00  0.00    +0.155 HD
BRANCH  18  22
ATOM     21  F   UNL     1      37.313 -22.470 -18.007  0.00  0.00    -0.203 F 
ATOM     22  C   UNL     1      34.985 -22.570 -18.466  0.00  0.00    +0.078 C 
ATOM     23  C   UNL     1      36.252 -22.076 -18.725  0.00  0.00    +0.155 C 
ATOM     24  C   UNL     1      33.885 -22.164 -19.204  0.00  0.00    +0.018 C 
ATOM     25  C   UNL     1      35.328 -20.729 -20.506  0.00  0.00    +0.061 C 
ATOM     26  C   UNL     1      36.425 -21.149 -19.753  0.00  0.00    +0.046 C 
ATOM     27  C   UNL     1      34.059 -21.237 -20.232  0.00  0.00    +0.017 C 
BRANCH  25  29
ATOM     28  O   UNL     1      37.378 -18.689 -20.589  0.00  0.00    -0.269 OA
ATOM     29  N   UNL     1      35.509 -19.764 -21.575  0.00  0.00    -0.233 N 
ATOM     30  C   UNL     1      36.581 -18.837 -21.516  0.00  0.00    +0.257 C 
ATOM     31  C   UNL     1      34.621 -19.726 -22.652  0.00  0.00    +0.072 C 
ATOM     32  C   UNL     1      36.723 -17.910 -22.681  0.00  0.00    +0.059 C 
ATOM     33  C   UNL     1      34.751 -18.864 -23.665  0.00  0.00    +0.017 C 
ATOM     34  C   UNL     1      35.840 -17.935 -23.681  0.00  0.00    +0.006 C 
ENDBRANCH  25  29
ENDBRANCH  18  22
ENDBRANCH   4  19
BRANCH   5  35
ATOM     35  O   UNL     1      36.888 -23.348 -13.494  0.00  0.00    -0.352 OA
ATOM     36  C   UNL     1      37.565 -22.998 -12.295  0.00  0.00    +0.174 C 
ENDBRANCH   5  35
TORSDOF 5
ENDMDL
MODEL 2
REMARK VINA RESULT:     -11.5      1.751      2.443
REMARK  Name = 11634458
REMARK  5 active torsions:
REMARK  status: ('A' for Active; 'I' for Inactive)
REMARK    1  A    between atoms: N_3  and  C_11
REMARK    2  A    between atoms: C_4  and  C_19
REMARK    3  A    between atoms: C_5  and  O_35
REMARK    4  A    between atoms: N_18  and  C_22
REMARK    5  A    between atoms: C_25  and  N_29
REMARK                            x       y       z     vdW  Elec       q    Type
REMARK                         _______ _______ _______ _____ _____    ______ ____
ROOT
ATOM      1  O   UNL     1      33.858 -23.606 -12.214  0.00  0.00    -0.252 OA
ATOM      2  N   UNL     1      35.668 -24.786 -12.993  0.00  0.00    -0.255 N 
ATOM      3  N   UNL     1      33.680 -24.747 -14.239  0.00  0.00    -0.268 N 
ATOM      4  C   UNL     1      36.342 -25.762 -13.848  0.00  0.00    +0.156 C 
ATOM      5  C   UNL     1      37.871 -25.017 -12.145  0.00  0.00    +0.137 C 
ATOM      6  C   UNL     1      37.565 -26.209 -13.048  0.00  0.00    +0.061 C 
ATOM      7  C   UNL     1      36.502 -24.425 -11.849  0.00  0.00    +0.125 C 
ATOM      8  C   UNL     1      34.347 -24.325 -13.088  0.00  0.00    +0.308 C 
ATOM      9  H   UNL     1      34.197 -25.319 -14.852  0.00  0.00    +0.156 HD
ENDROOT
BRANCH   3  11
ATOM     10 CL   UNL     1      28.126 -23.514 -15.885  0.00  0.00    -0.082 Cl
ATOM     11  C   UNL     1      32.352 -24.452 -14.633  0.00  0.00    +0.052 C 
ATOM     12  C   UNL     1      32.068 -23.242 -15.258  0.00  0.00    +0.016 C 
ATOM     13  C   UNL     1      31.337 -25.375 -14.391  0.00  0.00    +0.016 C 
ATOM     14  C   UNL     1      30.759 -22.950 -15.646  0.00  0.00    +0.013 C 
ATOM     15  C   UNL     1      30.029 -25.084 -14.779  0.00  0.00    +0.013 C 
ATOM     16  C   UNL     1      29.740 -23.872 -15.406  0.00  0.00    +0.058 C 
ENDBRANCH   3  11
BRANCH   4  19
ATOM     17  O   UNL     1      37.772 -25.412 -15.711  0.00  0.00    -0.273 OA
ATOM     18  N   UNL     1      35.840 -24.091 -15.472  0.00  0.00    -0.281 N 
ATOM     19  C   UNL     1      36.749 -25.080 -15.121  0.00  0.00    +0.244 C 
ATOM     20  H   UNL     1      35.074 -23.968 -14.866  0.00  0.00    +0.155 HD
BRANCH  18  22
ATOM     21  F   UNL     1      38.020 -22.435 -15.936  0.00  0.00    -0.203 F 
ATOM     22  C   UNL     1      35.887 -23.239 -16.601  0.00  0.00    +0.078 C 
ATOM     23  C   UNL     1      36.992 -22.429 -16.797  0.00  0.00    +0.155 C 
ATOM     24  C   UNL     1      34.821 -23.234 -17.487  0.00  0.00    +0.018 C 
ATOM     25  C   UNL     1      35.970 -21.572 -18.812  0.00  0.00    +0.061 C 
ATOM     26  C   UNL     1      37.034 -21.589 -17.910  0.00  0.00    +0.046 C 
ATOM     27  C   UNL     1      34.864 -22.395 -18.600  0.00  0.00    +0.017 C 
BRANCH  25  29
ATOM     28  O   UNL     1      33.745 -21.021 -20.577  0.00  0.00    -0.269 OA
ATOM     29  N   UNL     1      36.014 -20.699 -19.969  0.00  0.00    -0.233 N 
ATOM     30  C   UNL     1      34.840 -20.479 -20.734  0.00  0.00    +0.257 C 
ATOM     31  C   UNL     1      37.211 -20.089 -20.351  0.00  0.00    +0.072 C 
ATOM     32  C   UNL     1      34.961 -19.528 -21.881  0.00  0.00    +0.059 C 
ATOM     33  C   UNL     1      37.300 -19.268 -21.402  0.00  0.00    +0.017 C 
ATOM     34  C   UNL     1      36.138 -18.975 -22.184  0.00  0.00    +0.006 C 
ENDBRANCH  25  29
ENDBRANCH  18  22
ENDBRANCH   4  19
BRANCH   5  35
ATOM     35  O   UNL     1      38.675 -24.076 -12.848  0.00  0.00    -0.352 OA
ATOM     36  C   UNL     1      38.333 -22.740 -12.506  0.00  0.00    +0.174 C 
ENDBRANCH   5  35
TORSDOF 5
ENDMDL
MODEL 3
REMARK VINA RESULT:      -9.7      9.413     14.167
REMARK  Name = 11634458
REMARK  5 active torsions:
REMARK  status: ('A' for Active; 'I' for Inactive)
REMARK    1  A    between atoms: N_3  and  C_11
REMARK    2  A    between atoms: C_4  and  C_19
REMARK    3  A    between atoms: C_5  and  O_35
REMARK    4  A    between atoms: N_18  and  C_22
REMARK    5  A    between atoms: C_25  and  N_29
REMARK                            x       y       z     vdW  Elec       q    Type
REMARK                         _______ _______ _______ _____ _____    ______ ____
ROOT
ATOM      1  O   UNL     1      33.016  -6.789 -21.195  0.00  0.00    -0.252 OA
ATOM      2  N   UNL     1      32.001  -8.849 -21.243  0.00  0.00    -0.255 N 
ATOM      3  N   UNL     1      32.772  -7.884 -23.239  0.00  0.00    -0.268 N 
ATOM      4  C   UNL     1      31.350  -9.987 -21.890  0.00  0.00    +0.156 C 
ATOM      5  C   UNL     1      31.179 -10.232 -19.501  0.00  0.00    +0.137 C 
ATOM      6  C   UNL     1      30.475 -10.610 -20.802  0.00  0.00    +0.061 C 
ATOM      7  C   UNL     1      31.784  -8.869 -19.799  0.00  0.00    +0.125 C 
ATOM      8  C   UNL     1      32.631  -7.755 -21.857  0.00  0.00    +0.308 C 
ATOM      9  H   UNL     1      32.418  -8.713 -23.634  0.00  0.00    +0.156 HD
ENDROOT
BRANCH   3  11
ATOM     10 CL   UNL     1      35.251  -4.053 -27.015  0.00  0.00    -0.082 Cl
ATOM     11  C   UNL     1      33.365  -6.968 -24.142  0.00  0.00    +0.052 C 
ATOM     12  C   UNL     1      32.575  -6.019 -24.784  0.00  0.00    +0.016 C 
ATOM     13  C   UNL     1      34.736  -7.022 -24.383  0.00  0.00    +0.016 C 
ATOM     14  C   UNL     1      33.158  -5.116 -25.674  0.00  0.00    +0.013 C 
ATOM     15  C   UNL     1      35.319  -6.120 -25.272  0.00  0.00    +0.013 C 
ATOM     16  C   UNL     1      34.530  -5.167 -25.918  0.00  0.00    +0.058 C 
ENDBRANCH   3  11
BRANCH   4  19
ATOM     17  O   UNL     1      33.311 -10.577 -23.091  0.00  0.00    -0.273 OA
ATOM     18  N   UNL     1      32.195 -12.214 -21.822  0.00  0.00    -0.281 N 
ATOM     19  C   UNL     1      32.408 -10.947 -22.346  0.00  0.00    +0.244 C 
ATOM     20  H   UNL     1      31.407 -12.318 -21.240  0.00  0.00    +0.155 HD
BRANCH  18  22
ATOM     21  F   UNL     1      32.558 -14.082 -19.799  0.00  0.00    -0.203 F 
ATOM     22  C   UNL     1      32.978 -13.375 -22.026  0.00  0.00    +0.078 C 
ATOM     23  C   UNL     1      33.134 -14.282 -20.993  0.00  0.00    +0.155 C 
ATOM     24  C   UNL     1      33.573 -13.577 -23.261  0.00  0.00    +0.018 C 
ATOM     25  C   UNL     1      34.514 -15.643 -22.435  0.00  0.00    +0.061 C 
ATOM     26  C   UNL     1      33.907 -15.424 -21.197  0.00  0.00    +0.046 C 
ATOM     27  C   UNL     1      34.347 -14.720 -23.466  0.00  0.00    +0.017 C 
BRANCH  25  29
ATOM     28  O   UNL     1      34.629 -17.167 -24.891  0.00  0.00    -0.269 OA
ATOM     29  N   UNL     1      35.319 -16.831 -22.647  0.00  0.00    -0.233 N 
ATOM     30  C   UNL     1      35.319 -17.467 -23.916  0.00  0.00    +0.257 C 
ATOM     31  C   UNL     1      36.078 -17.369 -21.606  0.00  0.00    +0.072 C 
ATOM     32  C   UNL     1      36.212 -18.657 -24.064  0.00  0.00    +0.059 C 
ATOM     33  C   UNL     1      36.843 -18.454 -21.755  0.00  0.00    +0.017 C 
ATOM     34  C   UNL     1      36.916 -19.112 -23.025  0.00  0.00    +0.006 C 
ENDBRANCH  25  29
ENDBRANCH  18  22
ENDBRANCH   4  19
BRANCH   5  35
ATOM     35  O   UNL     1      32.205 -11.177 -19.218  0.00  0.00    -0.352 OA
ATOM     36  C   UNL     1      31.944 -11.884 -18.014  0.00  0.00    +0.174 C 
ENDBRANCH   5  35
TORSDOF 5
ENDMDL
MODEL 4
REMARK VINA RESULT:      -9.5      1.923      2.398
REMARK  Name = 11634458
REMARK  5 active torsions:
REMARK  status: ('A' for Active; 'I' for Inactive)
REMARK    1  A    between atoms: N_3  and  C_11
REMARK    2  A    between atoms: C_4  and  C_19
REMARK    3  A    between atoms: C_5  and  O_35
REMARK    4  A    between atoms: N_18  and  C_22
REMARK    5  A    between atoms: C_25  and  N_29
REMARK                            x       y       z     vdW  Elec       q    Type
REMARK                         _______ _______ _______ _____ _____    ______ ____
ROOT
ATOM      1  O   UNL     1      32.434 -22.331 -14.514  0.00  0.00    -0.252 OA
ATOM      2  N   UNL     1      33.851 -23.580 -15.820  0.00  0.00    -0.255 N 
ATOM      3  N   UNL     1      31.568 -23.475 -16.351  0.00  0.00    -0.268 N 
ATOM      4  C   UNL     1      34.176 -24.584 -16.832  0.00  0.00    +0.156 C 
ATOM      5  C   UNL     1      36.201 -23.887 -15.732  0.00  0.00    +0.137 C 
ATOM      6  C   UNL     1      35.578 -25.071 -16.466  0.00  0.00    +0.061 C 
ATOM      7  C   UNL     1      35.024 -23.244 -15.016  0.00  0.00    +0.125 C 
ATOM      8  C   UNL     1      32.587 -23.071 -15.487  0.00  0.00    +0.308 C 
ATOM      9  H   UNL     1      31.837 -24.068 -17.089  0.00  0.00    +0.156 HD
ENDROOT
BRANCH   3  11
ATOM     10 CL   UNL     1      25.824 -22.048 -16.119  0.00  0.00    -0.082 Cl
ATOM     11  C   UNL     1      30.194 -23.133 -16.296  0.00  0.00    +0.052 C 
ATOM     12  C   UNL     1      29.672 -22.549 -15.145  0.00  0.00    +0.016 C 
ATOM     13  C   UNL     1      29.373 -23.384 -17.393  0.00  0.00    +0.016 C 
ATOM     14  C   UNL     1      28.318 -22.213 -15.090  0.00  0.00    +0.013 C 
ATOM     15  C   UNL     1      28.021 -23.049 -17.338  0.00  0.00    +0.013 C 
ATOM     16  C   UNL     1      27.493 -22.463 -16.186  0.00  0.00    +0.058 C 
ENDBRANCH   3  11
BRANCH   4  19
ATOM     17  O   UNL     1      33.802 -24.537 -19.176  0.00  0.00    -0.273 OA
ATOM     18  N   UNL     1      34.617 -22.612 -18.096  0.00  0.00    -0.281 N 
ATOM     19  C   UNL     1      34.169 -23.924 -18.179  0.00  0.00    +0.244 C 
ATOM     20  H   UNL     1      34.873 -22.295 -17.200  0.00  0.00    +0.155 HD
BRANCH  18  22
ATOM     21  F   UNL     1      32.391 -21.439 -19.270  0.00  0.00    -0.203 F 
ATOM     22  C   UNL     1      34.750 -21.678 -19.151  0.00  0.00    +0.078 C 
ATOM     23  C   UNL     1      33.615 -21.116 -19.709  0.00  0.00    +0.155 C 
ATOM     24  C   UNL     1      36.018 -21.348 -19.604  0.00  0.00    +0.018 C 
ATOM     25  C   UNL     1      35.019 -19.854 -21.217  0.00  0.00    +0.061 C 
ATOM     26  C   UNL     1      33.750 -20.197 -20.750  0.00  0.00    +0.046 C 
ATOM     27  C   UNL     1      36.152 -20.430 -20.644  0.00  0.00    +0.017 C 
BRANCH  25  29
ATOM     28  O   UNL     1      34.958 -20.500 -24.036  0.00  0.00    -0.269 OA
ATOM     29  N   UNL     1      35.158 -18.898 -22.300  0.00  0.00    -0.233 N 
ATOM     30  C   UNL     1      35.071 -19.337 -23.646  0.00  0.00    +0.257 C 
ATOM     31  C   UNL     1      35.402 -17.550 -22.028  0.00  0.00    +0.072 C 
ATOM     32  C   UNL     1      35.177 -18.281 -24.699  0.00  0.00    +0.059 C 
ATOM     33  C   UNL     1      35.527 -16.630 -22.989  0.00  0.00    +0.017 C 
ATOM     34  C   UNL     1      35.404 -17.008 -24.364  0.00  0.00    +0.006 C 
ENDBRANCH  25  29
ENDBRANCH  18  22
ENDBRANCH   4  19
BRANCH   5  35
ATOM     35  O   UNL     1      36.762 -22.980 -16.674  0.00  0.00    -0.352 OA
ATOM     36  C   UNL     1      37.664 -22.075 -16.053  0.00  0.00    +0.174 C 
ENDBRANCH   5  35
TORSDOF 5
ENDMDL
MODEL 5
REMARK VINA RESULT:      -9.4     10.330     15.510
REMARK  Name = 11634458
REMARK  5 active torsions:
REMARK  status: ('A' for Active; 'I' for Inactive)
REMARK    1  A    between atoms: N_3  and  C_11
REMARK    2  A    between atoms: C_4  and  C_19
REMARK    3  A    between atoms: C_5  and  O_35
REMARK    4  A    between atoms: N_18  and  C_22
REMARK    5  A    between atoms: C_25  and  N_29
REMARK                            x       y       z     vdW  Elec       q    Type
REMARK                         _______ _______ _______ _____ _____    ______ ____
ROOT
ATOM      1  O   UNL     1      33.820  -5.307 -22.541  0.00  0.00    -0.252 OA
ATOM      2  N   UNL     1      32.654  -7.255 -22.195  0.00  0.00    -0.255 N 
ATOM      3  N   UNL     1      33.320  -6.668 -24.367  0.00  0.00    -0.268 N 
ATOM      4  C   UNL     1      31.866  -8.416 -22.608  0.00  0.00    +0.156 C 
ATOM      5  C   UNL     1      31.884  -8.289 -20.204  0.00  0.00    +0.137 C 
ATOM      6  C   UNL     1      31.044  -8.793 -21.375  0.00  0.00    +0.061 C 
ATOM      7  C   UNL     1      32.561  -7.043 -20.753  0.00  0.00    +0.125 C 
ATOM      8  C   UNL     1      33.309  -6.324 -23.015  0.00  0.00    +0.308 C 
ATOM      9  H   UNL     1      32.872  -7.512 -24.602  0.00  0.00    +0.156 HD
ENDROOT
BRANCH   3  11
ATOM     10 CL   UNL     1      35.745  -3.668 -28.862  0.00  0.00    -0.082 Cl
ATOM     11  C   UNL     1      33.900  -5.950 -25.442  0.00  0.00    +0.052 C 
ATOM     12  C   UNL     1      33.095  -5.176 -26.272  0.00  0.00    +0.016 C 
ATOM     13  C   UNL     1      35.273  -6.023 -25.663  0.00  0.00    +0.016 C 
ATOM     14  C   UNL     1      33.665  -4.469 -27.332  0.00  0.00    +0.013 C 
ATOM     15  C   UNL     1      35.844  -5.317 -26.721  0.00  0.00    +0.013 C 
ATOM     16  C   UNL     1      35.040  -4.540 -27.556  0.00  0.00    +0.058 C 
ENDBRANCH   3  11
BRANCH   4  19
ATOM     17  O   UNL     1      33.841  -9.281 -23.603  0.00  0.00    -0.273 OA
ATOM     18  N   UNL     1      32.332 -10.752 -22.557  0.00  0.00    -0.281 N 
ATOM     19  C   UNL     1      32.807  -9.521 -22.988  0.00  0.00    +0.244 C 
ATOM     20  H   UNL     1      31.473 -10.744 -22.077  0.00  0.00    +0.155 HD
BRANCH  18  22
ATOM     21  F   UNL     1      31.798 -12.854 -20.823  0.00  0.00    -0.203 F 
ATOM     22  C   UNL     1      32.940 -12.019 -22.730  0.00  0.00    +0.078 C 
ATOM     23  C   UNL     1      32.647 -13.040 -21.844  0.00  0.00    +0.155 C 
ATOM     24  C   UNL     1      33.819 -12.207 -23.785  0.00  0.00    +0.018 C 
ATOM     25  C   UNL     1      34.136 -14.493 -23.072  0.00  0.00    +0.061 C 
ATOM     26  C   UNL     1      33.249 -14.287 -22.015  0.00  0.00    +0.046 C 
ATOM     27  C   UNL     1      34.421 -13.453 -23.956  0.00  0.00    +0.017 C 
BRANCH  25  29
ATOM     28  O   UNL     1      35.251 -16.117 -20.954  0.00  0.00    -0.269 OA
ATOM     29  N   UNL     1      34.762 -15.790 -23.251  0.00  0.00    -0.233 N 
ATOM     30  C   UNL     1      35.236 -16.507 -22.122  0.00  0.00    +0.257 C 
ATOM     31  C   UNL     1      34.923 -16.329 -24.529  0.00  0.00    +0.072 C 
ATOM     32  C   UNL     1      35.824 -17.855 -22.390  0.00  0.00    +0.059 C 
ATOM     33  C   UNL     1      35.483 -17.523 -24.744  0.00  0.00    +0.017 C 
ATOM     34  C   UNL     1      35.940 -18.310 -23.640  0.00  0.00    +0.006 C 
ENDBRANCH  25  29
ENDBRANCH  18  22
ENDBRANCH   4  19
BRANCH   5  35
ATOM     35  O   UNL     1      32.856  -9.268 -19.855  0.00  0.00    -0.352 OA
ATOM     36  C   UNL     1      32.286 -10.317 -19.086  0.00  0.00    +0.174 C 
ENDBRANCH   5  35
TORSDOF 5
ENDMDL
