MODEL 1
REMARK VINA RESULT:     -11.4      0.000      0.000
REMARK  Name = 3351
REMARK  5 active torsions:
REMARK  status: ('A' for Active; 'I' for Inactive)
REMARK    1  A    between atoms: N_2  and  C_10
REMARK    2  A    between atoms: C_8  and  C_20
REMARK    3  A    between atoms: C_10  and  C_13
REMARK    4  A    between atoms: C_20  and  O_21
REMARK    5  A    between atoms: O_21  and  C_23
REMARK                            x       y       z     vdW  Elec       q    Type
REMARK                         _______ _______ _______ _____ _____    ______ ____
ROOT
ATOM      1  O   UNL     1      35.704 -17.273 -24.031  0.00  0.00    -0.271 OA
ATOM      2  N   UNL     1      33.229 -13.297 -22.305  0.00  0.00    +0.392 N 
ATOM      3  N   UNL     1      34.945 -15.564 -22.652  0.00  0.00    -0.281 N 
ATOM      4  C   UNL     1      33.332 -13.961 -23.613  0.00  0.00    -0.055 C 
ATOM      5  C   UNL     1      33.403 -14.271 -21.218  0.00  0.00    -0.055 C 
ATOM      6  C   UNL     1      34.688 -14.650 -23.764  0.00  0.00    +0.071 C 
ATOM      7  C   UNL     1      34.758 -14.974 -21.324  0.00  0.00    +0.071 C 
ATOM      8  C   UNL     1      35.448 -16.840 -22.904  0.00  0.00    +0.270 C 
ATOM      9  H   UNL     1      33.973 -12.601 -22.237  0.00  0.00    -0.079 HD
ENDROOT
BRANCH   2  10
ATOM     10  C   UNL     1      31.945 -12.610 -22.178  0.00  0.00    -0.050 C 
BRANCH  10  13
ATOM     11  O   UNL     1      32.738  -7.742 -22.407  0.00  0.00    -0.435 OA
ATOM     12  O   UNL     1      32.536  -7.480 -20.019  0.00  0.00    -0.435 OA
ATOM     13  C   UNL     1      32.097 -11.244 -21.563  0.00  0.00    -0.040 C 
ATOM     14  C   UNL     1      32.353 -10.152 -22.386  0.00  0.00    +0.034 C 
ATOM     15  C   UNL     1      31.979 -11.103 -20.175  0.00  0.00    -0.003 C 
ATOM     16  C   UNL     1      32.486  -8.921 -21.777  0.00  0.00    +0.176 C 
ATOM     17  C   UNL     1      32.371  -8.772 -20.414  0.00  0.00    +0.176 C 
ATOM     18  C   UNL     1      32.118  -9.845 -19.584  0.00  0.00    +0.040 C 
ATOM     19  C   UNL     1      32.768  -6.833 -21.288  0.00  0.00    +0.429 C 
ENDBRANCH  10  13
ENDBRANCH   2  10
BRANCH   8  20
ATOM     20  C   UNL     1      35.681 -17.722 -21.704  0.00  0.00    +0.290 C 
BRANCH  20  21
ATOM     21  O   UNL     1      35.591 -19.050 -22.157  0.00  0.00    -0.466 OA
BRANCH  21  23
ATOM     22 CL   UNL     1      33.830 -23.112 -18.300  0.00  0.00    -0.082 Cl
ATOM     23  C   UNL     1      35.179 -20.001 -21.252  0.00  0.00    +0.139 C 
ATOM     24  C   UNL     1      36.126 -20.734 -20.553  0.00  0.00    +0.038 C 
ATOM     25  C   UNL     1      33.822 -20.212 -21.055  0.00  0.00    +0.038 C 
ATOM     26  C   UNL     1      35.708 -21.699 -19.637  0.00  0.00    +0.015 C 
ATOM     27  C   UNL     1      33.403 -21.177 -20.139  0.00  0.00    +0.015 C 
ATOM     28  C   UNL     1      34.346 -21.921 -19.430  0.00  0.00    +0.058 C 
ENDBRANCH  21  23
ENDBRANCH  20  21
ENDBRANCH   8  20
TORSDOF 5
ENDMDL
MODEL 2
REMARK VINA RESULT:     -11.1      4.635      6.648
REMARK  Name = 3351
REMARK  5 active torsions:
REMARK  status: ('A' for Active; 'I' for Inactive)
REMARK    1  A    between atoms: N_2  and  C_10
REMARK    2  A    between atoms: C_8  and  C_20
REMARK    3  A    between atoms: C_10  and  C_13
REMARK    4  A    between atoms: C_20  and  O_21
REMARK    5  A    between atoms: O_21  and  C_23
REMARK                            x       y       z     vdW  Elec       q    Type
REMARK                         _______ _______ _______ _____ _____    ______ ____
ROOT
ATOM      1  O   UNL     1      36.550 -22.084 -18.796  0.00  0.00    -0.271 OA
ATOM      2  N   UNL     1      35.747 -18.834 -22.498  0.00  0.00    +0.392 N 
ATOM      3  N   UNL     1      35.514 -20.610 -20.263  0.00  0.00    -0.281 N 
ATOM      4  C   UNL     1      36.943 -19.455 -21.911  0.00  0.00    -0.055 C 
ATOM      5  C   UNL     1      34.590 -19.733 -22.380  0.00  0.00    -0.055 C 
ATOM      6  C   UNL     1      36.712 -19.790 -20.438  0.00  0.00    +0.071 C 
ATOM      7  C   UNL     1      34.314 -20.082 -20.916  0.00  0.00    +0.071 C 
ATOM      8  C   UNL     1      35.552 -21.724 -19.424  0.00  0.00    +0.270 C 
ATOM      9  H   UNL     1      35.542 -17.977 -21.983  0.00  0.00    -0.079 HD
ENDROOT
BRANCH   2  10
ATOM     10  C   UNL     1      35.983 -18.483 -23.897  0.00  0.00    -0.050 C 
BRANCH  10  13
ATOM     11  O   UNL     1      33.706 -15.412 -27.022  0.00  0.00    -0.435 OA
ATOM     12  O   UNL     1      33.590 -13.647 -25.384  0.00  0.00    -0.435 OA
ATOM     13  C   UNL     1      35.346 -17.169 -24.262  0.00  0.00    -0.040 C 
ATOM     14  C   UNL     1      34.833 -16.995 -25.544  0.00  0.00    +0.034 C 
ATOM     15  C   UNL     1      35.284 -16.151 -23.304  0.00  0.00    -0.003 C 
ATOM     16  C   UNL     1      34.258 -15.773 -25.832  0.00  0.00    +0.176 C 
ATOM     17  C   UNL     1      34.192 -14.766 -24.897  0.00  0.00    +0.176 C 
ATOM     18  C   UNL     1      34.697 -14.923 -23.622  0.00  0.00    +0.040 C 
ATOM     19  C   UNL     1      33.284 -14.064 -26.731  0.00  0.00    +0.429 C 
ENDBRANCH  10  13
ENDBRANCH   2  10
BRANCH   8  20
ATOM     20  C   UNL     1      34.277 -22.519 -19.302  0.00  0.00    +0.290 C 
BRANCH  20  21
ATOM     21  O   UNL     1      34.514 -23.513 -18.335  0.00  0.00    -0.466 OA
BRANCH  21  23
ATOM     22 CL   UNL     1      31.077 -23.523 -13.574  0.00  0.00    -0.082 Cl
ATOM     23  C   UNL     1      33.709 -23.514 -17.218  0.00  0.00    +0.139 C 
ATOM     24  C   UNL     1      34.230 -23.930 -16.003  0.00  0.00    +0.038 C 
ATOM     25  C   UNL     1      32.389 -23.100 -17.329  0.00  0.00    +0.038 C 
ATOM     26  C   UNL     1      33.414 -23.933 -14.871  0.00  0.00    +0.015 C 
ATOM     27  C   UNL     1      31.573 -23.103 -16.198  0.00  0.00    +0.015 C 
ATOM     28  C   UNL     1      32.084 -23.519 -14.969  0.00  0.00    +0.058 C 
ENDBRANCH  21  23
ENDBRANCH  20  21
ENDBRANCH   8  20
TORSDOF 5
ENDMDL
MODEL 3
REMARK VINA RESULT:     -10.7      4.074     10.273
REMARK  Name = 3351
REMARK  5 active torsions:
REMARK  status: ('A' for Active; 'I' for Inactive)
REMARK    1  A    between atoms: N_2  and  C_10
REMARK    2  A    between atoms: C_8  and  C_20
REMARK    3  A    between atoms: C_10  and  C_13
REMARK    4  A    between atoms: C_20  and  O_21
REMARK    5  A    between atoms: O_21  and  C_23
REMARK                            x       y       z     vdW  Elec       q    Type
REMARK                         _______ _______ _______ _____ _____    ______ ____
ROOT
ATOM      1  O   UNL     1      33.781 -12.955 -25.934  0.00  0.00    -0.271 OA
ATOM      2  N   UNL     1      35.250 -17.050 -23.488  0.00  0.00    +0.392 N 
ATOM      3  N   UNL     1      34.136 -14.527 -24.261  0.00  0.00    -0.281 N 
ATOM      4  C   UNL     1      35.274 -16.624 -24.894  0.00  0.00    -0.055 C 
ATOM      5  C   UNL     1      35.355 -15.886 -22.596  0.00  0.00    -0.055 C 
ATOM      6  C   UNL     1      34.126 -15.659 -25.187  0.00  0.00    +0.071 C 
ATOM      7  C   UNL     1      34.212 -14.900 -22.846  0.00  0.00    +0.071 C 
ATOM      8  C   UNL     1      33.956 -13.232 -24.745  0.00  0.00    +0.270 C 
ATOM      9  H   UNL     1      34.361 -17.516 -23.306  0.00  0.00    -0.079 HD
ENDROOT
BRANCH   2  10
ATOM     10  C   UNL     1      36.329 -18.000 -23.220  0.00  0.00    -0.050 C 
BRANCH  10  13
ATOM     11  O   UNL     1      33.065 -20.830 -20.829  0.00  0.00    -0.435 OA
ATOM     12  O   UNL     1      34.751 -21.741 -19.368  0.00  0.00    -0.435 OA
ATOM     13  C   UNL     1      35.941 -19.009 -22.172  0.00  0.00    -0.040 C 
ATOM     14  C   UNL     1      34.610 -19.400 -22.065  0.00  0.00    +0.034 C 
ATOM     15  C   UNL     1      36.928 -19.532 -21.329  0.00  0.00    -0.003 C 
ATOM     16  C   UNL     1      34.302 -20.327 -21.090  0.00  0.00    +0.176 C 
ATOM     17  C   UNL     1      35.265 -20.847 -20.256  0.00  0.00    +0.176 C 
ATOM     18  C   UNL     1      36.589 -20.469 -20.349  0.00  0.00    +0.040 C 
ATOM     19  C   UNL     1      33.357 -21.726 -19.737  0.00  0.00    +0.429 C 
ENDBRANCH  10  13
ENDBRANCH   2  10
BRANCH   8  20
ATOM     20  C   UNL     1      33.985 -12.121 -23.726  0.00  0.00    +0.290 C 
BRANCH  20  21
ATOM     21  O   UNL     1      33.866 -10.916 -24.441  0.00  0.00    -0.466 OA
BRANCH  21  23
ATOM     22 CL   UNL     1      32.659  -6.057 -21.371  0.00  0.00    -0.082 Cl
ATOM     23  C   UNL     1      33.583  -9.777 -23.719  0.00  0.00    +0.139 C 
ATOM     24  C   UNL     1      32.452  -9.741 -22.918  0.00  0.00    +0.038 C 
ATOM     25  C   UNL     1      34.435  -8.686 -23.808  0.00  0.00    +0.038 C 
ATOM     26  C   UNL     1      32.165  -8.587 -22.189  0.00  0.00    +0.015 C 
ATOM     27  C   UNL     1      34.148  -7.532 -23.079  0.00  0.00    +0.015 C 
ATOM     28  C   UNL     1      33.014  -7.481 -22.270  0.00  0.00    +0.058 C 
ENDBRANCH  21  23
ENDBRANCH  20  21
ENDBRANCH   8  20
TORSDOF 5
ENDMDL
MODEL 4
REMARK VINA RESULT:     -10.4      3.222      9.151
REMARK  Name = 3351
REMARK  5 active torsions:
REMARK  status: ('A' for Active; 'I' for Inactive)
REMARK    1  A    between atoms: N_2  and  C_10
REMARK    2  A    between atoms: C_8  and  C_20
REMARK    3  A    between atoms: C_10  and  C_13
REMARK    4  A    between atoms: C_20  and  O_21
REMARK    5  A    between atoms: O_21  and  C_23
REMARK                            x       y       z     vdW  Elec       q    Type
REMARK                         _______ _______ _______ _____ _____    ______ ____
ROOT
ATOM      1  O   UNL     1      33.765 -13.129 -26.018  0.00  0.00    -0.271 OA
ATOM      2  N   UNL     1      35.210 -17.229 -23.565  0.00  0.00    +0.392 N 
ATOM      3  N   UNL     1      34.127 -14.692 -24.338  0.00  0.00    -0.281 N 
ATOM      4  C   UNL     1      35.211 -16.816 -24.976  0.00  0.00    -0.055 C 
ATOM      5  C   UNL     1      35.357 -16.059 -22.687  0.00  0.00    -0.055 C 
ATOM      6  C   UNL     1      34.075 -15.832 -25.253  0.00  0.00    +0.071 C 
ATOM      7  C   UNL     1      34.228 -15.053 -22.921  0.00  0.00    +0.071 C 
ATOM      8  C   UNL     1      33.960 -13.398 -24.830  0.00  0.00    +0.270 C 
ATOM      9  H   UNL     1      34.316 -17.676 -23.360  0.00  0.00    -0.079 HD
ENDROOT
BRANCH   2  10
ATOM     10  C   UNL     1      36.276 -18.197 -23.313  0.00  0.00    -0.050 C 
BRANCH  10  13
ATOM     11  O   UNL     1      33.084 -20.968 -20.761  0.00  0.00    -0.435 OA
ATOM     12  O   UNL     1      34.794 -21.757 -19.256  0.00  0.00    -0.435 OA
ATOM     13  C   UNL     1      35.914 -19.156 -22.210  0.00  0.00    -0.040 C 
ATOM     14  C   UNL     1      34.593 -19.572 -22.078  0.00  0.00    +0.034 C 
ATOM     15  C   UNL     1      36.914 -19.608 -21.342  0.00  0.00    -0.003 C 
ATOM     16  C   UNL     1      34.309 -20.451 -21.052  0.00  0.00    +0.176 C 
ATOM     17  C   UNL     1      35.285 -20.901 -20.194  0.00  0.00    +0.176 C 
ATOM     18  C   UNL     1      36.599 -20.498 -20.312  0.00  0.00    +0.040 C 
ATOM     19  C   UNL     1      33.399 -21.795 -19.622  0.00  0.00    +0.429 C 
ENDBRANCH  10  13
ENDBRANCH   2  10
BRANCH   8  20
ATOM     20  C   UNL     1      34.033 -12.279 -23.823  0.00  0.00    +0.290 C 
BRANCH  20  21
ATOM     21  O   UNL     1      32.709 -11.985 -23.451  0.00  0.00    -0.466 OA
BRANCH  21  23
ATOM     22 CL   UNL     1      31.564 -11.451 -17.716  0.00  0.00    -0.082 Cl
ATOM     23  C   UNL     1      32.442 -11.860 -22.106  0.00  0.00    +0.139 C 
ATOM     24  C   UNL     1      32.437 -12.991 -21.304  0.00  0.00    +0.038 C 
ATOM     25  C   UNL     1      32.182 -10.604 -21.577  0.00  0.00    +0.038 C 
ATOM     26  C   UNL     1      32.165 -12.865 -19.941  0.00  0.00    +0.015 C 
ATOM     27  C   UNL     1      31.910 -10.478 -20.214  0.00  0.00    +0.015 C 
ATOM     28  C   UNL     1      31.901 -11.607 -19.397  0.00  0.00    +0.058 C 
ENDBRANCH  21  23
ENDBRANCH  20  21
ENDBRANCH   8  20
TORSDOF 5
ENDMDL
MODEL 5
REMARK VINA RESULT:     -10.4      8.040     13.275
REMARK  Name = 3351
REMARK  5 active torsions:
REMARK  status: ('A' for Active; 'I' for Inactive)
REMARK    1  A    between atoms: N_2  and  C_10
REMARK    2  A    between atoms: C_8  and  C_20
REMARK    3  A    between atoms: C_10  and  C_13
REMARK    4  A    between atoms: C_20  and  O_21
REMARK    5  A    between atoms: O_21  and  C_23
REMARK                            x       y       z     vdW  Elec       q    Type
REMARK                         _______ _______ _______ _____ _____    ______ ____
ROOT
ATOM      1  O   UNL     1      31.256 -23.207 -17.266  0.00  0.00    -0.271 OA
ATOM      2  N   UNL     1      34.692 -23.826 -13.698  0.00  0.00    +0.392 N 
ATOM      3  N   UNL     1      33.251 -23.136 -16.076  0.00  0.00    -0.281 N 
ATOM      4  C   UNL     1      33.251 -24.096 -13.801  0.00  0.00    -0.055 C 
ATOM      5  C   UNL     1      35.333 -23.941 -15.016  0.00  0.00    -0.055 C 
ATOM      6  C   UNL     1      32.586 -23.123 -14.773  0.00  0.00    +0.071 C 
ATOM      7  C   UNL     1      34.705 -22.969 -16.018  0.00  0.00    +0.071 C 
ATOM      8  C   UNL     1      32.490 -23.179 -17.243  0.00  0.00    +0.270 C 
ATOM      9  H   UNL     1      34.818 -22.871 -13.361  0.00  0.00    -0.079 HD
ENDROOT
BRANCH   2  10
ATOM     10  C   UNL     1      35.319 -24.736 -12.742  0.00  0.00    -0.050 C 
BRANCH  10  13
ATOM     11  O   UNL     1      39.230 -26.787 -14.951  0.00  0.00    -0.435 OA
ATOM     12  O   UNL     1      40.785 -25.382 -13.760  0.00  0.00    -0.435 OA
ATOM     13  C   UNL     1      36.797 -24.882 -12.991  0.00  0.00    -0.040 C 
ATOM     14  C   UNL     1      37.242 -25.829 -13.908  0.00  0.00    +0.034 C 
ATOM     15  C   UNL     1      37.691 -24.061 -12.294  0.00  0.00    -0.003 C 
ATOM     16  C   UNL     1      38.605 -25.926 -14.103  0.00  0.00    +0.176 C 
ATOM     17  C   UNL     1      39.492 -25.124 -13.423  0.00  0.00    +0.176 C 
ATOM     18  C   UNL     1      39.067 -24.181 -12.511  0.00  0.00    +0.040 C 
ATOM     19  C   UNL     1      40.611 -26.436 -14.730  0.00  0.00    +0.429 C 
ENDBRANCH  10  13
ENDBRANCH   2  10
BRANCH   8  20
ATOM     20  C   UNL     1      33.251 -23.196 -18.544  0.00  0.00    +0.290 C 
BRANCH  20  21
ATOM     21  O   UNL     1      32.878 -22.034 -19.244  0.00  0.00    -0.466 OA
BRANCH  21  23
ATOM     22 CL   UNL     1      37.133 -19.024 -21.948  0.00  0.00    -0.082 Cl
ATOM     23  C   UNL     1      33.876 -21.330 -19.879  0.00  0.00    +0.139 C 
ATOM     24  C   UNL     1      35.202 -21.629 -19.605  0.00  0.00    +0.038 C 
ATOM     25  C   UNL     1      33.538 -20.332 -20.781  0.00  0.00    +0.038 C 
ATOM     26  C   UNL     1      36.213 -20.914 -20.247  0.00  0.00    +0.015 C 
ATOM     27  C   UNL     1      34.549 -19.617 -21.423  0.00  0.00    +0.015 C 
ATOM     28  C   UNL     1      35.886 -19.907 -21.157  0.00  0.00    +0.058 C 
ENDBRANCH  21  23
ENDBRANCH  20  21
ENDBRANCH   8  20
TORSDOF 5
ENDMDL
MODEL 6
REMARK VINA RESULT:     -10.4      1.445      2.064
REMARK  Name = 3351
REMARK  5 active torsions:
REMARK  status: ('A' for Active; 'I' for Inactive)
REMARK    1  A    between atoms: N_2  and  C_10
REMARK    2  A    between atoms: C_8  and  C_20
REMARK    3  A    between atoms: C_10  and  C_13
REMARK    4  A    between atoms: C_20  and  O_21
REMARK    5  A    between atoms: O_21  and  C_23
REMARK                            x       y       z     vdW  Elec       q    Type
REMARK                         _______ _______ _______ _____ _____    ______ ____
ROOT
ATOM      1  O   UNL     1      34.367 -16.024 -26.366  0.00  0.00    -0.271 OA
ATOM      2  N   UNL     1      33.195 -13.525 -22.208  0.00  0.00    +0.392 N 
ATOM      3  N   UNL     1      34.463 -15.100 -24.237  0.00  0.00    -0.281 N 
ATOM      4  C   UNL     1      32.582 -13.662 -23.536  0.00  0.00    -0.055 C 
ATOM      5  C   UNL     1      33.928 -14.748 -21.850  0.00  0.00    -0.055 C 
ATOM      6  C   UNL     1      33.646 -13.942 -24.597  0.00  0.00    +0.071 C 
ATOM      7  C   UNL     1      35.016 -15.055 -22.881  0.00  0.00    +0.071 C 
ATOM      8  C   UNL     1      34.755 -16.069 -25.196  0.00  0.00    +0.270 C 
ATOM      9  H   UNL     1      33.857 -12.749 -22.236  0.00  0.00    -0.079 HD
ENDROOT
BRANCH   2  10
ATOM     10  C   UNL     1      32.178 -13.224 -21.201  0.00  0.00    -0.050 C 
BRANCH  10  13
ATOM     11  O   UNL     1      32.128  -8.405 -22.278  0.00  0.00    -0.435 OA
ATOM     12  O   UNL     1      32.157  -7.768 -19.954  0.00  0.00    -0.435 OA
ATOM     13  C   UNL     1      32.173 -11.765 -20.829  0.00  0.00    -0.040 C 
ATOM     14  C   UNL     1      32.151 -10.806 -21.836  0.00  0.00    +0.034 C 
ATOM     15  C   UNL     1      32.190 -11.406 -19.476  0.00  0.00    -0.003 C 
ATOM     16  C   UNL     1      32.147  -9.482 -21.446  0.00  0.00    +0.176 C 
ATOM     17  C   UNL     1      32.163  -9.118 -20.119  0.00  0.00    +0.176 C 
ATOM     18  C   UNL     1      32.185 -10.057 -19.109  0.00  0.00    +0.040 C 
ATOM     19  C   UNL     1      32.134  -7.322 -21.326  0.00  0.00    +0.429 C 
ENDBRANCH  10  13
ENDBRANCH   2  10
BRANCH   8  20
ATOM     20  C   UNL     1      35.598 -17.234 -24.743  0.00  0.00    +0.290 C 
BRANCH  20  21
ATOM     21  O   UNL     1      34.725 -18.146 -24.124  0.00  0.00    -0.466 OA
BRANCH  21  23
ATOM     22 CL   UNL     1      36.708 -20.981 -19.379  0.00  0.00    -0.082 Cl
ATOM     23  C   UNL     1      35.190 -18.812 -23.013  0.00  0.00    +0.139 C 
ATOM     24  C   UNL     1      34.345 -19.674 -22.331  0.00  0.00    +0.038 C 
ATOM     25  C   UNL     1      36.497 -18.609 -22.594  0.00  0.00    +0.038 C 
ATOM     26  C   UNL     1      34.815 -20.347 -21.203  0.00  0.00    +0.015 C 
ATOM     27  C   UNL     1      36.968 -19.282 -21.466  0.00  0.00    +0.015 C 
ATOM     28  C   UNL     1      36.128 -20.151 -20.771  0.00  0.00    +0.058 C 
ENDBRANCH  21  23
ENDBRANCH  20  21
ENDBRANCH   8  20
TORSDOF 5
ENDMDL
MODEL 7
REMARK VINA RESULT:     -10.4      3.905     10.259
REMARK  Name = 3351
REMARK  5 active torsions:
REMARK  status: ('A' for Active; 'I' for Inactive)
REMARK    1  A    between atoms: N_2  and  C_10
REMARK    2  A    between atoms: C_8  and  C_20
REMARK    3  A    between atoms: C_10  and  C_13
REMARK    4  A    between atoms: C_20  and  O_21
REMARK    5  A    between atoms: O_21  and  C_23
REMARK                            x       y       z     vdW  Elec       q    Type
REMARK                         _______ _______ _______ _____ _____    ______ ____
ROOT
ATOM      1  O   UNL     1      32.671 -13.295 -20.226  0.00  0.00    -0.271 OA
ATOM      2  N   UNL     1      35.547 -16.413 -22.857  0.00  0.00    +0.392 N 
ATOM      3  N   UNL     1      34.039 -14.181 -21.882  0.00  0.00    -0.281 N 
ATOM      4  C   UNL     1      34.922 -16.460 -21.528  0.00  0.00    -0.055 C 
ATOM      5  C   UNL     1      34.738 -15.603 -23.778  0.00  0.00    -0.055 C 
ATOM      6  C   UNL     1      34.761 -15.052 -20.955  0.00  0.00    +0.071 C 
ATOM      7  C   UNL     1      34.567 -14.177 -23.248  0.00  0.00    +0.071 C 
ATOM      8  C   UNL     1      33.022 -13.354 -21.407  0.00  0.00    +0.270 C 
ATOM      9  H   UNL     1      36.466 -15.977 -22.766  0.00  0.00    -0.079 HD
ENDROOT
BRANCH   2  10
ATOM     10  C   UNL     1      35.731 -17.763 -23.387  0.00  0.00    -0.050 C 
BRANCH  10  13
ATOM     11  O   UNL     1      34.082 -21.326 -20.391  0.00  0.00    -0.435 OA
ATOM     12  O   UNL     1      36.225 -21.574 -19.317  0.00  0.00    -0.435 OA
ATOM     13  C   UNL     1      35.900 -18.779 -22.288  0.00  0.00    -0.040 C 
ATOM     14  C   UNL     1      34.813 -19.560 -21.911  0.00  0.00    +0.034 C 
ATOM     15  C   UNL     1      37.149 -18.914 -21.671  0.00  0.00    -0.003 C 
ATOM     16  C   UNL     1      35.016 -20.477 -20.899  0.00  0.00    +0.176 C 
ATOM     17  C   UNL     1      36.240 -20.618 -20.286  0.00  0.00    +0.176 C 
ATOM     18  C   UNL     1      37.328 -19.851 -20.649  0.00  0.00    +0.040 C 
ATOM     19  C   UNL     1      34.854 -22.018 -19.390  0.00  0.00    +0.429 C 
ENDBRANCH  10  13
ENDBRANCH   2  10
BRANCH   8  20
ATOM     20  C   UNL     1      32.323 -12.492 -22.428  0.00  0.00    +0.290 C 
BRANCH  20  21
ATOM     21  O   UNL     1      31.440 -11.661 -21.716  0.00  0.00    -0.466 OA
BRANCH  21  23
ATOM     22 CL   UNL     1      32.699  -5.929 -21.504  0.00  0.00    -0.082 Cl
ATOM     23  C   UNL     1      31.737 -10.317 -21.666  0.00  0.00    +0.139 C 
ATOM     24  C   UNL     1      32.016  -9.726 -20.443  0.00  0.00    +0.038 C 
ATOM     25  C   UNL     1      31.750  -9.578 -22.840  0.00  0.00    +0.038 C 
ATOM     26  C   UNL     1      32.314  -8.364 -20.392  0.00  0.00    +0.015 C 
ATOM     27  C   UNL     1      32.049  -8.216 -22.789  0.00  0.00    +0.015 C 
ATOM     28  C   UNL     1      32.331  -7.609 -21.566  0.00  0.00    +0.058 C 
ENDBRANCH  21  23
ENDBRANCH  20  21
ENDBRANCH   8  20
TORSDOF 5
ENDMDL
MODEL 8
REMARK VINA RESULT:     -10.3      3.592      9.649
REMARK  Name = 3351
REMARK  5 active torsions:
REMARK  status: ('A' for Active; 'I' for Inactive)
REMARK    1  A    between atoms: N_2  and  C_10
REMARK    2  A    between atoms: C_8  and  C_20
REMARK    3  A    between atoms: C_10  and  C_13
REMARK    4  A    between atoms: C_20  and  O_21
REMARK    5  A    between atoms: O_21  and  C_23
REMARK                            x       y       z     vdW  Elec       q    Type
REMARK                         _______ _______ _______ _____ _____    ______ ____
ROOT
ATOM      1  O   UNL     1      34.855 -15.616 -25.508  0.00  0.00    -0.271 OA
ATOM      2  N   UNL     1      35.897 -18.921 -21.915  0.00  0.00    +0.392 N 
ATOM      3  N   UNL     1      34.953 -16.696 -23.453  0.00  0.00    -0.281 N 
ATOM      4  C   UNL     1      36.112 -18.874 -23.369  0.00  0.00    -0.055 C 
ATOM      5  C   UNL     1      35.914 -17.564 -21.349  0.00  0.00    -0.055 C 
ATOM      6  C   UNL     1      35.036 -18.029 -24.049  0.00  0.00    +0.071 C 
ATOM      7  C   UNL     1      34.837 -16.688 -21.993  0.00  0.00    +0.071 C 
ATOM      8  C   UNL     1      34.868 -15.573 -24.275  0.00  0.00    +0.270 C 
ATOM      9  H   UNL     1      34.980 -19.333 -21.738  0.00  0.00    -0.079 HD
ENDROOT
BRANCH   2  10
ATOM     10  C   UNL     1      36.909 -19.758 -21.272  0.00  0.00    -0.050 C 
BRANCH  10  13
ATOM     11  O   UNL     1      33.199 -22.380 -19.337  0.00  0.00    -0.435 OA
ATOM     12  O   UNL     1      34.548 -23.142 -17.491  0.00  0.00    -0.435 OA
ATOM     13  C   UNL     1      36.307 -20.670 -20.237  0.00  0.00    -0.040 C 
ATOM     14  C   UNL     1      34.977 -21.058 -20.363  0.00  0.00    +0.034 C 
ATOM     15  C   UNL     1      37.099 -21.106 -19.169  0.00  0.00    -0.003 C 
ATOM     16  C   UNL     1      34.469 -21.894 -19.389  0.00  0.00    +0.176 C 
ATOM     17  C   UNL     1      35.240 -22.329 -18.335  0.00  0.00    +0.176 C 
ATOM     18  C   UNL     1      36.560 -21.953 -18.196  0.00  0.00    +0.040 C 
ATOM     19  C   UNL     1      33.256 -23.170 -18.132  0.00  0.00    +0.429 C 
ENDBRANCH  10  13
ENDBRANCH   2  10
BRANCH   8  20
ATOM     20  C   UNL     1      34.791 -14.235 -23.583  0.00  0.00    +0.290 C 
BRANCH  20  21
ATOM     21  O   UNL     1      33.438 -13.853 -23.594  0.00  0.00    -0.466 OA
BRANCH  21  23
ATOM     22 CL   UNL     1      31.297 -11.340 -18.738  0.00  0.00    -0.082 Cl
ATOM     23  C   UNL     1      32.938 -13.263 -22.455  0.00  0.00    +0.139 C 
ATOM     24  C   UNL     1      33.050 -13.923 -21.241  0.00  0.00    +0.038 C 
ATOM     25  C   UNL     1      32.328 -12.020 -22.543  0.00  0.00    +0.038 C 
ATOM     26  C   UNL     1      32.541 -13.326 -20.087  0.00  0.00    +0.015 C 
ATOM     27  C   UNL     1      31.819 -11.424 -21.389  0.00  0.00    +0.015 C 
ATOM     28  C   UNL     1      31.926 -12.076 -20.161  0.00  0.00    +0.058 C 
ENDBRANCH  21  23
ENDBRANCH  20  21
ENDBRANCH   8  20
TORSDOF 5
ENDMDL
MODEL 9
REMARK VINA RESULT:     -10.2      7.633     11.387
REMARK  Name = 3351
REMARK  5 active torsions:
REMARK  status: ('A' for Active; 'I' for Inactive)
REMARK    1  A    between atoms: N_2  and  C_10
REMARK    2  A    between atoms: C_8  and  C_20
REMARK    3  A    between atoms: C_10  and  C_13
REMARK    4  A    between atoms: C_20  and  O_21
REMARK    5  A    between atoms: O_21  and  C_23
REMARK                            x       y       z     vdW  Elec       q    Type
REMARK                         _______ _______ _______ _____ _____    ______ ____
ROOT
ATOM      1  O   UNL     1      37.656 -21.510 -17.337  0.00  0.00    -0.271 OA
ATOM      2  N   UNL     1      33.804 -23.852 -15.193  0.00  0.00    +0.392 N 
ATOM      3  N   UNL     1      35.778 -22.837 -17.004  0.00  0.00    -0.281 N 
ATOM      4  C   UNL     1      34.926 -23.043 -14.696  0.00  0.00    -0.055 C 
ATOM      5  C   UNL     1      33.422 -23.425 -16.547  0.00  0.00    -0.055 C 
ATOM      6  C   UNL     1      36.135 -23.165 -15.624  0.00  0.00    +0.071 C 
ATOM      7  C   UNL     1      34.602 -23.547 -17.513  0.00  0.00    +0.071 C 
ATOM      8  C   UNL     1      36.608 -22.007 -17.757  0.00  0.00    +0.270 C 
ATOM      9  H   UNL     1      34.103 -24.827 -15.235  0.00  0.00    -0.079 HD
ENDROOT
BRANCH   2  10
ATOM     10  C   UNL     1      32.662 -23.760 -14.285  0.00  0.00    -0.050 C 
BRANCH  10  13
ATOM     11  O   UNL     1      28.968 -22.141 -17.132  0.00  0.00    -0.435 OA
ATOM     12  O   UNL     1      27.806 -24.250 -17.023  0.00  0.00    -0.435 OA
ATOM     13  C   UNL     1      31.354 -23.928 -15.010  0.00  0.00    -0.040 C 
ATOM     14  C   UNL     1      30.835 -22.859 -15.733  0.00  0.00    +0.034 C 
ATOM     15  C   UNL     1      30.687 -25.157 -14.939  0.00  0.00    -0.003 C 
ATOM     16  C   UNL     1      29.633 -23.060 -16.380  0.00  0.00    +0.176 C 
ATOM     17  C   UNL     1      28.970 -24.264 -16.318  0.00  0.00    +0.176 C 
ATOM     18  C   UNL     1      29.471 -25.333 -15.605  0.00  0.00    +0.040 C 
ATOM     19  C   UNL     1      27.811 -22.902 -17.536  0.00  0.00    +0.429 C 
ENDBRANCH  10  13
ENDBRANCH   2  10
BRANCH   8  20
ATOM     20  C   UNL     1      36.167 -21.714 -19.169  0.00  0.00    +0.290 C 
BRANCH  20  21
ATOM     21  O   UNL     1      36.813 -20.526 -19.553  0.00  0.00    -0.466 OA
BRANCH  21  23
ATOM     22 CL   UNL     1      35.051 -17.996 -24.551  0.00  0.00    -0.082 Cl
ATOM     23  C   UNL     1      36.398 -19.931 -20.724  0.00  0.00    +0.139 C 
ATOM     24  C   UNL     1      35.131 -20.204 -21.216  0.00  0.00    +0.038 C 
ATOM     25  C   UNL     1      37.257 -19.070 -21.392  0.00  0.00    +0.038 C 
ATOM     26  C   UNL     1      34.712 -19.604 -22.404  0.00  0.00    +0.015 C 
ATOM     27  C   UNL     1      36.838 -18.470 -22.580  0.00  0.00    +0.015 C 
ATOM     28  C   UNL     1      35.567 -18.736 -23.086  0.00  0.00    +0.058 C 
ENDBRANCH  21  23
ENDBRANCH  20  21
ENDBRANCH   8  20
TORSDOF 5
ENDMDL
