MODEL 1
REMARK VINA RESULT:     -11.6      0.000      0.000
REMARK  Name = 16045418
REMARK  6 active torsions:
REMARK  status: ('A' for Active; 'I' for Inactive)
REMARK    1  A    between atoms: C_2  and  O_8
REMARK    2  A    between atoms: C_4  and  O_23
REMARK    3  A    between atoms: O_8  and  C_9
REMARK    4  A    between atoms: C_9  and  C_14
REMARK    5  A    between atoms: O_23  and  C_25
REMARK    6  A    between atoms: C_28  and  C_32
REMARK                            x       y       z     vdW  Elec       q    Type
REMARK                         _______ _______ _______ _____ _____    ______ ____
ROOT
ATOM      1 CL   UNL     1      33.605 -14.597 -26.155  0.00  0.00    -0.079 Cl
ATOM      2  C   UNL     1      35.296 -18.146 -23.948  0.00  0.00    +0.142 C 
ATOM      3  C   UNL     1      35.550 -16.862 -23.473  0.00  0.00    +0.075 C 
ATOM      4  C   UNL     1      35.030 -15.758 -24.150  0.00  0.00    +0.159 C 
ATOM      5  C   UNL     1      34.528 -18.336 -25.093  0.00  0.00    +0.038 C 
ATOM      6  C   UNL     1      34.259 -15.943 -25.298  0.00  0.00    +0.092 C 
ATOM      7  C   UNL     1      34.009 -17.232 -25.769  0.00  0.00    +0.018 C 
ENDROOT
BRANCH   2   8
ATOM      8  O   UNL     1      35.806 -19.228 -23.285  0.00  0.00    -0.469 OA
BRANCH   8   9
ATOM      9  C   UNL     1      35.883 -19.125 -21.862  0.00  0.00    +0.249 C 
BRANCH   9  14
ATOM     10  N   UNL     1      33.531 -19.885 -21.631  0.00  0.00    -0.227 N 
ATOM     11  N   UNL     1      32.697 -20.707 -20.959  0.00  0.00    -0.115 NA
ATOM     12  N   UNL     1      33.168 -22.275 -19.169  0.00  0.00    -0.335 NA
ATOM     13  N   UNL     1      34.033 -23.683 -17.451  0.00  0.00    -0.332 N 
ATOM     14  C   UNL     1      34.839 -19.952 -21.236  0.00  0.00    +0.097 C 
ATOM     15  C   UNL     1      34.854 -20.886 -20.237  0.00  0.00    +0.090 C 
ATOM     16  C   UNL     1      33.504 -21.331 -20.094  0.00  0.00    +0.105 C 
ATOM     17  C   UNL     1      35.968 -21.297 -19.522  0.00  0.00    +0.016 C 
ATOM     18  C   UNL     1      35.602 -22.265 -18.580  0.00  0.00    +0.049 C 
ATOM     19  C   UNL     1      34.259 -22.695 -18.452  0.00  0.00    +0.189 C 
ATOM     20  H   UNL     1      33.221 -19.285 -22.348  0.00  0.00    +0.175 HD
ATOM     21  H   UNL     1      33.126 -24.033 -17.301  0.00  0.00    +0.145 HD
ATOM     22  H   UNL     1      34.785 -24.015 -16.909  0.00  0.00    +0.145 HD
ENDBRANCH   9  14
ENDBRANCH   8   9
ENDBRANCH   2   8
BRANCH   4  23
ATOM     23  O   UNL     1      35.290 -14.511 -23.667  0.00  0.00    -0.452 OA
BRANCH  23  25
ATOM     24 CL   UNL     1      32.286 -14.795 -19.569  0.00  0.00    -0.082 Cl
ATOM     25  C   UNL     1      34.323 -13.914 -22.877  0.00  0.00    +0.147 C 
ATOM     26  C   UNL     1      33.845 -12.662 -23.226  0.00  0.00    +0.048 C 
ATOM     27  C   UNL     1      33.856 -14.582 -21.760  0.00  0.00    +0.049 C 
ATOM     28  C   UNL     1      32.869 -12.061 -22.432  0.00  0.00    +0.072 C 
ATOM     29  C   UNL     1      32.880 -13.981 -20.965  0.00  0.00    +0.061 C 
ATOM     30  C   UNL     1      32.387 -12.720 -21.301  0.00  0.00    +0.022 C 
BRANCH  28  32
ATOM     31  N   UNL     1      31.953  -9.717 -23.057  0.00  0.00    -0.191 NA
ATOM     32  C   UNL     1      32.365 -10.769 -22.776  0.00  0.00    +0.101 C 
ENDBRANCH  28  32
ENDBRANCH  23  25
ENDBRANCH   4  23
TORSDOF 6
ENDMDL
MODEL 2
REMARK VINA RESULT:     -11.5      1.271      1.557
REMARK  Name = 16045418
REMARK  6 active torsions:
REMARK  status: ('A' for Active; 'I' for Inactive)
REMARK    1  A    between atoms: C_2  and  O_8
REMARK    2  A    between atoms: C_4  and  O_23
REMARK    3  A    between atoms: O_8  and  C_9
REMARK    4  A    between atoms: C_9  and  C_14
REMARK    5  A    between atoms: O_23  and  C_25
REMARK    6  A    between atoms: C_28  and  C_32
REMARK                            x       y       z     vdW  Elec       q    Type
REMARK                         _______ _______ _______ _____ _____    ______ ____
ROOT
ATOM      1 CL   UNL     1      33.857 -15.256 -26.492  0.00  0.00    -0.079 Cl
ATOM      2  C   UNL     1      35.342 -18.261 -23.478  0.00  0.00    +0.142 C 
ATOM      3  C   UNL     1      35.578 -16.905 -23.264  0.00  0.00    +0.075 C 
ATOM      4  C   UNL     1      35.121 -15.969 -24.192  0.00  0.00    +0.159 C 
ATOM      5  C   UNL     1      34.655 -18.688 -24.610  0.00  0.00    +0.038 C 
ATOM      6  C   UNL     1      34.432 -16.391 -25.329  0.00  0.00    +0.092 C 
ATOM      7  C   UNL     1      34.199 -17.751 -25.537  0.00  0.00    +0.018 C 
ENDROOT
BRANCH   2   8
ATOM      8  O   UNL     1      35.791 -19.179 -22.568  0.00  0.00    -0.469 OA
BRANCH   8   9
ATOM      9  C   UNL     1      34.794 -19.959 -21.905  0.00  0.00    +0.249 C 
BRANCH   9  14
ATOM     10  N   UNL     1      36.652 -20.363 -20.309  0.00  0.00    -0.227 N 
ATOM     11  N   UNL     1      37.015 -21.003 -19.177  0.00  0.00    -0.115 NA
ATOM     12  N   UNL     1      35.726 -22.468 -17.736  0.00  0.00    -0.335 NA
ATOM     13  N   UNL     1      34.142 -23.837 -16.596  0.00  0.00    -0.332 N 
ATOM     14  C   UNL     1      35.357 -20.579 -20.695  0.00  0.00    +0.097 C 
ATOM     15  C   UNL     1      34.845 -21.418 -19.745  0.00  0.00    +0.090 C 
ATOM     16  C   UNL     1      35.906 -21.659 -18.819  0.00  0.00    +0.105 C 
ATOM     17  C   UNL     1      33.553 -21.921 -19.712  0.00  0.00    +0.016 C 
ATOM     18  C   UNL     1      33.390 -22.746 -18.594  0.00  0.00    +0.049 C 
ATOM     19  C   UNL     1      34.453 -22.974 -17.686  0.00  0.00    +0.189 C 
ATOM     20  H   UNL     1      37.270 -19.787 -20.815  0.00  0.00    +0.175 HD
ATOM     21  H   UNL     1      34.828 -24.045 -15.922  0.00  0.00    +0.145 HD
ATOM     22  H   UNL     1      33.241 -24.226 -16.518  0.00  0.00    +0.145 HD
ENDBRANCH   9  14
ENDBRANCH   8   9
ENDBRANCH   2   8
BRANCH   4  23
ATOM     23  O   UNL     1      35.362 -14.647 -23.962  0.00  0.00    -0.452 OA
BRANCH  23  25
ATOM     24 CL   UNL     1      32.363 -14.557 -19.852  0.00  0.00    -0.082 Cl
ATOM     25  C   UNL     1      34.444 -13.952 -23.194  0.00  0.00    +0.147 C 
ATOM     26  C   UNL     1      34.057 -12.683 -23.589  0.00  0.00    +0.048 C 
ATOM     27  C   UNL     1      33.935 -14.542 -22.051  0.00  0.00    +0.049 C 
ATOM     28  C   UNL     1      33.132 -11.983 -22.816  0.00  0.00    +0.072 C 
ATOM     29  C   UNL     1      33.009 -13.842 -21.278  0.00  0.00    +0.061 C 
ATOM     30  C   UNL     1      32.608 -12.562 -21.660  0.00  0.00    +0.022 C 
BRANCH  28  32
ATOM     31  N   UNL     1      32.389  -9.601 -23.526  0.00  0.00    -0.191 NA
ATOM     32  C   UNL     1      32.722 -10.671 -23.207  0.00  0.00    +0.101 C 
ENDBRANCH  28  32
ENDBRANCH  23  25
ENDBRANCH   4  23
TORSDOF 6
ENDMDL
MODEL 3
REMARK VINA RESULT:     -11.2      2.338      4.065
REMARK  Name = 16045418
REMARK  6 active torsions:
REMARK  status: ('A' for Active; 'I' for Inactive)
REMARK    1  A    between atoms: C_2  and  O_8
REMARK    2  A    between atoms: C_4  and  O_23
REMARK    3  A    between atoms: O_8  and  C_9
REMARK    4  A    between atoms: C_9  and  C_14
REMARK    5  A    between atoms: O_23  and  C_25
REMARK    6  A    between atoms: C_28  and  C_32
REMARK                            x       y       z     vdW  Elec       q    Type
REMARK                         _______ _______ _______ _____ _____    ______ ____
ROOT
ATOM      1 CL   UNL     1      32.332 -12.805 -20.224  0.00  0.00    -0.079 Cl
ATOM      2  C   UNL     1      34.875 -15.397 -22.896  0.00  0.00    +0.142 C 
ATOM      3  C   UNL     1      34.060 -14.422 -23.465  0.00  0.00    +0.075 C 
ATOM      4  C   UNL     1      33.270 -13.615 -22.646  0.00  0.00    +0.159 C 
ATOM      5  C   UNL     1      34.907 -15.572 -21.516  0.00  0.00    +0.038 C 
ATOM      6  C   UNL     1      33.299 -13.787 -21.262  0.00  0.00    +0.092 C 
ATOM      7  C   UNL     1      34.117 -14.766 -20.697  0.00  0.00    +0.018 C 
ENDROOT
BRANCH   2   8
ATOM      8  O   UNL     1      35.649 -16.188 -23.700  0.00  0.00    -0.469 OA
BRANCH   8   9
ATOM      9  C   UNL     1      35.281 -17.566 -23.783  0.00  0.00    +0.249 C 
BRANCH   9  14
ATOM     10  N   UNL     1      37.354 -18.205 -22.575  0.00  0.00    -0.227 N 
ATOM     11  N   UNL     1      37.869 -18.992 -21.606  0.00  0.00    -0.115 NA
ATOM     12  N   UNL     1      36.772 -20.606 -20.166  0.00  0.00    -0.335 NA
ATOM     13  N   UNL     1      35.340 -22.082 -18.960  0.00  0.00    -0.332 N 
ATOM     14  C   UNL     1      36.007 -18.346 -22.768  0.00  0.00    +0.097 C 
ATOM     15  C   UNL     1      35.622 -19.291 -21.858  0.00  0.00    +0.090 C 
ATOM     16  C   UNL     1      36.807 -19.669 -21.155  0.00  0.00    +0.105 C 
ATOM     17  C   UNL     1      34.334 -19.771 -21.675  0.00  0.00    +0.016 C 
ATOM     18  C   UNL     1      34.319 -20.730 -20.657  0.00  0.00    +0.049 C 
ATOM     19  C   UNL     1      35.505 -21.091 -19.971  0.00  0.00    +0.189 C 
ATOM     20  H   UNL     1      37.905 -17.580 -23.101  0.00  0.00    +0.175 HD
ATOM     21  H   UNL     1      36.117 -22.386 -18.438  0.00  0.00    +0.145 HD
ATOM     22  H   UNL     1      34.449 -22.461 -18.784  0.00  0.00    +0.145 HD
ENDBRANCH   9  14
ENDBRANCH   8   9
ENDBRANCH   2   8
BRANCH   4  23
ATOM     23  O   UNL     1      32.481 -12.667 -23.224  0.00  0.00    -0.452 OA
BRANCH  23  25
ATOM     24 CL   UNL     1      36.034  -9.701 -25.340  0.00  0.00    -0.082 Cl
ATOM     25  C   UNL     1      33.011 -11.397 -23.378  0.00  0.00    +0.147 C 
ATOM     26  C   UNL     1      32.418 -10.335 -22.718  0.00  0.00    +0.048 C 
ATOM     27  C   UNL     1      34.120 -11.221 -24.185  0.00  0.00    +0.049 C 
ATOM     28  C   UNL     1      32.952  -9.056 -22.872  0.00  0.00    +0.072 C 
ATOM     29  C   UNL     1      34.655  -9.943 -24.339  0.00  0.00    +0.061 C 
ATOM     30  C   UNL     1      34.070  -8.859 -23.682  0.00  0.00    +0.022 C 
BRANCH  28  32
ATOM     31  N   UNL     1      31.865  -7.041 -21.652  0.00  0.00    -0.191 NA
ATOM     32  C   UNL     1      32.353  -7.946 -22.199  0.00  0.00    +0.101 C 
ENDBRANCH  28  32
ENDBRANCH  23  25
ENDBRANCH   4  23
TORSDOF 6
ENDMDL
MODEL 4
REMARK VINA RESULT:     -11.0      1.340      1.946
REMARK  Name = 16045418
REMARK  6 active torsions:
REMARK  status: ('A' for Active; 'I' for Inactive)
REMARK    1  A    between atoms: C_2  and  O_8
REMARK    2  A    between atoms: C_4  and  O_23
REMARK    3  A    between atoms: O_8  and  C_9
REMARK    4  A    between atoms: C_9  and  C_14
REMARK    5  A    between atoms: O_23  and  C_25
REMARK    6  A    between atoms: C_28  and  C_32
REMARK                            x       y       z     vdW  Elec       q    Type
REMARK                         _______ _______ _______ _____ _____    ______ ____
ROOT
ATOM      1 CL   UNL     1      34.706 -16.692 -25.859  0.00  0.00    -0.079 Cl
ATOM      2  C   UNL     1      35.364 -18.906 -21.987  0.00  0.00    +0.142 C 
ATOM      3  C   UNL     1      35.649 -17.545 -22.053  0.00  0.00    +0.075 C 
ATOM      4  C   UNL     1      35.448 -16.852 -23.247  0.00  0.00    +0.159 C 
ATOM      5  C   UNL     1      34.879 -19.580 -23.104  0.00  0.00    +0.038 C 
ATOM      6  C   UNL     1      34.963 -17.523 -24.369  0.00  0.00    +0.092 C 
ATOM      7  C   UNL     1      34.679 -18.887 -24.298  0.00  0.00    +0.018 C 
ENDROOT
BRANCH   2   8
ATOM      8  O   UNL     1      35.561 -19.585 -20.816  0.00  0.00    -0.469 OA
BRANCH   8   9
ATOM      9  C   UNL     1      35.715 -21.002 -20.919  0.00  0.00    +0.249 C 
BRANCH   9  14
ATOM     10  N   UNL     1      33.621 -21.984 -20.016  0.00  0.00    -0.227 N 
ATOM     11  N   UNL     1      33.058 -22.598 -18.954  0.00  0.00    -0.115 NA
ATOM     12  N   UNL     1      34.035 -23.230 -16.825  0.00  0.00    -0.335 NA
ATOM     13  N   UNL     1      35.354 -23.682 -14.891  0.00  0.00    -0.332 N 
ATOM     14  C   UNL     1      34.944 -21.674 -19.861  0.00  0.00    +0.097 C 
ATOM     15  C   UNL     1      35.262 -22.120 -18.608  0.00  0.00    +0.090 C 
ATOM     16  C   UNL     1      34.064 -22.688 -18.076  0.00  0.00    +0.105 C 
ATOM     17  C   UNL     1      36.504 -22.027 -17.999  0.00  0.00    +0.016 C 
ATOM     18  C   UNL     1      36.454 -22.589 -16.720  0.00  0.00    +0.049 C 
ATOM     19  C   UNL     1      35.257 -23.148 -16.208  0.00  0.00    +0.189 C 
ATOM     20  H   UNL     1      33.118 -21.775 -20.837  0.00  0.00    +0.175 HD
ATOM     21  H   UNL     1      34.564 -24.088 -14.466  0.00  0.00    +0.145 HD
ATOM     22  H   UNL     1      36.210 -23.645 -14.406  0.00  0.00    +0.145 HD
ENDBRANCH   9  14
ENDBRANCH   8   9
ENDBRANCH   2   8
BRANCH   4  23
ATOM     23  O   UNL     1      35.734 -15.520 -23.287  0.00  0.00    -0.452 OA
BRANCH  23  25
ATOM     24 CL   UNL     1      32.262 -14.520 -19.704  0.00  0.00    -0.082 Cl
ATOM     25  C   UNL     1      34.787 -14.645 -22.782  0.00  0.00    +0.147 C 
ATOM     26  C   UNL     1      34.559 -13.447 -23.435  0.00  0.00    +0.048 C 
ATOM     27  C   UNL     1      34.092 -14.991 -21.637  0.00  0.00    +0.049 C 
ATOM     28  C   UNL     1      33.605 -12.566 -22.926  0.00  0.00    +0.072 C 
ATOM     29  C   UNL     1      33.138 -14.110 -21.128  0.00  0.00    +0.061 C 
ATOM     30  C   UNL     1      32.895 -12.897 -21.772  0.00  0.00    +0.022 C 
BRANCH  28  32
ATOM     31  N   UNL     1      33.154 -10.310 -24.124  0.00  0.00    -0.191 NA
ATOM     32  C   UNL     1      33.357 -11.323 -23.586  0.00  0.00    +0.101 C 
ENDBRANCH  28  32
ENDBRANCH  23  25
ENDBRANCH   4  23
TORSDOF 6
ENDMDL
MODEL 5
REMARK VINA RESULT:     -11.0      6.327      9.938
REMARK  Name = 16045418
REMARK  6 active torsions:
REMARK  status: ('A' for Active; 'I' for Inactive)
REMARK    1  A    between atoms: C_2  and  O_8
REMARK    2  A    between atoms: C_4  and  O_23
REMARK    3  A    between atoms: O_8  and  C_9
REMARK    4  A    between atoms: C_9  and  C_14
REMARK    5  A    between atoms: O_23  and  C_25
REMARK    6  A    between atoms: C_28  and  C_32
REMARK                            x       y       z     vdW  Elec       q    Type
REMARK                         _______ _______ _______ _____ _____    ______ ____
ROOT
ATOM      1 CL   UNL     1      29.358 -22.481 -17.016  0.00  0.00    -0.079 Cl
ATOM      2  C   UNL     1      32.780 -24.055 -14.539  0.00  0.00    +0.142 C 
ATOM      3  C   UNL     1      32.974 -23.811 -15.896  0.00  0.00    +0.075 C 
ATOM      4  C   UNL     1      31.921 -23.324 -16.669  0.00  0.00    +0.159 C 
ATOM      5  C   UNL     1      31.542 -23.816 -13.949  0.00  0.00    +0.038 C 
ATOM      6  C   UNL     1      30.678 -23.083 -16.084  0.00  0.00    +0.092 C 
ATOM      7  C   UNL     1      30.489 -23.329 -14.724  0.00  0.00    +0.018 C 
ENDROOT
BRANCH   2   8
ATOM      8  O   UNL     1      33.813 -24.534 -13.781  0.00  0.00    -0.469 OA
BRANCH   8   9
ATOM      9  C   UNL     1      35.107 -23.990 -14.050  0.00  0.00    +0.249 C 
BRANCH   9  14
ATOM     10  N   UNL     1      35.583 -26.058 -15.339  0.00  0.00    -0.227 N 
ATOM     11  N   UNL     1      36.536 -26.951 -15.681  0.00  0.00    -0.115 NA
ATOM     12  N   UNL     1      38.881 -27.033 -15.067  0.00  0.00    -0.335 NA
ATOM     13  N   UNL     1      41.102 -26.760 -14.243  0.00  0.00    -0.332 N 
ATOM     14  C   UNL     1      36.013 -25.050 -14.521  0.00  0.00    +0.097 C 
ATOM     15  C   UNL     1      37.341 -25.307 -14.319  0.00  0.00    +0.090 C 
ATOM     16  C   UNL     1      37.629 -26.496 -15.056  0.00  0.00    +0.105 C 
ATOM     17  C   UNL     1      38.211 -24.550 -13.549  0.00  0.00    +0.016 C 
ATOM     18  C   UNL     1      39.489 -25.117 -13.574  0.00  0.00    +0.049 C 
ATOM     19  C   UNL     1      39.756 -26.297 -14.311  0.00  0.00    +0.189 C 
ATOM     20  H   UNL     1      34.652 -26.129 -15.653  0.00  0.00    +0.175 HD
ATOM     21  H   UNL     1      41.367 -27.574 -14.729  0.00  0.00    +0.145 HD
ATOM     22  H   UNL     1      41.767 -26.265 -13.711  0.00  0.00    +0.145 HD
ENDBRANCH   9  14
ENDBRANCH   8   9
ENDBRANCH   2   8
BRANCH   4  23
ATOM     23  O   UNL     1      32.134 -23.091 -17.995  0.00  0.00    -0.452 OA
BRANCH  23  25
ATOM     24 CL   UNL     1      37.106 -22.648 -17.005  0.00  0.00    -0.082 Cl
ATOM     25  C   UNL     1      33.363 -22.573 -18.366  0.00  0.00    +0.147 C 
ATOM     26  C   UNL     1      33.451 -21.794 -19.507  0.00  0.00    +0.048 C 
ATOM     27  C   UNL     1      34.474 -22.844 -17.587  0.00  0.00    +0.049 C 
ATOM     28  C   UNL     1      34.689 -21.271 -19.879  0.00  0.00    +0.072 C 
ATOM     29  C   UNL     1      35.712 -22.321 -17.959  0.00  0.00    +0.061 C 
ATOM     30  C   UNL     1      35.819 -21.535 -19.106  0.00  0.00    +0.022 C 
BRANCH  28  32
ATOM     31  N   UNL     1      34.886 -19.809 -22.013  0.00  0.00    -0.191 NA
ATOM     32  C   UNL     1      34.798 -20.465 -21.055  0.00  0.00    +0.101 C 
ENDBRANCH  28  32
ENDBRANCH  23  25
ENDBRANCH   4  23
TORSDOF 6
ENDMDL
MODEL 6
REMARK VINA RESULT:     -11.0      5.955     10.747
REMARK  Name = 16045418
REMARK  6 active torsions:
REMARK  status: ('A' for Active; 'I' for Inactive)
REMARK    1  A    between atoms: C_2  and  O_8
REMARK    2  A    between atoms: C_4  and  O_23
REMARK    3  A    between atoms: O_8  and  C_9
REMARK    4  A    between atoms: C_9  and  C_14
REMARK    5  A    between atoms: O_23  and  C_25
REMARK    6  A    between atoms: C_28  and  C_32
REMARK                            x       y       z     vdW  Elec       q    Type
REMARK                         _______ _______ _______ _____ _____    ______ ____
ROOT
ATOM      1 CL   UNL     1      31.170 -24.055 -12.766  0.00  0.00    -0.079 Cl
ATOM      2  C   UNL     1      32.043 -23.022 -17.067  0.00  0.00    +0.142 C 
ATOM      3  C   UNL     1      33.099 -23.290 -16.200  0.00  0.00    +0.075 C 
ATOM      4  C   UNL     1      32.838 -23.611 -14.868  0.00  0.00    +0.159 C 
ATOM      5  C   UNL     1      30.728 -23.071 -16.612  0.00  0.00    +0.038 C 
ATOM      6  C   UNL     1      31.522 -23.662 -14.408  0.00  0.00    +0.092 C 
ATOM      7  C   UNL     1      30.468 -23.391 -15.280  0.00  0.00    +0.018 C 
ENDROOT
BRANCH   2   8
ATOM      8  O   UNL     1      32.299 -22.707 -18.373  0.00  0.00    -0.469 OA
BRANCH   8   9
ATOM      9  C   UNL     1      33.673 -22.681 -18.764  0.00  0.00    +0.249 C 
BRANCH   9  14
ATOM     10  N   UNL     1      32.864 -21.078 -20.479  0.00  0.00    -0.227 N 
ATOM     11  N   UNL     1      33.233 -20.121 -21.357  0.00  0.00    -0.115 NA
ATOM     12  N   UNL     1      35.434 -19.232 -21.855  0.00  0.00    -0.335 NA
ATOM     13  N   UNL     1      37.734 -18.635 -22.050  0.00  0.00    -0.332 N 
ATOM     14  C   UNL     1      33.895 -21.625 -19.765  0.00  0.00    +0.097 C 
ATOM     15  C   UNL     1      35.012 -20.974 -20.212  0.00  0.00    +0.090 C 
ATOM     16  C   UNL     1      34.560 -20.048 -21.201  0.00  0.00    +0.105 C 
ATOM     17  C   UNL     1      36.310 -21.191 -19.777  0.00  0.00    +0.016 C 
ATOM     18  C   UNL     1      37.191 -20.344 -20.459  0.00  0.00    +0.049 C 
ATOM     19  C   UNL     1      36.725 -19.431 -21.436  0.00  0.00    +0.189 C 
ATOM     20  H   UNL     1      31.927 -21.359 -20.363  0.00  0.00    +0.175 HD
ATOM     21  H   UNL     1      37.490 -17.976 -22.739  0.00  0.00    +0.145 HD
ATOM     22  H   UNL     1      38.676 -18.743 -21.783  0.00  0.00    +0.145 HD
ENDBRANCH   9  14
ENDBRANCH   8   9
ENDBRANCH   2   8
BRANCH   4  23
ATOM     23  O   UNL     1      33.888 -23.871 -14.039  0.00  0.00    -0.452 OA
BRANCH  23  25
ATOM     24 CL   UNL     1      37.528 -21.414 -16.608  0.00  0.00    -0.082 Cl
ATOM     25  C   UNL     1      35.154 -23.900 -14.597  0.00  0.00    +0.147 C 
ATOM     26  C   UNL     1      35.909 -25.057 -14.497  0.00  0.00    +0.048 C 
ATOM     27  C   UNL     1      35.635 -22.774 -15.241  0.00  0.00    +0.049 C 
ATOM     28  C   UNL     1      37.184 -25.086 -15.061  0.00  0.00    +0.072 C 
ATOM     29  C   UNL     1      36.910 -22.804 -15.804  0.00  0.00    +0.061 C 
ATOM     30  C   UNL     1      37.685 -23.960 -15.713  0.00  0.00    +0.022 C 
BRANCH  28  32
ATOM     31  N   UNL     1      38.625 -27.236 -14.889  0.00  0.00    -0.191 NA
ATOM     32  C   UNL     1      37.978 -26.271 -14.967  0.00  0.00    +0.101 C 
ENDBRANCH  28  32
ENDBRANCH  23  25
ENDBRANCH   4  23
TORSDOF 6
ENDMDL
MODEL 7
REMARK VINA RESULT:     -10.8      7.172     10.286
REMARK  Name = 16045418
REMARK  6 active torsions:
REMARK  status: ('A' for Active; 'I' for Inactive)
REMARK    1  A    between atoms: C_2  and  O_8
REMARK    2  A    between atoms: C_4  and  O_23
REMARK    3  A    between atoms: O_8  and  C_9
REMARK    4  A    between atoms: C_9  and  C_14
REMARK    5  A    between atoms: O_23  and  C_25
REMARK    6  A    between atoms: C_28  and  C_32
REMARK                            x       y       z     vdW  Elec       q    Type
REMARK                         _______ _______ _______ _____ _____    ______ ____
ROOT
ATOM      1 CL   UNL     1      29.453 -22.413 -16.957  0.00  0.00    -0.079 Cl
ATOM      2  C   UNL     1      32.830 -24.082 -14.481  0.00  0.00    +0.142 C 
ATOM      3  C   UNL     1      33.020 -23.876 -15.845  0.00  0.00    +0.075 C 
ATOM      4  C   UNL     1      31.981 -23.359 -16.618  0.00  0.00    +0.159 C 
ATOM      5  C   UNL     1      31.611 -23.776 -13.885  0.00  0.00    +0.038 C 
ATOM      6  C   UNL     1      30.756 -23.051 -16.026  0.00  0.00    +0.092 C 
ATOM      7  C   UNL     1      30.571 -23.260 -14.659  0.00  0.00    +0.018 C 
ENDROOT
BRANCH   2   8
ATOM      8  O   UNL     1      33.850 -24.589 -13.723  0.00  0.00    -0.469 OA
BRANCH   8   9
ATOM      9  C   UNL     1      35.148 -24.039 -13.951  0.00  0.00    +0.249 C 
BRANCH   9  14
ATOM     10  N   UNL     1      35.625 -26.062 -15.309  0.00  0.00    -0.227 N 
ATOM     11  N   UNL     1      36.580 -26.939 -15.686  0.00  0.00    -0.115 NA
ATOM     12  N   UNL     1      38.930 -27.030 -15.092  0.00  0.00    -0.335 NA
ATOM     13  N   UNL     1      41.155 -26.772 -14.275  0.00  0.00    -0.332 N 
ATOM     14  C   UNL     1      36.056 -25.078 -14.462  0.00  0.00    +0.097 C 
ATOM     15  C   UNL     1      37.387 -25.336 -14.278  0.00  0.00    +0.090 C 
ATOM     16  C   UNL     1      37.675 -26.499 -15.054  0.00  0.00    +0.105 C 
ATOM     17  C   UNL     1      38.259 -24.600 -13.490  0.00  0.00    +0.016 C 
ATOM     18  C   UNL     1      39.540 -25.159 -13.542  0.00  0.00    +0.049 C 
ATOM     19  C   UNL     1      39.807 -26.313 -14.318  0.00  0.00    +0.189 C 
ATOM     20  H   UNL     1      34.692 -26.127 -15.618  0.00  0.00    +0.175 HD
ATOM     21  H   UNL     1      41.420 -27.569 -14.788  0.00  0.00    +0.145 HD
ATOM     22  H   UNL     1      41.821 -26.291 -13.732  0.00  0.00    +0.145 HD
ENDBRANCH   9  14
ENDBRANCH   8   9
ENDBRANCH   2   8
BRANCH   4  23
ATOM     23  O   UNL     1      32.190 -23.165 -17.951  0.00  0.00    -0.452 OA
BRANCH  23  25
ATOM     24 CL   UNL     1      34.772 -20.371 -21.331  0.00  0.00    -0.082 Cl
ATOM     25  C   UNL     1      33.398 -22.611 -18.337  0.00  0.00    +0.147 C 
ATOM     26  C   UNL     1      34.518 -22.819 -17.550  0.00  0.00    +0.048 C 
ATOM     27  C   UNL     1      33.458 -21.863 -19.500  0.00  0.00    +0.049 C 
ATOM     28  C   UNL     1      35.735 -22.261 -17.940  0.00  0.00    +0.072 C 
ATOM     29  C   UNL     1      34.675 -21.306 -19.889  0.00  0.00    +0.061 C 
ATOM     30  C   UNL     1      35.814 -21.504 -19.108  0.00  0.00    +0.022 C 
BRANCH  28  32
ATOM     31  N   UNL     1      37.852 -22.629 -16.486  0.00  0.00    -0.191 NA
ATOM     32  C   UNL     1      36.902 -22.465 -17.139  0.00  0.00    +0.101 C 
ENDBRANCH  28  32
ENDBRANCH  23  25
ENDBRANCH   4  23
TORSDOF 6
ENDMDL
MODEL 8
REMARK VINA RESULT:     -10.7      2.250      3.187
REMARK  Name = 16045418
REMARK  6 active torsions:
REMARK  status: ('A' for Active; 'I' for Inactive)
REMARK    1  A    between atoms: C_2  and  O_8
REMARK    2  A    between atoms: C_4  and  O_23
REMARK    3  A    between atoms: O_8  and  C_9
REMARK    4  A    between atoms: C_9  and  C_14
REMARK    5  A    between atoms: O_23  and  C_25
REMARK    6  A    between atoms: C_28  and  C_32
REMARK                            x       y       z     vdW  Elec       q    Type
REMARK                         _______ _______ _______ _____ _____    ______ ____
ROOT
ATOM      1 CL   UNL     1      34.485 -17.452 -25.731  0.00  0.00    -0.079 Cl
ATOM      2  C   UNL     1      35.598 -19.134 -21.699  0.00  0.00    +0.142 C 
ATOM      3  C   UNL     1      35.996 -17.843 -22.034  0.00  0.00    +0.075 C 
ATOM      4  C   UNL     1      35.655 -17.314 -23.279  0.00  0.00    +0.159 C 
ATOM      5  C   UNL     1      34.864 -19.901 -22.598  0.00  0.00    +0.038 C 
ATOM      6  C   UNL     1      34.919 -18.079 -24.184  0.00  0.00    +0.092 C 
ATOM      7  C   UNL     1      34.524 -19.373 -23.843  0.00  0.00    +0.018 C 
ENDROOT
BRANCH   2   8
ATOM      8  O   UNL     1      35.933 -19.652 -20.478  0.00  0.00    -0.469 OA
BRANCH   8   9
ATOM      9  C   UNL     1      36.463 -20.979 -20.472  0.00  0.00    +0.249 C 
BRANCH   9  14
ATOM     10  N   UNL     1      34.610 -22.363 -19.568  0.00  0.00    -0.227 N 
ATOM     11  N   UNL     1      34.172 -23.054 -18.494  0.00  0.00    -0.115 NA
ATOM     12  N   UNL     1      35.219 -23.404 -16.335  0.00  0.00    -0.335 NA
ATOM     13  N   UNL     1      36.565 -23.510 -14.370  0.00  0.00    -0.332 N 
ATOM     14  C   UNL     1      35.834 -21.772 -19.404  0.00  0.00    +0.097 C 
ATOM     15  C   UNL     1      36.214 -22.106 -18.133  0.00  0.00    +0.090 C 
ATOM     16  C   UNL     1      35.156 -22.902 -17.601  0.00  0.00    +0.105 C 
ATOM     17  C   UNL     1      37.396 -21.731 -17.511  0.00  0.00    +0.016 C 
ATOM     18  C   UNL     1      37.442 -22.256 -16.216  0.00  0.00    +0.049 C 
ATOM     19  C   UNL     1      36.382 -23.045 -15.704  0.00  0.00    +0.189 C 
ATOM     20  H   UNL     1      34.091 -22.289 -20.401  0.00  0.00    +0.175 HD
ATOM     21  H   UNL     1      35.872 -24.064 -13.943  0.00  0.00    +0.145 HD
ATOM     22  H   UNL     1      37.383 -23.277 -13.875  0.00  0.00    +0.145 HD
ENDBRANCH   9  14
ENDBRANCH   8   9
ENDBRANCH   2   8
BRANCH   4  23
ATOM     23  O   UNL     1      36.054 -16.047 -23.585  0.00  0.00    -0.452 OA
BRANCH  23  25
ATOM     24 CL   UNL     1      33.630 -12.143 -25.768  0.00  0.00    -0.082 Cl
ATOM     25  C   UNL     1      35.118 -15.034 -23.468  0.00  0.00    +0.147 C 
ATOM     26  C   UNL     1      34.442 -14.874 -22.271  0.00  0.00    +0.048 C 
ATOM     27  C   UNL     1      34.882 -14.206 -24.551  0.00  0.00    +0.049 C 
ATOM     28  C   UNL     1      33.500 -13.853 -22.154  0.00  0.00    +0.072 C 
ATOM     29  C   UNL     1      33.940 -13.184 -24.434  0.00  0.00    +0.061 C 
ATOM     30  C   UNL     1      33.248 -13.008 -23.235  0.00  0.00    +0.022 C 
BRANCH  28  32
ATOM     31  N   UNL     1      32.214 -13.528 -19.926  0.00  0.00    -0.191 NA
ATOM     32  C   UNL     1      32.792 -13.673 -20.926  0.00  0.00    +0.101 C 
ENDBRANCH  28  32
ENDBRANCH  23  25
ENDBRANCH   4  23
TORSDOF 6
ENDMDL
MODEL 9
REMARK VINA RESULT:     -10.7      2.010      2.887
REMARK  Name = 16045418
REMARK  6 active torsions:
REMARK  status: ('A' for Active; 'I' for Inactive)
REMARK    1  A    between atoms: C_2  and  O_8
REMARK    2  A    between atoms: C_4  and  O_23
REMARK    3  A    between atoms: O_8  and  C_9
REMARK    4  A    between atoms: C_9  and  C_14
REMARK    5  A    between atoms: O_23  and  C_25
REMARK    6  A    between atoms: C_28  and  C_32
REMARK                            x       y       z     vdW  Elec       q    Type
REMARK                         _______ _______ _______ _____ _____    ______ ____
ROOT
ATOM      1 CL   UNL     1      32.944 -12.734 -27.386  0.00  0.00    -0.079 Cl
ATOM      2  C   UNL     1      34.733 -15.472 -24.283  0.00  0.00    +0.142 C 
ATOM      3  C   UNL     1      34.718 -14.099 -24.055  0.00  0.00    +0.075 C 
ATOM      4  C   UNL     1      34.166 -13.244 -25.010  0.00  0.00    +0.159 C 
ATOM      5  C   UNL     1      34.200 -15.998 -25.456  0.00  0.00    +0.038 C 
ATOM      6  C   UNL     1      33.632 -13.766 -26.188  0.00  0.00    +0.092 C 
ATOM      7  C   UNL     1      33.649 -15.143 -26.411  0.00  0.00    +0.018 C 
ENDROOT
BRANCH   2   8
ATOM      8  O   UNL     1      35.274 -16.309 -23.347  0.00  0.00    -0.469 OA
BRANCH   8   9
ATOM      9  C   UNL     1      35.285 -17.702 -23.668  0.00  0.00    +0.249 C 
BRANCH   9  14
ATOM     10  N   UNL     1      37.334 -18.284 -22.391  0.00  0.00    -0.227 N 
ATOM     11  N   UNL     1      37.837 -19.050 -21.400  0.00  0.00    -0.115 NA
ATOM     12  N   UNL     1      36.732 -20.675 -19.978  0.00  0.00    -0.335 NA
ATOM     13  N   UNL     1      35.296 -22.171 -18.802  0.00  0.00    -0.332 N 
ATOM     14  C   UNL     1      35.997 -18.456 -22.623  0.00  0.00    +0.097 C 
ATOM     15  C   UNL     1      35.605 -19.402 -21.716  0.00  0.00    +0.090 C 
ATOM     16  C   UNL     1      36.776 -19.746 -20.975  0.00  0.00    +0.105 C 
ATOM     17  C   UNL     1      34.323 -19.908 -21.568  0.00  0.00    +0.016 C 
ATOM     18  C   UNL     1      34.298 -20.857 -20.542  0.00  0.00    +0.049 C 
ATOM     19  C   UNL     1      35.470 -21.186 -19.816  0.00  0.00    +0.189 C 
ATOM     20  H   UNL     1      37.887 -17.652 -22.906  0.00  0.00    +0.175 HD
ATOM     21  H   UNL     1      36.063 -22.454 -18.254  0.00  0.00    +0.145 HD
ATOM     22  H   UNL     1      34.408 -22.569 -18.649  0.00  0.00    +0.145 HD
ENDBRANCH   9  14
ENDBRANCH   8   9
ENDBRANCH   2   8
BRANCH   4  23
ATOM     23  O   UNL     1      34.162 -11.903 -24.765  0.00  0.00    -0.452 OA
BRANCH  23  25
ATOM     24 CL   UNL     1      31.698 -12.952 -20.439  0.00  0.00    -0.082 Cl
ATOM     25  C   UNL     1      33.381 -11.444 -23.719  0.00  0.00    +0.147 C 
ATOM     26  C   UNL     1      33.012 -10.111 -23.687  0.00  0.00    +0.048 C 
ATOM     27  C   UNL     1      32.987 -12.330 -22.732  0.00  0.00    +0.049 C 
ATOM     28  C   UNL     1      32.223  -9.649 -22.633  0.00  0.00    +0.072 C 
ATOM     29  C   UNL     1      32.198 -11.868 -21.678  0.00  0.00    +0.061 C 
ATOM     30  C   UNL     1      31.817 -10.527 -21.629  0.00  0.00    +0.022 C 
BRANCH  28  32
ATOM     31  N   UNL     1      31.516  -7.155 -22.543  0.00  0.00    -0.191 NA
ATOM     32  C   UNL     1      31.834  -8.275 -22.583  0.00  0.00    +0.101 C 
ENDBRANCH  28  32
ENDBRANCH  23  25
ENDBRANCH   4  23
TORSDOF 6
ENDMDL
