MODEL 1
REMARK VINA RESULT:     -12.5      0.000      0.000
REMARK  Name = 448384
REMARK  11 active torsions:
REMARK  status: ('A' for Active; 'I' for Inactive)
REMARK    1  A    between atoms: C_1  and  C_3
REMARK    2  A    between atoms: C_1  and  C_6
REMARK    3  A    between atoms: C_1  and  C_19
REMARK    4  A    between atoms: C_3  and  O_4
REMARK    5  A    between atoms: C_6  and  C_7
REMARK    6  A    between atoms: C_7  and  N_10
REMARK    7  A    between atoms: C_19  and  C_21
REMARK    8  A    between atoms: C_21  and  C_22
REMARK    9  A    between atoms: C_25  and  C_28
REMARK   10  A    between atoms: C_33  and  O_34
REMARK   11  A    between atoms: O_34  and  C_35
REMARK                            x       y       z     vdW  Elec       q    Type
REMARK                         _______ _______ _______ _____ _____    ______ ____
ROOT
ATOM      1  C   UNL     1      32.444 -22.852 -16.522  0.00  0.00    +0.108 C 
ENDROOT
BRANCH   1   3
ATOM      2  O   UNL     1      30.567 -24.362 -16.174  0.00  0.00    -0.250 OA
ATOM      3  C   UNL     1      30.998 -23.315 -16.641  0.00  0.00    +0.314 C 
BRANCH   3   4
ATOM      4  O   UNL     1      30.218 -22.438 -17.321  0.00  0.00    -0.480 OA
ATOM      5  H   UNL     1      30.569 -21.968 -18.052  0.00  0.00    +0.295 HD
ENDBRANCH   3   4
ENDBRANCH   1   3
BRANCH   1   6
ATOM      6  C   UNL     1      32.994 -23.184 -15.120  0.00  0.00    +0.034 C 
BRANCH   6   7
ATOM      7  C   UNL     1      33.350 -24.658 -14.929  0.00  0.00    +0.102 C 
BRANCH   7  10
ATOM      8  O   UNL     1      35.668 -26.083 -16.143  0.00  0.00    -0.269 OA
ATOM      9  O   UNL     1      34.476 -23.766 -12.313  0.00  0.00    -0.269 OA
ATOM     10  N   UNL     1      34.667 -24.859 -14.395  0.00  0.00    -0.223 N 
ATOM     11  C   UNL     1      35.678 -25.542 -15.053  0.00  0.00    +0.255 C 
ATOM     12  C   UNL     1      35.086 -24.393 -13.158  0.00  0.00    +0.255 C 
ATOM     13  C   UNL     1      36.841 -25.500 -14.167  0.00  0.00    +0.058 C 
ATOM     14  C   UNL     1      36.483 -24.805 -13.020  0.00  0.00    +0.058 C 
ATOM     15  C   UNL     1      38.107 -26.022 -14.339  0.00  0.00    +0.005 C 
ATOM     16  C   UNL     1      37.371 -24.597 -11.986  0.00  0.00    +0.005 C 
ATOM     17  C   UNL     1      39.023 -25.823 -13.304  0.00  0.00    +0.000 C 
ATOM     18  C   UNL     1      38.660 -25.118 -12.138  0.00  0.00    +0.000 C 
ENDBRANCH   7  10
ENDBRANCH   6   7
ENDBRANCH   1   6
BRANCH   1  19
ATOM     19  C   UNL     1      33.275 -23.563 -17.608  0.00  0.00    +0.080 C 
BRANCH  19  21
ATOM     20  O   UNL     1      35.608 -23.099 -17.177  0.00  0.00    -0.291 OA
ATOM     21  C   UNL     1      34.617 -22.886 -17.871  0.00  0.00    +0.174 C 
BRANCH  21  22
ATOM     22  C   UNL     1      34.720 -21.925 -19.007  0.00  0.00    +0.035 C 
ATOM     23  C   UNL     1      33.564 -21.450 -19.628  0.00  0.00    +0.003 C 
ATOM     24  C   UNL     1      35.973 -21.500 -19.448  0.00  0.00    +0.003 C 
ATOM     25  C   UNL     1      34.915 -20.126 -21.130  0.00  0.00    +0.000 C 
ATOM     26  C   UNL     1      33.662 -20.551 -20.689  0.00  0.00    +0.000 C 
ATOM     27  C   UNL     1      36.071 -20.600 -20.510  0.00  0.00    +0.000 C 
BRANCH  25  28
ATOM     28  C   UNL     1      35.017 -19.194 -22.232  0.00  0.00    +0.000 C 
ATOM     29  C   UNL     1      35.527 -17.913 -22.016  0.00  0.00    +0.003 C 
ATOM     30  C   UNL     1      34.603 -19.573 -23.509  0.00  0.00    +0.003 C 
ATOM     31  C   UNL     1      35.624 -17.013 -23.077  0.00  0.00    +0.037 C 
ATOM     32  C   UNL     1      34.700 -18.673 -24.570  0.00  0.00    +0.037 C 
ATOM     33  C   UNL     1      35.210 -17.393 -24.354  0.00  0.00    +0.139 C 
BRANCH  33  34
ATOM     34  O   UNL     1      35.308 -16.515 -25.390  0.00  0.00    -0.475 OA
BRANCH  34  35
ATOM     35  C   UNL     1      34.087 -16.028 -25.946  0.00  0.00    +0.206 C 
ATOM     36  C   UNL     1      33.727 -14.719 -25.275  0.00  0.00    +0.051 C 
ENDBRANCH  34  35
ENDBRANCH  33  34
ENDBRANCH  25  28
ENDBRANCH  21  22
ENDBRANCH  19  21
ENDBRANCH   1  19
TORSDOF 11
ENDMDL
MODEL 2
REMARK VINA RESULT:     -12.1      0.675      2.002
REMARK  Name = 448384
REMARK  11 active torsions:
REMARK  status: ('A' for Active; 'I' for Inactive)
REMARK    1  A    between atoms: C_1  and  C_3
REMARK    2  A    between atoms: C_1  and  C_6
REMARK    3  A    between atoms: C_1  and  C_19
REMARK    4  A    between atoms: C_3  and  O_4
REMARK    5  A    between atoms: C_6  and  C_7
REMARK    6  A    between atoms: C_7  and  N_10
REMARK    7  A    between atoms: C_19  and  C_21
REMARK    8  A    between atoms: C_21  and  C_22
REMARK    9  A    between atoms: C_25  and  C_28
REMARK   10  A    between atoms: C_33  and  O_34
REMARK   11  A    between atoms: O_34  and  C_35
REMARK                            x       y       z     vdW  Elec       q    Type
REMARK                         _______ _______ _______ _____ _____    ______ ____
ROOT
ATOM      1  C   UNL     1      32.958 -23.275 -16.279  0.00  0.00    +0.108 C 
ENDROOT
BRANCH   1   3
ATOM      2  O   UNL     1      30.690 -23.136 -15.408  0.00  0.00    -0.250 OA
ATOM      3  C   UNL     1      31.473 -22.947 -16.331  0.00  0.00    +0.314 C 
BRANCH   3   4
ATOM      4  O   UNL     1      31.094 -22.409 -17.518  0.00  0.00    -0.480 OA
ATOM      5  H   UNL     1      30.184 -22.350 -17.735  0.00  0.00    +0.295 HD
ENDBRANCH   3   4
ENDBRANCH   1   3
BRANCH   1   6
ATOM      6  C   UNL     1      33.192 -24.547 -15.437  0.00  0.00    +0.034 C 
BRANCH   6   7
ATOM      7  C   UNL     1      33.875 -24.283 -14.095  0.00  0.00    +0.102 C 
BRANCH   7  10
ATOM      8  O   UNL     1      35.998 -23.519 -12.147  0.00  0.00    -0.269 OA
ATOM      9  O   UNL     1      35.389 -25.987 -16.021  0.00  0.00    -0.269 OA
ATOM     10  N   UNL     1      35.264 -24.644 -14.085  0.00  0.00    -0.223 N 
ATOM     11  C   UNL     1      36.170 -24.230 -13.120  0.00  0.00    +0.255 C 
ATOM     12  C   UNL     1      35.866 -25.453 -15.037  0.00  0.00    +0.255 C 
ATOM     13  C   UNL     1      37.453 -24.831 -13.482  0.00  0.00    +0.058 C 
ATOM     14  C   UNL     1      37.270 -25.571 -14.642  0.00  0.00    +0.058 C 
ATOM     15  C   UNL     1      38.681 -24.744 -12.859  0.00  0.00    +0.005 C 
ATOM     16  C   UNL     1      38.303 -26.261 -15.238  0.00  0.00    +0.005 C 
ATOM     17  C   UNL     1      39.744 -25.435 -13.446  0.00  0.00    +0.000 C 
ATOM     18  C   UNL     1      39.557 -26.186 -14.625  0.00  0.00    +0.000 C 
ENDBRANCH   7  10
ENDBRANCH   6   7
ENDBRANCH   1   6
BRANCH   1  19
ATOM     19  C   UNL     1      33.463 -23.486 -17.720  0.00  0.00    +0.080 C 
BRANCH  19  21
ATOM     20  O   UNL     1      35.790 -22.975 -17.316  0.00  0.00    -0.291 OA
ATOM     21  C   UNL     1      34.787 -22.781 -17.998  0.00  0.00    +0.174 C 
BRANCH  21  22
ATOM     22  C   UNL     1      34.857 -21.816 -19.133  0.00  0.00    +0.035 C 
ATOM     23  C   UNL     1      36.094 -21.335 -19.566  0.00  0.00    +0.003 C 
ATOM     24  C   UNL     1      33.686 -21.395 -19.762  0.00  0.00    +0.003 C 
ATOM     25  C   UNL     1      34.987 -20.012 -21.256  0.00  0.00    +0.000 C 
ATOM     26  C   UNL     1      36.158 -20.433 -20.627  0.00  0.00    +0.000 C 
ATOM     27  C   UNL     1      33.750 -20.492 -20.824  0.00  0.00    +0.000 C 
BRANCH  25  28
ATOM     28  C   UNL     1      35.053 -19.074 -22.357  0.00  0.00    +0.000 C 
ATOM     29  C   UNL     1      34.571 -19.442 -23.614  0.00  0.00    +0.003 C 
ATOM     30  C   UNL     1      35.600 -17.806 -22.163  0.00  0.00    +0.003 C 
ATOM     31  C   UNL     1      34.637 -18.540 -24.676  0.00  0.00    +0.037 C 
ATOM     32  C   UNL     1      35.664 -16.905 -23.225  0.00  0.00    +0.037 C 
ATOM     33  C   UNL     1      35.184 -17.272 -24.482  0.00  0.00    +0.139 C 
BRANCH  33  34
ATOM     34  O   UNL     1      35.244 -16.392 -25.519  0.00  0.00    -0.475 OA
BRANCH  34  35
ATOM     35  C   UNL     1      34.009 -15.844 -25.979  0.00  0.00    +0.206 C 
ATOM     36  C   UNL     1      33.772 -14.517 -25.290  0.00  0.00    +0.051 C 
ENDBRANCH  34  35
ENDBRANCH  33  34
ENDBRANCH  25  28
ENDBRANCH  21  22
ENDBRANCH  19  21
ENDBRANCH   1  19
TORSDOF 11
ENDMDL
MODEL 3
REMARK VINA RESULT:     -11.8      3.636     11.340
REMARK  Name = 448384
REMARK  11 active torsions:
REMARK  status: ('A' for Active; 'I' for Inactive)
REMARK    1  A    between atoms: C_1  and  C_3
REMARK    2  A    between atoms: C_1  and  C_6
REMARK    3  A    between atoms: C_1  and  C_19
REMARK    4  A    between atoms: C_3  and  O_4
REMARK    5  A    between atoms: C_6  and  C_7
REMARK    6  A    between atoms: C_7  and  N_10
REMARK    7  A    between atoms: C_19  and  C_21
REMARK    8  A    between atoms: C_21  and  C_22
REMARK    9  A    between atoms: C_25  and  C_28
REMARK   10  A    between atoms: C_33  and  O_34
REMARK   11  A    between atoms: O_34  and  C_35
REMARK                            x       y       z     vdW  Elec       q    Type
REMARK                         _______ _______ _______ _____ _____    ______ ____
ROOT
ATOM      1  C   UNL     1      35.358 -17.780 -24.252  0.00  0.00    +0.108 C 
ENDROOT
BRANCH   1   3
ATOM      2  O   UNL     1      34.309 -16.813 -26.224  0.00  0.00    -0.250 OA
ATOM      3  C   UNL     1      34.338 -17.700 -25.380  0.00  0.00    +0.314 C 
BRANCH   3   4
ATOM      4  O   UNL     1      33.453 -18.728 -25.364  0.00  0.00    -0.480 OA
ATOM      5  H   UNL     1      33.211 -19.125 -24.550  0.00  0.00    +0.295 HD
ENDBRANCH   3   4
ENDBRANCH   1   3
BRANCH   1   6
ATOM      6  C   UNL     1      34.978 -16.800 -23.123  0.00  0.00    +0.034 C 
BRANCH   6   7
ATOM      7  C   UNL     1      35.148 -15.328 -23.499  0.00  0.00    +0.102 C 
BRANCH   7  10
ATOM      8  O   UNL     1      33.452 -13.114 -24.551  0.00  0.00    -0.269 OA
ATOM      9  O   UNL     1      34.521 -15.251 -20.582  0.00  0.00    -0.269 OA
ATOM     10  N   UNL     1      34.258 -14.455 -22.787  0.00  0.00    -0.223 N 
ATOM     11  C   UNL     1      33.509 -13.452 -23.383  0.00  0.00    +0.255 C 
ATOM     12  C   UNL     1      34.039 -14.511 -21.419  0.00  0.00    +0.255 C 
ATOM     13  C   UNL     1      32.743 -12.822 -22.308  0.00  0.00    +0.058 C 
ATOM     14  C   UNL     1      33.063 -13.463 -21.120  0.00  0.00    +0.058 C 
ATOM     15  C   UNL     1      31.842 -11.778 -22.354  0.00  0.00    +0.005 C 
ATOM     16  C   UNL     1      32.501 -13.094 -19.916  0.00  0.00    +0.005 C 
ATOM     17  C   UNL     1      31.259 -11.387 -21.146  0.00  0.00    +0.000 C 
ATOM     18  C   UNL     1      31.585 -12.037 -19.939  0.00  0.00    +0.000 C 
ENDBRANCH   7  10
ENDBRANCH   6   7
ENDBRANCH   1   6
BRANCH   1  19
ATOM     19  C   UNL     1      35.386 -19.227 -23.721  0.00  0.00    +0.080 C 
BRANCH  19  21
ATOM     20  O   UNL     1      37.300 -18.865 -22.290  0.00  0.00    -0.291 OA
ATOM     21  C   UNL     1      36.191 -19.374 -22.434  0.00  0.00    +0.174 C 
BRANCH  21  22
ATOM     22  C   UNL     1      35.611 -20.175 -21.317  0.00  0.00    +0.035 C 
ATOM     23  C   UNL     1      34.228 -20.233 -21.144  0.00  0.00    +0.003 C 
ATOM     24  C   UNL     1      36.452 -20.868 -20.446  0.00  0.00    +0.003 C 
ATOM     25  C   UNL     1      34.528 -21.674 -19.229  0.00  0.00    +0.000 C 
ATOM     26  C   UNL     1      33.687 -20.982 -20.100  0.00  0.00    +0.000 C 
ATOM     27  C   UNL     1      35.911 -21.617 -19.402  0.00  0.00    +0.000 C 
BRANCH  25  28
ATOM     28  C   UNL     1      33.967 -22.452 -18.145  0.00  0.00    +0.000 C 
ATOM     29  C   UNL     1      34.811 -23.127 -17.262  0.00  0.00    +0.003 C 
ATOM     30  C   UNL     1      32.584 -22.528 -17.983  0.00  0.00    +0.003 C 
ATOM     31  C   UNL     1      34.272 -23.878 -16.218  0.00  0.00    +0.037 C 
ATOM     32  C   UNL     1      32.045 -23.279 -16.939  0.00  0.00    +0.037 C 
ATOM     33  C   UNL     1      32.888 -23.954 -16.057  0.00  0.00    +0.139 C 
BRANCH  33  34
ATOM     34  O   UNL     1      32.362 -24.686 -15.036  0.00  0.00    -0.475 OA
BRANCH  34  35
ATOM     35  C   UNL     1      31.029 -24.374 -14.633  0.00  0.00    +0.206 C 
ATOM     36  C   UNL     1      30.139 -25.568 -14.910  0.00  0.00    +0.051 C 
ENDBRANCH  34  35
ENDBRANCH  33  34
ENDBRANCH  25  28
ENDBRANCH  21  22
ENDBRANCH  19  21
ENDBRANCH   1  19
TORSDOF 11
ENDMDL
MODEL 4
REMARK VINA RESULT:     -11.7      5.056     13.686
REMARK  Name = 448384
REMARK  11 active torsions:
REMARK  status: ('A' for Active; 'I' for Inactive)
REMARK    1  A    between atoms: C_1  and  C_3
REMARK    2  A    between atoms: C_1  and  C_6
REMARK    3  A    between atoms: C_1  and  C_19
REMARK    4  A    between atoms: C_3  and  O_4
REMARK    5  A    between atoms: C_6  and  C_7
REMARK    6  A    between atoms: C_7  and  N_10
REMARK    7  A    between atoms: C_19  and  C_21
REMARK    8  A    between atoms: C_21  and  C_22
REMARK    9  A    between atoms: C_25  and  C_28
REMARK   10  A    between atoms: C_33  and  O_34
REMARK   11  A    between atoms: O_34  and  C_35
REMARK                            x       y       z     vdW  Elec       q    Type
REMARK                         _______ _______ _______ _____ _____    ______ ____
ROOT
ATOM      1  C   UNL     1      34.465 -13.600 -25.760  0.00  0.00    +0.108 C 
ENDROOT
BRANCH   1   3
ATOM      2  O   UNL     1      34.141 -13.973 -28.143  0.00  0.00    -0.250 OA
ATOM      3  C   UNL     1      33.770 -14.165 -26.991  0.00  0.00    +0.314 C 
BRANCH   3   4
ATOM      4  O   UNL     1      32.686 -14.921 -26.684  0.00  0.00    -0.480 OA
ATOM      5  H   UNL     1      31.976 -14.989 -27.291  0.00  0.00    +0.295 HD
ENDBRANCH   3   4
ENDBRANCH   1   3
BRANCH   1   6
ATOM      6  C   UNL     1      33.801 -12.274 -25.337  0.00  0.00    +0.034 C 
BRANCH   6   7
ATOM      7  C   UNL     1      34.182 -11.812 -23.930  0.00  0.00    +0.102 C 
BRANCH   7  10
ATOM      8  O   UNL     1      35.719  -9.328 -24.522  0.00  0.00    -0.269 OA
ATOM      9  O   UNL     1      31.722 -10.723 -22.640  0.00  0.00    -0.269 OA
ATOM     10  N   UNL     1      33.828 -10.447 -23.666  0.00  0.00    -0.223 N 
ATOM     11  C   UNL     1      34.625  -9.359 -23.989  0.00  0.00    +0.255 C 
ATOM     12  C   UNL     1      32.645 -10.051 -23.058  0.00  0.00    +0.255 C 
ATOM     13  C   UNL     1      33.886  -8.172 -23.560  0.00  0.00    +0.058 C 
ATOM     14  C   UNL     1      32.689  -8.590 -22.997  0.00  0.00    +0.058 C 
ATOM     15  C   UNL     1      34.223  -6.837 -23.649  0.00  0.00    +0.005 C 
ATOM     16  C   UNL     1      31.768  -7.697 -22.493  0.00  0.00    +0.005 C 
ATOM     17  C   UNL     1      33.304  -5.913 -23.145  0.00  0.00    +0.000 C 
ATOM     18  C   UNL     1      32.088  -6.338 -22.571  0.00  0.00    +0.000 C 
ENDBRANCH   7  10
ENDBRANCH   6   7
ENDBRANCH   1   6
BRANCH   1  19
ATOM     19  C   UNL     1      34.365 -14.637 -24.624  0.00  0.00    +0.080 C 
BRANCH  19  21
ATOM     20  O   UNL     1      35.515 -16.190 -26.076  0.00  0.00    -0.291 OA
ATOM     21  C   UNL     1      35.012 -15.973 -24.976  0.00  0.00    +0.174 C 
BRANCH  21  22
ATOM     22  C   UNL     1      35.020 -17.055 -23.949  0.00  0.00    +0.035 C 
ATOM     23  C   UNL     1      34.721 -18.368 -24.315  0.00  0.00    +0.003 C 
ATOM     24  C   UNL     1      35.329 -16.754 -22.623  0.00  0.00    +0.003 C 
ATOM     25  C   UNL     1      35.038 -19.077 -22.027  0.00  0.00    +0.000 C 
ATOM     26  C   UNL     1      34.730 -19.378 -23.354  0.00  0.00    +0.000 C 
ATOM     27  C   UNL     1      35.338 -17.765 -21.661  0.00  0.00    +0.000 C 
BRANCH  25  28
ATOM     28  C   UNL     1      35.047 -20.125 -21.029  0.00  0.00    +0.000 C 
ATOM     29  C   UNL     1      36.257 -20.567 -20.494  0.00  0.00    +0.003 C 
ATOM     30  C   UNL     1      33.846 -20.695 -20.605  0.00  0.00    +0.003 C 
ATOM     31  C   UNL     1      36.266 -21.579 -19.534  0.00  0.00    +0.037 C 
ATOM     32  C   UNL     1      33.856 -21.706 -19.645  0.00  0.00    +0.037 C 
ATOM     33  C   UNL     1      35.066 -22.148 -19.110  0.00  0.00    +0.139 C 
BRANCH  33  34
ATOM     34  O   UNL     1      35.076 -23.134 -18.170  0.00  0.00    -0.475 OA
BRANCH  34  35
ATOM     35  C   UNL     1      33.816 -23.527 -17.628  0.00  0.00    +0.206 C 
ATOM     36  C   UNL     1      33.888 -23.462 -16.117  0.00  0.00    +0.051 C 
ENDBRANCH  34  35
ENDBRANCH  33  34
ENDBRANCH  25  28
ENDBRANCH  21  22
ENDBRANCH  19  21
ENDBRANCH   1  19
TORSDOF 11
ENDMDL
MODEL 5
REMARK VINA RESULT:     -11.7      5.000     13.261
REMARK  Name = 448384
REMARK  11 active torsions:
REMARK  status: ('A' for Active; 'I' for Inactive)
REMARK    1  A    between atoms: C_1  and  C_3
REMARK    2  A    between atoms: C_1  and  C_6
REMARK    3  A    between atoms: C_1  and  C_19
REMARK    4  A    between atoms: C_3  and  O_4
REMARK    5  A    between atoms: C_6  and  C_7
REMARK    6  A    between atoms: C_7  and  N_10
REMARK    7  A    between atoms: C_19  and  C_21
REMARK    8  A    between atoms: C_21  and  C_22
REMARK    9  A    between atoms: C_25  and  C_28
REMARK   10  A    between atoms: C_33  and  O_34
REMARK   11  A    between atoms: O_34  and  C_35
REMARK                            x       y       z     vdW  Elec       q    Type
REMARK                         _______ _______ _______ _____ _____    ______ ____
ROOT
ATOM      1  C   UNL     1      33.802 -14.298 -23.814  0.00  0.00    +0.108 C 
ENDROOT
BRANCH   1   3
ATOM      2  O   UNL     1      34.919 -14.104 -21.661  0.00  0.00    -0.250 OA
ATOM      3  C   UNL     1      33.878 -14.108 -22.305  0.00  0.00    +0.314 C 
BRANCH   3   4
ATOM      4  O   UNL     1      32.659 -13.934 -21.735  0.00  0.00    -0.480 OA
ATOM      5  H   UNL     1      32.230 -13.103 -21.793  0.00  0.00    +0.295 HD
ENDBRANCH   3   4
ENDBRANCH   1   3
BRANCH   1   6
ATOM      6  C   UNL     1      33.402 -12.974 -24.497  0.00  0.00    +0.034 C 
BRANCH   6   7
ATOM      7  C   UNL     1      34.517 -11.928 -24.520  0.00  0.00    +0.102 C 
BRANCH   7  10
ATOM      8  O   UNL     1      32.155 -11.250 -22.832  0.00  0.00    -0.269 OA
ATOM      9  O   UNL     1      35.793  -9.257 -24.897  0.00  0.00    -0.269 OA
ATOM     10  N   UNL     1      34.104 -10.649 -24.017  0.00  0.00    -0.223 N 
ATOM     11  C   UNL     1      32.979 -10.447 -23.231  0.00  0.00    +0.255 C 
ATOM     12  C   UNL     1      34.781  -9.462 -24.254  0.00  0.00    +0.255 C 
ATOM     13  C   UNL     1      32.940  -9.015 -22.936  0.00  0.00    +0.058 C 
ATOM     14  C   UNL     1      34.031  -8.419 -23.554  0.00  0.00    +0.058 C 
ATOM     15  C   UNL     1      32.035  -8.286 -22.193  0.00  0.00    +0.005 C 
ATOM     16  C   UNL     1      34.271  -7.064 -23.463  0.00  0.00    +0.005 C 
ATOM     17  C   UNL     1      32.258  -6.911 -22.086  0.00  0.00    +0.000 C 
ATOM     18  C   UNL     1      33.366  -6.305 -22.715  0.00  0.00    +0.000 C 
ENDBRANCH   7  10
ENDBRANCH   6   7
ENDBRANCH   1   6
BRANCH   1  19
ATOM     19  C   UNL     1      35.183 -14.766 -24.317  0.00  0.00    +0.080 C 
BRANCH  19  21
ATOM     20  O   UNL     1      35.228 -16.527 -25.971  0.00  0.00    -0.291 OA
ATOM     21  C   UNL     1      35.187 -16.218 -24.783  0.00  0.00    +0.174 C 
BRANCH  21  22
ATOM     22  C   UNL     1      35.128 -17.297 -23.755  0.00  0.00    +0.035 C 
ATOM     23  C   UNL     1      35.585 -17.054 -22.460  0.00  0.00    +0.003 C 
ATOM     24  C   UNL     1      34.615 -18.551 -24.090  0.00  0.00    +0.003 C 
ATOM     25  C   UNL     1      35.017 -19.317 -21.834  0.00  0.00    +0.000 C 
ATOM     26  C   UNL     1      35.530 -18.064 -21.500  0.00  0.00    +0.000 C 
ATOM     27  C   UNL     1      34.560 -19.561 -23.129  0.00  0.00    +0.000 C 
BRANCH  25  28
ATOM     28  C   UNL     1      34.960 -20.366 -20.838  0.00  0.00    +0.000 C 
ATOM     29  C   UNL     1      36.137 -20.839 -20.257  0.00  0.00    +0.003 C 
ATOM     30  C   UNL     1      33.730 -20.905 -20.462  0.00  0.00    +0.003 C 
ATOM     31  C   UNL     1      36.083 -21.851 -19.299  0.00  0.00    +0.037 C 
ATOM     32  C   UNL     1      33.676 -21.916 -19.503  0.00  0.00    +0.037 C 
ATOM     33  C   UNL     1      34.853 -22.390 -18.922  0.00  0.00    +0.139 C 
BRANCH  33  34
ATOM     34  O   UNL     1      34.801 -23.376 -17.985  0.00  0.00    -0.475 OA
BRANCH  34  35
ATOM     35  C   UNL     1      33.647 -23.414 -17.146  0.00  0.00    +0.206 C 
ATOM     36  C   UNL     1      34.086 -23.316 -15.700  0.00  0.00    +0.051 C 
ENDBRANCH  34  35
ENDBRANCH  33  34
ENDBRANCH  25  28
ENDBRANCH  21  22
ENDBRANCH  19  21
ENDBRANCH   1  19
TORSDOF 11
ENDMDL
MODEL 6
REMARK VINA RESULT:     -11.7      4.496     12.071
REMARK  Name = 448384
REMARK  11 active torsions:
REMARK  status: ('A' for Active; 'I' for Inactive)
REMARK    1  A    between atoms: C_1  and  C_3
REMARK    2  A    between atoms: C_1  and  C_6
REMARK    3  A    between atoms: C_1  and  C_19
REMARK    4  A    between atoms: C_3  and  O_4
REMARK    5  A    between atoms: C_6  and  C_7
REMARK    6  A    between atoms: C_7  and  N_10
REMARK    7  A    between atoms: C_19  and  C_21
REMARK    8  A    between atoms: C_21  and  C_22
REMARK    9  A    between atoms: C_25  and  C_28
REMARK   10  A    between atoms: C_33  and  O_34
REMARK   11  A    between atoms: O_34  and  C_35
REMARK                            x       y       z     vdW  Elec       q    Type
REMARK                         _______ _______ _______ _____ _____    ______ ____
ROOT
ATOM      1  C   UNL     1      34.493 -14.101 -25.296  0.00  0.00    +0.108 C 
ENDROOT
BRANCH   1   3
ATOM      2  O   UNL     1      33.059 -13.553 -27.184  0.00  0.00    -0.250 OA
ATOM      3  C   UNL     1      33.772 -13.173 -26.263  0.00  0.00    +0.314 C 
BRANCH   3   4
ATOM      4  O   UNL     1      33.992 -11.861 -25.999  0.00  0.00    -0.480 OA
ATOM      5  H   UNL     1      33.531 -11.202 -26.480  0.00  0.00    +0.295 HD
ENDBRANCH   3   4
ENDBRANCH   1   3
BRANCH   1   6
ATOM      6  C   UNL     1      34.347 -13.580 -23.851  0.00  0.00    +0.034 C 
BRANCH   6   7
ATOM      7  C   UNL     1      32.960 -13.806 -23.250  0.00  0.00    +0.102 C 
BRANCH   7  10
ATOM      8  O   UNL     1      32.407 -14.316 -20.366  0.00  0.00    -0.269 OA
ATOM      9  O   UNL     1      32.644 -10.844 -23.424  0.00  0.00    -0.269 OA
ATOM     10  N   UNL     1      32.631 -12.869 -22.214  0.00  0.00    -0.223 N 
ATOM     11  C   UNL     1      32.394 -13.219 -20.893  0.00  0.00    +0.255 C 
ATOM     12  C   UNL     1      32.513 -11.501 -22.408  0.00  0.00    +0.255 C 
ATOM     13  C   UNL     1      32.110 -11.971 -20.186  0.00  0.00    +0.058 C 
ATOM     14  C   UNL     1      32.182 -10.932 -21.102  0.00  0.00    +0.058 C 
ATOM     15  C   UNL     1      31.813 -11.753 -18.856  0.00  0.00    +0.005 C 
ATOM     16  C   UNL     1      31.960  -9.621 -20.737  0.00  0.00    +0.005 C 
ATOM     17  C   UNL     1      31.584 -10.432 -18.464  0.00  0.00    +0.000 C 
ATOM     18  C   UNL     1      31.656  -9.375 -19.395  0.00  0.00    +0.000 C 
ENDBRANCH   7  10
ENDBRANCH   6   7
ENDBRANCH   1   6
BRANCH   1  19
ATOM     19  C   UNL     1      33.882 -15.510 -25.423  0.00  0.00    +0.080 C 
BRANCH  19  21
ATOM     20  O   UNL     1      35.720 -16.754 -26.381  0.00  0.00    -0.291 OA
ATOM     21  C   UNL     1      34.932 -16.616 -25.448  0.00  0.00    +0.174 C 
BRANCH  21  22
ATOM     22  C   UNL     1      34.993 -17.568 -24.301  0.00  0.00    +0.035 C 
ATOM     23  C   UNL     1      34.558 -18.884 -24.462  0.00  0.00    +0.003 C 
ATOM     24  C   UNL     1      35.486 -17.142 -23.068  0.00  0.00    +0.003 C 
ATOM     25  C   UNL     1      35.109 -19.347 -22.156  0.00  0.00    +0.000 C 
ATOM     26  C   UNL     1      34.616 -19.773 -23.389  0.00  0.00    +0.000 C 
ATOM     27  C   UNL     1      35.544 -18.032 -21.994  0.00  0.00    +0.000 C 
BRANCH  25  28
ATOM     28  C   UNL     1      35.168 -20.269 -21.042  0.00  0.00    +0.000 C 
ATOM     29  C   UNL     1      33.995 -20.840 -20.547  0.00  0.00    +0.003 C 
ATOM     30  C   UNL     1      36.396 -20.584 -20.461  0.00  0.00    +0.003 C 
ATOM     31  C   UNL     1      34.051 -21.727 -19.472  0.00  0.00    +0.037 C 
ATOM     32  C   UNL     1      36.451 -21.472 -19.386  0.00  0.00    +0.037 C 
ATOM     33  C   UNL     1      35.279 -22.043 -18.892  0.00  0.00    +0.139 C 
BRANCH  33  34
ATOM     34  O   UNL     1      35.333 -22.911 -17.844  0.00  0.00    -0.475 OA
BRANCH  34  35
ATOM     35  C   UNL     1      34.111 -23.175 -17.156  0.00  0.00    +0.206 C 
ATOM     36  C   UNL     1      34.427 -23.633 -15.748  0.00  0.00    +0.051 C 
ENDBRANCH  34  35
ENDBRANCH  33  34
ENDBRANCH  25  28
ENDBRANCH  21  22
ENDBRANCH  19  21
ENDBRANCH   1  19
TORSDOF 11
ENDMDL
MODEL 7
REMARK VINA RESULT:     -11.6      3.740     11.569
REMARK  Name = 448384
REMARK  11 active torsions:
REMARK  status: ('A' for Active; 'I' for Inactive)
REMARK    1  A    between atoms: C_1  and  C_3
REMARK    2  A    between atoms: C_1  and  C_6
REMARK    3  A    between atoms: C_1  and  C_19
REMARK    4  A    between atoms: C_3  and  O_4
REMARK    5  A    between atoms: C_6  and  C_7
REMARK    6  A    between atoms: C_7  and  N_10
REMARK    7  A    between atoms: C_19  and  C_21
REMARK    8  A    between atoms: C_21  and  C_22
REMARK    9  A    between atoms: C_25  and  C_28
REMARK   10  A    between atoms: C_33  and  O_34
REMARK   11  A    between atoms: O_34  and  C_35
REMARK                            x       y       z     vdW  Elec       q    Type
REMARK                         _______ _______ _______ _____ _____    ______ ____
ROOT
ATOM      1  C   UNL     1      35.449 -17.427 -24.144  0.00  0.00    +0.108 C 
ENDROOT
BRANCH   1   3
ATOM      2  O   UNL     1      33.640 -17.908 -25.699  0.00  0.00    -0.250 OA
ATOM      3  C   UNL     1      34.647 -17.266 -25.429  0.00  0.00    +0.314 C 
BRANCH   3   4
ATOM      4  O   UNL     1      35.162 -16.323 -26.256  0.00  0.00    -0.480 OA
ATOM      5  H   UNL     1      35.568 -16.578 -27.062  0.00  0.00    +0.295 HD
ENDBRANCH   3   4
ENDBRANCH   1   3
BRANCH   1   6
ATOM      6  C   UNL     1      34.928 -16.452 -23.068  0.00  0.00    +0.034 C 
BRANCH   6   7
ATOM      7  C   UNL     1      35.015 -14.980 -23.472  0.00  0.00    +0.102 C 
BRANCH   7  10
ATOM      8  O   UNL     1      34.320 -15.078 -20.575  0.00  0.00    -0.269 OA
ATOM      9  O   UNL     1      33.378 -12.673 -24.421  0.00  0.00    -0.269 OA
ATOM     10  N   UNL     1      34.127 -14.134 -22.727  0.00  0.00    -0.223 N 
ATOM     11  C   UNL     1      33.877 -14.269 -21.370  0.00  0.00    +0.255 C 
ATOM     12  C   UNL     1      33.412 -13.079 -23.275  0.00  0.00    +0.255 C 
ATOM     13  C   UNL     1      32.933 -13.208 -21.022  0.00  0.00    +0.058 C 
ATOM     14  C   UNL     1      32.652 -12.488 -22.174  0.00  0.00    +0.058 C 
ATOM     15  C   UNL     1      32.363 -12.891 -19.806  0.00  0.00    +0.005 C 
ATOM     16  C   UNL     1      31.786 -11.415 -22.171  0.00  0.00    +0.005 C 
ATOM     17  C   UNL     1      31.482 -11.807 -19.779  0.00  0.00    +0.000 C 
ATOM     18  C   UNL     1      31.195 -11.076 -20.950  0.00  0.00    +0.000 C 
ENDBRANCH   7  10
ENDBRANCH   6   7
ENDBRANCH   1   6
BRANCH   1  19
ATOM     19  C   UNL     1      35.310 -18.884 -23.661  0.00  0.00    +0.080 C 
BRANCH  19  21
ATOM     20  O   UNL     1      37.420 -18.850 -22.483  0.00  0.00    -0.291 OA
ATOM     21  C   UNL     1      36.250 -19.222 -22.508  0.00  0.00    +0.174 C 
BRANCH  21  22
ATOM     22  C   UNL     1      35.725 -20.042 -21.378  0.00  0.00    +0.035 C 
ATOM     23  C   UNL     1      36.605 -20.578 -20.436  0.00  0.00    +0.003 C 
ATOM     24  C   UNL     1      34.354 -20.273 -21.262  0.00  0.00    +0.003 C 
ATOM     25  C   UNL     1      34.743 -21.576 -19.265  0.00  0.00    +0.000 C 
ATOM     26  C   UNL     1      36.114 -21.345 -19.381  0.00  0.00    +0.000 C 
ATOM     27  C   UNL     1      33.863 -21.041 -20.205  0.00  0.00    +0.000 C 
BRANCH  25  28
ATOM     28  C   UNL     1      34.232 -22.372 -18.169  0.00  0.00    +0.000 C 
ATOM     29  C   UNL     1      32.858 -22.575 -18.037  0.00  0.00    +0.003 C 
ATOM     30  C   UNL     1      35.113 -22.935 -17.245  0.00  0.00    +0.003 C 
ATOM     31  C   UNL     1      32.365 -23.340 -16.980  0.00  0.00    +0.037 C 
ATOM     32  C   UNL     1      34.619 -23.700 -16.189  0.00  0.00    +0.037 C 
ATOM     33  C   UNL     1      33.245 -23.903 -16.056  0.00  0.00    +0.139 C 
BRANCH  33  34
ATOM     34  O   UNL     1      32.763 -24.652 -15.027  0.00  0.00    -0.475 OA
BRANCH  34  35
ATOM     35  C   UNL     1      31.875 -24.008 -14.115  0.00  0.00    +0.206 C 
ATOM     36  C   UNL     1      30.982 -25.051 -13.477  0.00  0.00    +0.051 C 
ENDBRANCH  34  35
ENDBRANCH  33  34
ENDBRANCH  25  28
ENDBRANCH  21  22
ENDBRANCH  19  21
ENDBRANCH   1  19
TORSDOF 11
ENDMDL
MODEL 8
REMARK VINA RESULT:     -11.4      1.890      4.628
REMARK  Name = 448384
REMARK  11 active torsions:
REMARK  status: ('A' for Active; 'I' for Inactive)
REMARK    1  A    between atoms: C_1  and  C_3
REMARK    2  A    between atoms: C_1  and  C_6
REMARK    3  A    between atoms: C_1  and  C_19
REMARK    4  A    between atoms: C_3  and  O_4
REMARK    5  A    between atoms: C_6  and  C_7
REMARK    6  A    between atoms: C_7  and  N_10
REMARK    7  A    between atoms: C_19  and  C_21
REMARK    8  A    between atoms: C_21  and  C_22
REMARK    9  A    between atoms: C_25  and  C_28
REMARK   10  A    between atoms: C_33  and  O_34
REMARK   11  A    between atoms: O_34  and  C_35
REMARK                            x       y       z     vdW  Elec       q    Type
REMARK                         _______ _______ _______ _____ _____    ______ ____
ROOT
ATOM      1  C   UNL     1      36.425 -23.561 -16.300  0.00  0.00    +0.108 C 
ENDROOT
BRANCH   1   3
ATOM      2  O   UNL     1      37.869 -23.026 -14.415  0.00  0.00    -0.250 OA
ATOM      3  C   UNL     1      37.742 -23.212 -15.619  0.00  0.00    +0.314 C 
BRANCH   3   4
ATOM      4  O   UNL     1      38.780 -23.131 -16.489  0.00  0.00    -0.480 OA
ATOM      5  H   UNL     1      39.605 -22.792 -16.202  0.00  0.00    +0.295 HD
ENDBRANCH   3   4
ENDBRANCH   1   3
BRANCH   1   6
ATOM      6  C   UNL     1      35.387 -24.008 -15.250  0.00  0.00    +0.034 C 
BRANCH   6   7
ATOM      7  C   UNL     1      34.305 -22.965 -14.967  0.00  0.00    +0.102 C 
BRANCH   7  10
ATOM      8  O   UNL     1      32.884 -24.927 -13.231  0.00  0.00    -0.269 OA
ATOM      9  O   UNL     1      32.241 -22.363 -17.036  0.00  0.00    -0.269 OA
ATOM     10  N   UNL     1      32.973 -23.482 -15.093  0.00  0.00    -0.223 N 
ATOM     11  C   UNL     1      32.407 -24.398 -14.218  0.00  0.00    +0.255 C 
ATOM     12  C   UNL     1      32.090 -23.127 -16.102  0.00  0.00    +0.255 C 
ATOM     13  C   UNL     1      31.049 -24.640 -14.705  0.00  0.00    +0.058 C 
ATOM     14  C   UNL     1      30.857 -23.871 -15.844  0.00  0.00    +0.058 C 
ATOM     15  C   UNL     1      30.060 -25.460 -14.203  0.00  0.00    +0.005 C 
ATOM     16  C   UNL     1      29.667 -23.883 -16.540  0.00  0.00    +0.005 C 
ATOM     17  C   UNL     1      28.845 -25.488 -14.892  0.00  0.00    +0.000 C 
ATOM     18  C   UNL     1      28.650 -24.707 -16.050  0.00  0.00    +0.000 C 
ENDBRANCH   7  10
ENDBRANCH   6   7
ENDBRANCH   1   6
BRANCH   1  19
ATOM     19  C   UNL     1      35.922 -22.316 -17.057  0.00  0.00    +0.080 C 
BRANCH  19  21
ATOM     20  O   UNL     1      34.546 -23.721 -18.462  0.00  0.00    -0.291 OA
ATOM     21  C   UNL     1      35.153 -22.661 -18.328  0.00  0.00    +0.174 C 
BRANCH  21  22
ATOM     22  C   UNL     1      35.151 -21.677 -19.449  0.00  0.00    +0.035 C 
ATOM     23  C   UNL     1      33.942 -21.227 -19.980  0.00  0.00    +0.003 C 
ATOM     24  C   UNL     1      36.358 -21.208 -19.967  0.00  0.00    +0.003 C 
ATOM     25  C   UNL     1      35.148 -19.837 -21.546  0.00  0.00    +0.000 C 
ATOM     26  C   UNL     1      33.940 -20.307 -21.028  0.00  0.00    +0.000 C 
ATOM     27  C   UNL     1      36.356 -20.287 -21.016  0.00  0.00    +0.000 C 
BRANCH  25  28
ATOM     28  C   UNL     1      35.147 -18.883 -22.634  0.00  0.00    +0.000 C 
ATOM     29  C   UNL     1      35.628 -17.590 -22.427  0.00  0.00    +0.003 C 
ATOM     30  C   UNL     1      34.663 -19.255 -23.888  0.00  0.00    +0.003 C 
ATOM     31  C   UNL     1      35.626 -16.669 -23.475  0.00  0.00    +0.037 C 
ATOM     32  C   UNL     1      34.661 -18.334 -24.936  0.00  0.00    +0.037 C 
ATOM     33  C   UNL     1      35.142 -17.041 -24.729  0.00  0.00    +0.139 C 
BRANCH  33  34
ATOM     34  O   UNL     1      35.143 -16.143 -25.752  0.00  0.00    -0.475 OA
BRANCH  34  35
ATOM     35  C   UNL     1      33.881 -15.605 -26.145  0.00  0.00    +0.206 C 
ATOM     36  C   UNL     1      33.532 -14.448 -25.233  0.00  0.00    +0.051 C 
ENDBRANCH  34  35
ENDBRANCH  33  34
ENDBRANCH  25  28
ENDBRANCH  21  22
ENDBRANCH  19  21
ENDBRANCH   1  19
TORSDOF 11
ENDMDL
MODEL 9
REMARK VINA RESULT:     -11.3      5.037     13.741
REMARK  Name = 448384
REMARK  11 active torsions:
REMARK  status: ('A' for Active; 'I' for Inactive)
REMARK    1  A    between atoms: C_1  and  C_3
REMARK    2  A    between atoms: C_1  and  C_6
REMARK    3  A    between atoms: C_1  and  C_19
REMARK    4  A    between atoms: C_3  and  O_4
REMARK    5  A    between atoms: C_6  and  C_7
REMARK    6  A    between atoms: C_7  and  N_10
REMARK    7  A    between atoms: C_19  and  C_21
REMARK    8  A    between atoms: C_21  and  C_22
REMARK    9  A    between atoms: C_25  and  C_28
REMARK   10  A    between atoms: C_33  and  O_34
REMARK   11  A    between atoms: O_34  and  C_35
REMARK                            x       y       z     vdW  Elec       q    Type
REMARK                         _______ _______ _______ _____ _____    ______ ____
ROOT
ATOM      1  C   UNL     1      34.193 -13.773 -25.695  0.00  0.00    +0.108 C 
ENDROOT
BRANCH   1   3
ATOM      2  O   UNL     1      33.369 -12.997 -27.850  0.00  0.00    -0.250 OA
ATOM      3  C   UNL     1      33.693 -13.930 -27.124  0.00  0.00    +0.314 C 
BRANCH   3   4
ATOM      4  O   UNL     1      33.644 -15.225 -27.526  0.00  0.00    -0.480 OA
ATOM      5  H   UNL     1      33.150 -15.460 -28.287  0.00  0.00    +0.295 HD
ENDBRANCH   3   4
ENDBRANCH   1   3
BRANCH   1   6
ATOM      6  C   UNL     1      33.527 -12.551 -25.030  0.00  0.00    +0.034 C 
BRANCH   6   7
ATOM      7  C   UNL     1      34.421 -11.833 -24.019  0.00  0.00    +0.102 C 
BRANCH   7  10
ATOM      8  O   UNL     1      31.919 -10.871 -22.715  0.00  0.00    -0.269 OA
ATOM      9  O   UNL     1      35.827  -9.271 -24.622  0.00  0.00    -0.269 OA
ATOM     10  N   UNL     1      34.003 -10.487 -23.748  0.00  0.00    -0.223 N 
ATOM     11  C   UNL     1      32.809 -10.151 -23.129  0.00  0.00    +0.255 C 
ATOM     12  C   UNL     1      34.745  -9.361 -24.073  0.00  0.00    +0.255 C 
ATOM     13  C   UNL     1      32.792  -8.691 -23.043  0.00  0.00    +0.058 C 
ATOM     14  C   UNL     1      33.963  -8.213 -23.614  0.00  0.00    +0.058 C 
ATOM     15  C   UNL     1      31.839  -7.845 -22.515  0.00  0.00    +0.005 C 
ATOM     16  C   UNL     1      34.241  -6.865 -23.686  0.00  0.00    +0.005 C 
ATOM     17  C   UNL     1      32.100  -6.474 -22.577  0.00  0.00    +0.000 C 
ATOM     18  C   UNL     1      33.289  -5.988 -23.157  0.00  0.00    +0.000 C 
ENDBRANCH   7  10
ENDBRANCH   6   7
ENDBRANCH   1   6
BRANCH   1  19
ATOM     19  C   UNL     1      33.855 -15.059 -24.915  0.00  0.00    +0.080 C 
BRANCH  19  21
ATOM     20  O   UNL     1      35.755 -16.146 -25.941  0.00  0.00    -0.291 OA
ATOM     21  C   UNL     1      34.943 -16.123 -25.019  0.00  0.00    +0.174 C 
BRANCH  21  22
ATOM     22  C   UNL     1      35.013 -17.177 -23.966  0.00  0.00    +0.035 C 
ATOM     23  C   UNL     1      34.738 -18.507 -24.289  0.00  0.00    +0.003 C 
ATOM     24  C   UNL     1      35.355 -16.834 -22.658  0.00  0.00    +0.003 C 
ATOM     25  C   UNL     1      35.145 -19.147 -21.996  0.00  0.00    +0.000 C 
ATOM     26  C   UNL     1      34.804 -19.491 -23.304  0.00  0.00    +0.000 C 
ATOM     27  C   UNL     1      35.420 -17.819 -21.672  0.00  0.00    +0.000 C 
BRANCH  25  28
ATOM     28  C   UNL     1      35.213 -20.169 -20.972  0.00  0.00    +0.000 C 
ATOM     29  C   UNL     1      34.041 -20.773 -20.513  0.00  0.00    +0.003 C 
ATOM     30  C   UNL     1      36.447 -20.547 -20.444  0.00  0.00    +0.003 C 
ATOM     31  C   UNL     1      34.105 -21.756 -19.526  0.00  0.00    +0.037 C 
ATOM     32  C   UNL     1      36.510 -21.530 -19.457  0.00  0.00    +0.037 C 
ATOM     33  C   UNL     1      35.339 -22.134 -18.997  0.00  0.00    +0.139 C 
BRANCH  33  34
ATOM     34  O   UNL     1      35.401 -23.096 -18.035  0.00  0.00    -0.475 OA
BRANCH  34  35
ATOM     35  C   UNL     1      34.832 -22.781 -16.765  0.00  0.00    +0.206 C 
ATOM     36  C   UNL     1      35.529 -23.597 -15.697  0.00  0.00    +0.051 C 
ENDBRANCH  34  35
ENDBRANCH  33  34
ENDBRANCH  25  28
ENDBRANCH  21  22
ENDBRANCH  19  21
ENDBRANCH   1  19
TORSDOF 11
ENDMDL
